data_image0
_chemical_formula_structural       H2CHCFe2S2HNH2S2H2SC2FeS2FeS2FeSFeS3HSCFeS2FeS2Fe2S3HC2H3FeHSH2CHC4H2NCSHCSC7H3C6H4CSH2CHCHNC7H4C2H2CH2CH2C2NCHCHC2H3C2NFe3HNH2CH2CSHCH3CHCFeHCSHC3HC4H3SC2H2CSH2CHCH3CHCHCH3NH2SHCHC4H2CNH2C3FeC6HCSH3C3HC3FeCHSH3NHSH2FeCHCSHNHCHC3H3CHCHC3SHCHCH2CHCHCFeS2FeSFeSFeHSC2SCHC2HNFeSHSCH2CHCSCSC7H5CHC2HC2SCH4CHCH5CNSH2CHCHFe2SHCHSH2CHNCHC2HCH2SFeCHSH2CHC2H2CSHCHSC3FeNCHCHSH4CSCH2C4HCH7C2H3C3H3C3HCSHNC4S2CHC3H2C2HC3H3FeH2CHFeC2SHSH3FeSFeHSFeS3HFeCFeSCFeS2HFeSC2FeSCSC2SHNH2SFeC6FeH3C5HCHCSHCNC2H2CHSCHCS2C6H5C6H4NC2S2CHCHCHC2SNC6FeH7CSHC2HFeCNCH2CHNC6H9NH2C2HSC2HCH2CSC3HC2HCHCFeH2C2H2SH2CSH2C3SCH3SC2H2CFeSHC3HSHCHCFeH2CSCH4CSHC2HCSH3SHFeH2SCH3CSFeH2FeS2FeH4FeSHSNHSHCH2FeS2FeHSFeS2FeS2FeSFeS3C6H6C3H3C4H2CHNCH2CHFeC6H4C3SH2FeCHC2HC2SC3SH2FeNC7FeH4C4HSNHSHC4FeCH3CH2SNH3S2CFeCH2C2SC3H2NCSCH3CH4FeHCHCSC4NCHCH2SCH2SC6SCFeHCSH2C2H5C3FeHCH3CHNCHCSHCSC2H2C2HNSCHCH2CHCHCFeH3SHNHCHCHCHC3H2CHC2HSHC2H4CSNC2HCFeC2HSCH3CFeSFeC2HFeNSCSHSFe2S2FeS2FeSFeS3FeSCFeS2FeSFeS3FeSFe2S2FeSFeS3FeS2FeSCFeSFeS3FeSCFeS2FeSFeS3C3H2C6H4C6H4C6HSHC6H4C6H4C6H4C6HCH2C6H4C6H5C5H3CHCHCH2CH2SHC3H2S2H5C5HSH2C2H2CH2CHCHC3H2C2HCH2N2C6H8CH5C2HCH2CH3CHCSNHC2HC2H3C3H3CHNHC2HCH2C2HCNC6H8NC6H6FeH4C2HSHC2HC2H2NC6H7NC6H8S2H3NHC2SHCSHNCH3FeNCH2C2HCHSH2CSHSCHFeCSH2C2HNHC2NH3CNCH4C2HC2HCH2SCHSFeHCHCHCNC2SFeS3FeSFeS2FeSHFe2S2FeHCSH2SCNH3C2NFeSC3S2FeS2FeSFeHSHCSCH3CNCHNSFeC7H8FeCH3CHC2HC3NC2H5CHC6H2CHC6H6CHSN2C8HC2H2SHC3H2C2HCSH2C3HC6HC2H2CHSHC4SCH2CH2FeSH4C2HCSHCH5SCH2CSC2HC2H2C2SCHSH2C2HSCH3C3HFeC2H3CH2CSFeCSH4C5H5FeH2C3HSHC3HC4HCNC3H5CHCHFeSCSH3C3H2FeSHSHSCH2Fe2SH5CSFeSFeS2FeSCFeSFeS3FeS2FeS2FeSFeS3FeS2FeS2FeSFeS3FeS2FeSCFeSFeS3H2CH2FeS2FeS2FeSFeS3C4H2C6H4CH2C4H3C6H4C6H2SHC6H6CHC4H2C6H4C5H3C6H6C2HC2HS2C6H4CH2C2NH4C5HCH2CH2NCHC2HFeH2NC6H8CH2CHFeHC3SFeC3HC2H2NC6H8NC6H5NH3CH3CH5CHC2H4CHNC2H4CNC6H9CHC2NC3HCHNH3CH2CHC2HNSHCNHCH2C2HC2N2SHNCSCHSC4HSC2HFeHS2H2C2HCHC2SC2SCH2C3H3C2HSFeHSH3SCH2C2HC2HFeHCHC2HCFeSH2C2HFeHSFeNSH2NHS2H2SFeS2FeSCHSHC2FeSCFeS2FeS2FeHFeS3NHCHSC4SC6HCHC6H4C6H5CSC2H3CH4C6H5NC3HFeC5FeCHC2HNCFeC2H3C2NC3H5CSH3C2FeCH2C3SHSFeHCSH7NH2NCH4SH9CHSCHSCHCHC2FeHC2HC2FeHSCH3CFeC2HC2HC2HS2CHC2HCFeS2CHC2HC2H2CH3C2HCFeNCSHCNFeH2CH3S3H2C2H2CHCS2NH2C2FeCSCH3NH4FeS2FeSFeH2FeSC3FeC2HCHSC2HNH2C7H4CHCH3C2FeHCHC3H3CS2HCHCH2NHCSC2H3SC2HSCHCSH2NC3H2CH2C3HSHCH2CHNHC2HCHCH2FeSCFeS3FeCS3CSH2FeS2FeS2FeSFeS3FeS2FeHCFeCFeHS2C2H2CHC2HSC6H4C6H4CNC2H3CH3C4HCH2SH2N2CHC2HCHCH2CH3CH2NSCHSHC2HC3H2CHC2HCSH2C2H2CFeH3NC6H8C6H2CHC2HFeCHC3HSH3C3HNHC5HCHCSCHCSCH2FeH3SHCHSCHC4HSCH2SHC2HCHNH3SHC3Fe2H3CFeSC2HCSHSCH5SFeSFeHCH2C2H2S2HCH2SFeCHS2CHCHNC2SCH2CHC3FeHC4HCHCH
_chemical_formula_sum              "H1152 C1152 Fe192 S384 N96"
_cell_length_a       77.1419
_cell_length_b       77.3837
_cell_length_c       78.2941
_cell_angle_alpha    77.8438
_cell_angle_beta     77.7041
_cell_angle_gamma    77.6454

_space_group_name_H-M_alt    "P 1"
_space_group_IT_number       1

loop_
  _space_group_symop_operation_xyz
  'x, y, z'

loop_
  _atom_site_type_symbol
  _atom_site_label
  _atom_site_symmetry_multiplicity
  _atom_site_fract_x
  _atom_site_fract_y
  _atom_site_fract_z
  _atom_site_occupancy
  H   H1        1.0  0.37005  0.10062  0.04589  1.0000
  H   H2        1.0  0.02481  0.14987  0.25266  1.0000
  C   C1        1.0  0.25465  0.08208  0.01817  1.0000
  H   H3        1.0  0.44113  0.21879  0.01195  1.0000
  C   C2        1.0  0.26978  0.03141  0.11451  1.0000
  Fe  Fe1       1.0  0.21486  0.99831  0.04614  1.0000
  Fe  Fe2       1.0  0.04132  0.16759  0.19062  1.0000
  S   S1        1.0  0.02674  0.16265  0.17072  1.0000
  S   S2        1.0  0.07121  0.16107  0.18976  1.0000
  H   H4        1.0  0.38193  0.13785  0.00527  1.0000
  N   N1        1.0  0.01233  0.15396  0.29591  1.0000
  H   H5        1.0  0.49063  0.17799  0.03816  1.0000
  H   H6        1.0  0.46472  0.12485  0.99202  1.0000
  S   S3        1.0  0.02321  0.19361  0.19536  1.0000
  S   S4        1.0  0.02634  0.15102  0.21355  1.0000
  H   H7        1.0  0.46063  0.12553  0.02744  1.0000
  H   H8        1.0  0.26015  0.03305  0.14220  1.0000
  S   S5        1.0  0.26589  0.10681  0.11087  1.0000
  C   C3        1.0  0.18536  0.05759  0.02372  1.0000
  C   C4        1.0  0.26095  0.02558  0.13174  1.0000
  Fe  Fe3       1.0  0.13833  0.11119  0.12427  1.0000
  S   S6        1.0  0.14144  0.09481  0.15101  1.0000
  S   S7        1.0  0.11701  0.13567  0.11964  1.0000
  Fe  Fe4       1.0  0.16981  0.08733  0.10537  1.0000
  S   S8        1.0  0.17547  0.06874  0.13041  1.0000
  S   S9        1.0  0.18843  0.08352  0.07986  1.0000
  Fe  Fe5       1.0  0.14544  0.07112  0.13749  1.0000
  S   S10       1.0  0.12913  0.04964  0.15048  1.0000
  Fe  Fe6       1.0  0.17099  0.09412  0.14129  1.0000
  S   S11       1.0  0.18940  0.09918  0.15745  1.0000
  S   S12       1.0  0.14005  0.08755  0.11128  1.0000
  S   S13       1.0  0.16762  0.11259  0.11570  1.0000
  H   H9        1.0  0.00850  0.13242  0.31763  1.0000
  S   S14       1.0  0.24370  0.00189  0.04132  1.0000
  C   C5        1.0  0.08052  0.09202  0.18151  1.0000
  Fe  Fe7       1.0  0.41040  0.18131  0.02522  1.0000
  S   S15       1.0  0.43502  0.16147  0.03140  1.0000
  S   S16       1.0  0.41279  0.20481  0.00308  1.0000
  Fe  Fe8       1.0  0.38495  0.16105  0.05332  1.0000
  S   S17       1.0  0.40732  0.13944  0.06191  1.0000
  S   S18       1.0  0.35582  0.15955  0.06407  1.0000
  Fe  Fe9       1.0  0.42198  0.16214  0.05968  1.0000
  Fe  Fe10      1.0  0.41810  0.14089  0.03285  1.0000
  S   S19       1.0  0.42964  0.11581  0.02130  1.0000
  S   S20       1.0  0.39860  0.18386  0.05356  1.0000
  S   S21       1.0  0.39440  0.16069  0.02440  1.0000
  H   H10       1.0  0.05409  0.99310  0.36261  1.0000
  C   C6        1.0  0.42640  0.11838  0.99939  1.0000
  C   C7        1.0  0.25580  0.06867  0.99250  1.0000
  H   H11       1.0  0.41579  0.14663  0.99695  1.0000
  H   H12       1.0  0.43713  0.09066  0.99731  1.0000
  H   H13       1.0  0.00523  0.17001  0.13997  1.0000
  Fe  Fe11      1.0  0.00696  0.18725  0.17749  1.0000
  H   H14       1.0  0.35550  0.16104  0.01318  1.0000
  S   S22       1.0  0.25107  0.03444  0.99405  1.0000
  H   H15       1.0  0.00669  0.16240  0.32122  1.0000
  H   H16       1.0  0.20339  0.01167  0.12150  1.0000
  C   C8        1.0  0.48552  0.17176  0.05144  1.0000
  H   H17       1.0  0.43164  0.17007  0.99536  1.0000
  C   C9        1.0  0.16784  0.00478  0.15088  1.0000
  C   C10       1.0  0.15931  0.02288  0.14954  1.0000
  C   C11       1.0  0.44890  0.22544  0.00010  1.0000
  C   C12       1.0  0.47491  0.12594  0.02358  1.0000
  H   H18       1.0  0.23396  0.06367  0.11207  1.0000
  H   H19       1.0  0.32464  0.15381  0.01880  1.0000
  N   N2        1.0  0.01080  0.03313  0.34173  1.0000
  C   C13       1.0  0.20467  0.03661  0.06172  1.0000
  S   S23       1.0  0.28362  0.10868  0.06030  1.0000
  H   H20       1.0  0.02482  0.11770  0.26597  1.0000
  C   C14       1.0  0.47214  0.15604  0.08601  1.0000
  S   S24       1.0  0.00427  0.12093  0.19577  1.0000
  C   C15       1.0  0.20539  0.10100  0.03329  1.0000
  C   C16       1.0  0.34146  0.10896  0.05384  1.0000
  C   C17       1.0  0.35948  0.11118  0.05043  1.0000
  C   C18       1.0  0.36392  0.12701  0.05293  1.0000
  C   C19       1.0  0.35035  0.14057  0.05906  1.0000
  C   C20       1.0  0.33232  0.13849  0.06218  1.0000
  C   C21       1.0  0.32789  0.12267  0.05964  1.0000
  H   H21       1.0  0.37789  0.12852  0.05042  1.0000
  H   H22       1.0  0.32177  0.14899  0.06684  1.0000
  H   H23       1.0  0.31399  0.12111  0.06231  1.0000
  C   C22       1.0  0.24448  0.10469  0.12342  1.0000
  C   C23       1.0  0.23127  0.10022  0.11619  1.0000
  C   C24       1.0  0.21430  0.09848  0.12660  1.0000
  C   C25       1.0  0.21055  0.10118  0.14425  1.0000
  C   C26       1.0  0.22371  0.10581  0.15140  1.0000
  C   C27       1.0  0.24060  0.10766  0.14097  1.0000
  H   H24       1.0  0.23404  0.09833  0.10253  1.0000
  H   H25       1.0  0.20422  0.09489  0.12095  1.0000
  H   H26       1.0  0.22087  0.10792  0.16502  1.0000
  H   H27       1.0  0.25077  0.11118  0.14659  1.0000
  C   C28       1.0  0.22716  0.05231  0.11425  1.0000
  S   S25       1.0  0.21021  0.01103  0.01866  1.0000
  H   H28       1.0  0.31002  0.15267  0.10999  1.0000
  H   H29       1.0  0.01513  0.06599  0.30578  1.0000
  C   C29       1.0  0.47103  0.19763  0.99927  1.0000
  H   H30       1.0  0.30952  0.99781  0.09179  1.0000
  C   C30       1.0  0.47508  0.11373  0.99713  1.0000
  H   H31       1.0  0.21408  0.10739  0.02145  1.0000
  N   N3        1.0  0.34355  0.11809  0.10052  1.0000
  C   C31       1.0  0.25298  0.05240  0.00357  1.0000
  C   C32       1.0  0.08386  0.15454  0.17007  1.0000
  C   C33       1.0  0.10062  0.14329  0.17054  1.0000
  C   C34       1.0  0.11082  0.13749  0.15507  1.0000
  C   C35       1.0  0.10445  0.14312  0.13902  1.0000
  C   C36       1.0  0.08784  0.15468  0.13846  1.0000
  C   C37       1.0  0.07743  0.16025  0.15403  1.0000
  H   H32       1.0  0.10564  0.13895  0.18293  1.0000
  H   H33       1.0  0.12372  0.12889  0.15556  1.0000
  H   H34       1.0  0.08294  0.15923  0.12601  1.0000
  H   H35       1.0  0.06464  0.16923  0.15356  1.0000
  C   C38       1.0  0.21019  0.03146  0.13355  1.0000
  C   C39       1.0  0.01230  0.13630  0.30340  1.0000
  H   H36       1.0  0.07939  0.08591  0.19541  1.0000
  H   H37       1.0  0.47901  0.19722  0.00963  1.0000
  C   C40       1.0  0.17486  0.06860  0.03548  1.0000
  H   H38       1.0  0.21486  0.03127  0.05145  1.0000
  H   H39       1.0  0.18464  0.15820  0.09243  1.0000
  C   C41       1.0  0.25223  0.06571  0.02926  1.0000
  H   H40       1.0  0.18077  0.04583  0.02204  1.0000
  H   H41       1.0  0.37893  0.09043  0.00630  1.0000
  C   C42       1.0  0.01688  0.15881  0.27794  1.0000
  C   C43       1.0  0.26278  0.00650  0.10462  1.0000
  N   N4        1.0  0.46456  0.21634  0.99181  1.0000
  C   C44       1.0  0.13029  0.01371  0.15438  1.0000
  H   H42       1.0  0.47574  0.13707  0.04644  1.0000
  C   C45       1.0  0.00036  0.09857  0.25479  1.0000
  H   H43       1.0  0.48438  0.10884  0.98549  1.0000
  C   C46       1.0  0.07121  0.11570  0.15883  1.0000
  C   C47       1.0  0.17973  0.03285  0.08610  1.0000
  H   H44       1.0  0.21328  0.06220  0.05614  1.0000
  H   H45       1.0  0.38803  0.10677  0.98834  1.0000
  H   H46       1.0  0.18232  0.00130  0.14976  1.0000
  C   C48       1.0  0.34933  0.11390  0.00935  1.0000
  C   C49       1.0  0.15674  0.14110  0.16086  1.0000
  N   N5        1.0  0.21904  0.04560  0.13093  1.0000
  Fe  Fe12      1.0  0.23980  0.01184  0.01308  1.0000
  Fe  Fe13      1.0  0.27389  0.09317  0.08699  1.0000
  Fe  Fe14      1.0  0.00693  0.17646  0.21669  1.0000
  H   H47       1.0  0.29816  0.99481  0.06580  1.0000
  N   N6        1.0  0.16440  0.14675  0.14219  1.0000
  H   H48       1.0  0.22328  0.04276  0.15739  1.0000
  H   H49       1.0  0.06217  0.12553  0.19482  1.0000
  C   C50       1.0  0.14049  0.02733  0.15135  1.0000
  H   H50       1.0  0.25089  0.06450  0.04348  1.0000
  H   H51       1.0  0.15532  0.12676  0.16310  1.0000
  C   C51       1.0  0.02038  0.02308  0.35604  1.0000
  S   S26       1.0  0.29453  0.06990  0.04637  1.0000
  H   H52       1.0  0.08582  0.11425  0.13217  1.0000
  C   C52       1.0  0.00185  0.11201  0.21845  1.0000
  H   H53       1.0  0.22099  0.07918  0.01023  1.0000
  H   H54       1.0  0.10545  0.08522  0.14133  1.0000
  H   H55       1.0  0.45953  0.19048  0.00529  1.0000
  C   C53       1.0  0.19276  0.02592  0.07271  1.0000
  H   H56       1.0  0.01563  0.02956  0.36801  1.0000
  C   C54       1.0  0.46701  0.17107  0.05664  1.0000
  Fe  Fe15      1.0  0.01012  0.14829  0.19420  1.0000
  H   H57       1.0  0.23453  0.04899  0.08674  1.0000
  C   C55       1.0  0.02160  0.14584  0.26693  1.0000
  S   S27       1.0  0.00038  0.09013  0.27734  1.0000
  H   H58       1.0  0.17057  0.02456  0.09468  1.0000
  C   C56       1.0  0.25115  0.05095  0.02197  1.0000
  C   C57       1.0  0.20200  0.06153  0.01444  1.0000
  C   C58       1.0  0.20371  0.05416  0.06431  1.0000
  H   H59       1.0  0.47948  0.19022  0.98879  1.0000
  C   C59       1.0  0.33347  0.10538  0.10095  1.0000
  C   C60       1.0  0.31649  0.13927  0.10769  1.0000
  C   C61       1.0  0.31463  0.10939  0.10464  1.0000
  C   C62       1.0  0.30612  0.12646  0.10796  1.0000
  H   H60       1.0  0.33994  0.09219  0.09798  1.0000
  H   H61       1.0  0.30660  0.09943  0.10470  1.0000
  H   H62       1.0  0.29149  0.12974  0.11058  1.0000
  S   S28       1.0  0.25791  0.07781  0.07668  1.0000
  C   C63       1.0  0.19040  0.06123  0.07743  1.0000
  C   C64       1.0  0.01838  0.04583  0.32914  1.0000
  H   H63       1.0  0.39261  0.10446  0.01051  1.0000
  H   H64       1.0  0.36798  0.10369  0.08778  1.0000
  C   C65       1.0  0.17897  0.15526  0.10643  1.0000
  S   S29       1.0  0.28236  0.02824  0.07965  1.0000
  H   H65       1.0  0.16720  0.03333  0.14745  1.0000
  H   H66       1.0  0.24900  0.03848  0.03062  1.0000
  C   C66       1.0  0.48339  0.13254  0.03436  1.0000
  H   H67       1.0  0.04416  0.12442  0.18387  1.0000
  C   C67       1.0  0.05599  0.11643  0.18962  1.0000
  H   H68       1.0  0.46820  0.10255  0.00489  1.0000
  H   H69       1.0  0.26334  0.99915  0.09413  1.0000
  H   H70       1.0  0.20362  0.02626  0.14675  1.0000
  C   C68       1.0  0.21970  0.05352  0.14618  1.0000
  H   H71       1.0  0.10239  0.07118  0.17311  1.0000
  C   C69       1.0  0.21933  0.02912  0.10260  1.0000
  H   H72       1.0  0.27595  0.04324  0.11174  1.0000
  C   C70       1.0  0.20799  0.07636  0.01726  1.0000
  H   H73       1.0  0.13870  0.15637  0.13428  1.0000
  H   H74       1.0  0.14331  0.14936  0.16470  1.0000
  H   H75       1.0  0.16566  0.14243  0.16977  1.0000
  N   N7        1.0  0.36627  0.11787  0.00668  1.0000
  H   H76       1.0  0.01609  0.08562  0.21447  1.0000
  H   H77       1.0  0.25833  0.09618  0.99120  1.0000
  S   S30       1.0  0.43750  0.16148  0.08099  1.0000
  H   H78       1.0  0.05068  0.10642  0.20084  1.0000
  C   C71       1.0  0.33410  0.12682  0.01354  1.0000
  H   H79       1.0  0.15132  0.16405  0.10256  1.0000
  C   C72       1.0  0.33532  0.13479  0.10405  1.0000
  C   C73       1.0  0.41871  0.13502  0.99069  1.0000
  C   C74       1.0  0.15322  0.15416  0.13011  1.0000
  C   C75       1.0  0.22757  0.04407  0.09986  1.0000
  H   H80       1.0  0.36843  0.10800  0.10955  1.0000
  H   H81       1.0  0.11576  0.01709  0.15581  1.0000
  C   C76       1.0  0.08416  0.10772  0.14598  1.0000
  N   N8        1.0  0.06935  0.10769  0.17629  1.0000
  H   H82       1.0  0.03165  0.04822  0.32943  1.0000
  H   H83       1.0  0.36933  0.12570  0.09033  1.0000
  C   C77       1.0  0.18132  0.08332  0.03797  1.0000
  C   C78       1.0  0.16032  0.15860  0.11209  1.0000
  C   C79       1.0  0.36851  0.13472  0.00750  1.0000
  Fe  Fe16      1.0  0.28348  0.05762  0.07397  1.0000
  C   C80       1.0  0.25419  0.00058  0.12183  1.0000
  C   C81       1.0  0.21016  0.02304  0.11942  1.0000
  C   C82       1.0  0.18269  0.14344  0.13676  1.0000
  C   C83       1.0  0.33630  0.14388  0.01493  1.0000
  C   C84       1.0  0.09531  0.09155  0.15113  1.0000
  C   C85       1.0  0.09357  0.08366  0.16901  1.0000
  H   H84       1.0  0.19153  0.13716  0.14627  1.0000
  C   C86       1.0  0.19026  0.14759  0.11882  1.0000
  S   S31       1.0  0.19479  0.00363  0.07044  1.0000
  H   H85       1.0  0.34748  0.10047  0.00902  1.0000
  H   H86       1.0  0.01655  0.17284  0.27195  1.0000
  H   H87       1.0  0.29322  0.99830  0.98931  1.0000
  C   C87       1.0  0.00938  0.09415  0.22411  1.0000
  C   C88       1.0  0.02155  0.12784  0.27441  1.0000
  C   C89       1.0  0.36329  0.11360  0.09695  1.0000
  H   H88       1.0  0.20476  0.14442  0.11457  1.0000
  C   C90       1.0  0.13881  0.99573  0.15534  1.0000
  C   C91       1.0  0.25638  0.08356  0.99980  1.0000
  C   C92       1.0  0.35360  0.14792  0.01180  1.0000
  Fe  Fe17      1.0  0.30719  0.08600  0.05938  1.0000
  C   C93       1.0  0.01693  0.12298  0.29277  1.0000
  H   H89       1.0  0.34330  0.14496  0.10345  1.0000
  S   S32       1.0  0.33625  0.08920  0.05020  1.0000
  H   H90       1.0  0.45788  0.17694  0.04742  1.0000
  H   H91       1.0  0.01793  0.00905  0.35956  1.0000
  H   H92       1.0  0.20641  0.06170  0.15054  1.0000
  N   N9        1.0  0.48448  0.12003  0.00843  1.0000
  H   H93       1.0  0.17345  0.09133  0.04773  1.0000
  S   S33       1.0  0.25496  0.10086  0.02722  1.0000
  H   H94       1.0  0.19465  0.11166  0.03841  1.0000
  H   H95       1.0  0.32075  0.12332  0.01642  1.0000
  Fe  Fe18      1.0  0.27003  0.09122  0.04988  1.0000
  C   C94       1.0  0.43111  0.10358  0.99067  1.0000
  H   H96       1.0  0.22015  0.02220  0.09171  1.0000
  C   C95       1.0  0.27070  0.02182  0.10098  1.0000
  S   S34       1.0  0.29849  0.07156  0.08684  1.0000
  H   H97       1.0  0.16215  0.06537  0.04316  1.0000
  N   N10       1.0  0.19780  0.08690  0.02904  1.0000
  H   H98       1.0  0.06281  0.12845  0.15476  1.0000
  C   C96       1.0  0.46036  0.16307  0.07394  1.0000
  H   H99       1.0  0.16816  0.05595  0.09853  1.0000
  C   C97       1.0  0.38221  0.10419  0.00271  1.0000
  C   C98       1.0  0.49055  0.15659  0.08079  1.0000
  C   C99       1.0  0.17846  0.05057  0.08837  1.0000
  H   H100      1.0  0.23009  0.06223  0.14298  1.0000
  H   H101      1.0  0.21386  0.09505  0.04367  1.0000
  H   H102      1.0  0.46704  0.14996  0.09940  1.0000
  C   C100      1.0  0.25299  0.01025  0.13535  1.0000
  H   H103      1.0  0.21047  0.05295  0.00542  1.0000
  C   C101      1.0  0.42818  0.19831  0.98464  1.0000
  H   H104      1.0  0.01556  0.17813  0.30283  1.0000
  C   C102      1.0  0.49729  0.16438  0.06353  1.0000
  C   C103      1.0  0.00910  0.05595  0.31577  1.0000
  C   C104      1.0  0.00655  0.16801  0.30694  1.0000
  S   S35       1.0  0.24077  0.00382  0.15651  1.0000
  H   H105      1.0  0.03519  0.02231  0.35204  1.0000
  C   C105      1.0  0.00890  0.08752  0.24228  1.0000
  H   H106      1.0  0.01515  0.07383  0.24664  1.0000
  C   C106      1.0  0.43598  0.18025  0.98456  1.0000
  H   H107      1.0  0.01659  0.10903  0.29866  1.0000
  H   H108      1.0  0.14913  0.99772  0.20908  1.0000
  C   C107      1.0  0.15754  0.99124  0.15365  1.0000
  H   H109      1.0  0.30417  0.99205  0.12462  1.0000
  C   C108      1.0  0.44806  0.08035  0.84226  1.0000
  H   H110      1.0  0.42785  0.15847  0.93858  1.0000
  C   C109      1.0  0.42340  0.20003  0.91320  1.0000
  Fe  Fe19      1.0  0.46170  0.08255  0.90795  1.0000
  S   S36       1.0  0.44224  0.10746  0.90029  1.0000
  S   S37       1.0  0.45975  0.05675  0.89867  1.0000
  Fe  Fe20      1.0  0.48186  0.10359  0.92605  1.0000
  S   S38       1.0  0.46351  0.12952  0.91886  1.0000
  Fe  Fe21      1.0  0.44161  0.11296  0.92731  1.0000
  S   S39       1.0  0.41580  0.12454  0.94329  1.0000
  Fe  Fe22      1.0  0.46621  0.12113  0.89258  1.0000
  H   H111      1.0  0.42342  0.19058  0.94125  1.0000
  S   S40       1.0  0.45956  0.08710  0.93608  1.0000
  C   C110      1.0  0.46914  0.17167  0.84705  1.0000
  C   C111      1.0  0.37877  0.01484  0.89741  1.0000
  S   S41       1.0  0.40214  0.01230  0.81902  1.0000
  C   C112      1.0  0.42766  0.16421  0.91046  1.0000
  H   H112      1.0  0.42736  0.22536  0.97020  1.0000
  C   C113      1.0  0.47000  0.18602  0.87668  1.0000
  C   C114      1.0  0.44716  0.20653  0.95634  1.0000
  H   H113      1.0  0.46993  0.19152  0.88827  1.0000
  N   N11       1.0  0.45183  0.09324  0.84980  1.0000
  Fe  Fe23      1.0  0.39987  0.01772  0.84691  1.0000
  S   S42       1.0  0.40240  0.04340  0.85610  1.0000
  H   H114      1.0  0.44578  0.12126  0.85090  1.0000
  S   S43       1.0  0.48699  0.22957  0.92710  1.0000
  C   C115      1.0  0.42705  0.17768  0.89546  1.0000
  H   H115      1.0  0.37812  0.02480  0.88495  1.0000
  H   H116      1.0  0.43316  0.21936  0.88128  1.0000
  C   C116      1.0  0.46944  0.16044  0.86356  1.0000
  H   H117      1.0  0.36878  0.99338  0.76314  1.0000
  C   C117      1.0  0.47447  0.22481  0.97702  1.0000
  S   S44       1.0  0.47239  0.18242  0.93915  1.0000
  C   C118      1.0  0.28274  0.00122  0.95849  1.0000
  S   S45       1.0  0.46902  0.13756  0.86524  1.0000
  C   C119      1.0  0.43883  0.10994  0.85129  1.0000
  C   C120      1.0  0.44373  0.05345  0.88667  1.0000
  C   C121      1.0  0.44651  0.03736  0.87994  1.0000
  C   C122      1.0  0.43406  0.03402  0.87063  1.0000
  C   C123      1.0  0.41861  0.04679  0.86782  1.0000
  C   C124      1.0  0.41587  0.06292  0.87447  1.0000
  C   C125      1.0  0.42827  0.06621  0.88386  1.0000
  H   H118      1.0  0.45838  0.02735  0.88198  1.0000
  H   H119      1.0  0.43647  0.02156  0.86560  1.0000
  H   H120      1.0  0.40398  0.07291  0.87244  1.0000
  H   H121      1.0  0.42577  0.07858  0.88905  1.0000
  H   H122      1.0  0.32788  0.00822  0.79385  1.0000
  C   C126      1.0  0.42789  0.10545  0.97336  1.0000
  H   H123      1.0  0.42137  0.21403  0.91449  1.0000
  C   C127      1.0  0.47923  0.07392  0.85657  1.0000
  C   C128      1.0  0.44948  0.17533  0.97049  1.0000
  H   H124      1.0  0.45665  0.05364  0.83591  1.0000
  C   C129      1.0  0.46711  0.09015  0.85703  1.0000
  C   C130      1.0  0.42478  0.20936  0.88111  1.0000
  S   S46       1.0  0.48619  0.09606  0.89872  1.0000
  C   C131      1.0  0.46982  0.16764  0.87840  1.0000
  H   H125      1.0  0.42836  0.17388  0.88261  1.0000
  H   H126      1.0  0.43052  0.20379  0.86870  1.0000
  H   H127      1.0  0.49100  0.07132  0.86285  1.0000
  H   H128      1.0  0.43141  0.09396  0.96669  1.0000
  C   C132      1.0  0.45993  0.06400  0.84148  1.0000
  H   H129      1.0  0.43557  0.08243  0.83722  1.0000
  C   C133      1.0  0.42437  0.18687  0.92842  1.0000
  H   H130      1.0  0.44008  0.01295  0.91941  1.0000
  H   H131      1.0  0.48460  0.04792  0.84881  1.0000
  H   H132      1.0  0.45552  0.16135  0.97050  1.0000
  H   H133      1.0  0.49331  0.13914  0.95269  1.0000
  H   H134      1.0  0.38824  0.04097  0.90853  1.0000
  C   C134      1.0  0.43350  0.21139  0.97031  1.0000
  N   N12       1.0  0.42531  0.19531  0.89692  1.0000
  S   S47       1.0  0.45606  0.22516  0.90642  1.0000
  H   H135      1.0  0.37761  0.00162  0.89474  1.0000
  H   H136      1.0  0.45148  0.21679  0.94556  1.0000
  C   C135      1.0  0.42674  0.16884  0.92695  1.0000
  H   H137      1.0  0.42902  0.15024  0.90932  1.0000
  C   C136      1.0  0.45524  0.18851  0.95649  1.0000
  H   H138      1.0  0.41070  0.21629  0.88054  1.0000
  Fe  Fe24      1.0  0.47778  0.20716  0.91979  1.0000
  Fe  Fe25      1.0  0.47738  0.22545  0.88214  1.0000
  S   S48       1.0  0.37432  0.00591  0.85600  1.0000
  H   H139      1.0  0.40866  0.14966  0.96717  1.0000
  C   C137      1.0  0.46996  0.19721  0.86009  1.0000
  H   H140      1.0  0.46883  0.16617  0.83552  1.0000
  S   S49       1.0  0.47024  0.22020  0.85776  1.0000
  H   H141      1.0  0.46989  0.15914  0.89120  1.0000
  H   H142      1.0  0.43117  0.11380  0.84015  1.0000
  C   C138      1.0  0.46932  0.19003  0.84533  1.0000
  H   H143      1.0  0.29602  0.00378  0.95064  1.0000
  N   N13       1.0  0.39562  0.01408  0.90356  1.0000
  C   C139      1.0  0.47559  0.06078  0.84874  1.0000
  H   H144      1.0  0.27431  0.99990  0.94911  1.0000
  C   C140      1.0  0.41963  0.12202  0.96493  1.0000
  C   C141      1.0  0.41488  0.13677  0.97368  1.0000
  H   H145      1.0  0.36699  0.01879  0.90762  1.0000
  C   C142      1.0  0.41418  0.02848  0.91515  1.0000
  H   H146      1.0  0.46986  0.10015  0.86346  1.0000
  H   H147      1.0  0.41645  0.04029  0.91920  1.0000
  S   S50       1.0  0.41798  0.99217  0.85571  1.0000
  Fe  Fe26      1.0  0.37864  0.99742  0.82921  1.0000
  C   C143      1.0  0.39829  0.02879  0.90909  1.0000
  H   H148      1.0  0.46920  0.19864  0.83250  1.0000
  S   S51       1.0  0.35570  0.99874  0.81415  1.0000
  H   H149      1.0  0.42924  0.10820  0.86405  1.0000
  H   H150      1.0  0.38586  0.00237  0.78243  1.0000
  C   C144      1.0  0.42749  0.01312  0.91523  1.0000
  H   H151      1.0  0.48715  0.21778  0.97071  1.0000
  C   C145      1.0  0.40866  0.99898  0.90347  1.0000
  C   C146      1.0  0.33329  0.99418  0.79340  1.0000
  H   H152      1.0  0.27578  0.01297  0.96495  1.0000
  H   H153      1.0  0.31498  0.99225  0.77693  1.0000
  C   C147      1.0  0.42478  0.99828  0.90928  1.0000
  S   S52       1.0  0.49855  0.20574  0.89517  1.0000
  H   H154      1.0  0.25722  0.06986  0.97827  1.0000
  C   C148      1.0  0.44224  0.24318  0.99303  1.0000
  H   H155      1.0  0.42943  0.25005  0.99926  1.0000
  S   S53       1.0  0.48665  0.25003  0.88544  1.0000
  C   C149      1.0  0.48005  0.37135  0.95515  1.0000
  C   C150      1.0  0.47603  0.35795  0.94785  1.0000
  C   C151      1.0  0.47683  0.39197  0.92778  1.0000
  Fe  Fe27      1.0  0.46727  0.24770  0.91126  1.0000
  N   N14       1.0  0.47262  0.36149  0.93089  1.0000
  C   C152      1.0  0.48048  0.38845  0.94500  1.0000
  H   H156      1.0  0.48208  0.33732  0.92063  1.0000
  C   C153      1.0  0.46932  0.34695  0.92332  1.0000
  H   H157      1.0  0.46196  0.30818  0.96077  1.0000
  S   S54       1.0  0.49013  0.48075  0.86333  1.0000
  H   H158      1.0  0.48316  0.36836  0.96845  1.0000
  H   H159      1.0  0.46408  0.35203  0.91069  1.0000
  H   H160      1.0  0.47095  0.38094  0.90718  1.0000
  H   H161      1.0  0.44220  0.29342  0.94942  1.0000
  C   C154      1.0  0.49252  0.29129  0.92745  1.0000
  S   S55       1.0  0.44995  0.27079  0.92314  1.0000
  C   C155      1.0  0.47309  0.37821  0.92082  1.0000
  H   H162      1.0  0.45931  0.33957  0.93275  1.0000
  H   H163      1.0  0.48731  0.27400  0.91152  1.0000
  C   C156      1.0  0.46742  0.30104  0.94977  1.0000
  C   C157      1.0  0.45629  0.29266  0.94342  1.0000
  C   C158      1.0  0.46351  0.28270  0.92977  1.0000
  C   C159      1.0  0.48167  0.28189  0.92188  1.0000
  H   H164      1.0  0.47609  0.34457  0.95567  1.0000
  C   C160      1.0  0.48552  0.30038  0.94174  1.0000
  H   H165      1.0  0.47742  0.40515  0.91965  1.0000
  H   H166      1.0  0.44692  0.26543  0.97191  1.0000
  H   H167      1.0  0.49711  0.41568  0.86734  1.0000
  H   H168      1.0  0.48389  0.39891  0.95033  1.0000
  H   H169      1.0  0.47618  0.24936  0.95797  1.0000
  H   H170      1.0  0.49707  0.31617  0.85542  1.0000
  H   H171      1.0  0.49209  0.29210  0.88161  1.0000
  C   C161      1.0  0.45202  0.25177  0.97768  1.0000
  C   C162      1.0  0.46836  0.24266  0.96974  1.0000
  H   H172      1.0  0.02178  0.62133  0.42866  1.0000
  H   H173      1.0  0.03153  0.70108  0.41826  1.0000
  H   H174      1.0  0.04369  0.68012  0.42880  1.0000
  C   C163      1.0  0.01908  0.62670  0.44085  1.0000
  C   C164      1.0  0.02847  0.64294  0.46020  1.0000
  C   C165      1.0  0.03130  0.63635  0.44418  1.0000
  H   H175      1.0  0.04817  0.60031  0.45965  1.0000
  H   H176      1.0  0.02303  0.67544  0.32322  1.0000
  H   H177      1.0  0.04320  0.63847  0.43436  1.0000
  C   C166      1.0  0.03289  0.69189  0.43106  1.0000
  C   C167      1.0  0.00393  0.62326  0.45363  1.0000
  C   C168      1.0  0.02871  0.73800  0.44118  1.0000
  H   H178      1.0  0.03723  0.69921  0.43975  1.0000
  C   C169      1.0  0.00517  0.67130  0.36717  1.0000
  S   S56       1.0  0.04508  0.65387  0.46419  1.0000
  H   H179      1.0  0.02240  0.64272  0.32978  1.0000
  N   N15       1.0  0.01579  0.68580  0.43916  1.0000
  C   C170      1.0  0.01302  0.64000  0.47274  1.0000
  C   C171      1.0  0.01774  0.65063  0.34027  1.0000
  C   C172      1.0  0.00512  0.65280  0.37090  1.0000
  C   C173      1.0  0.01808  0.66913  0.33656  1.0000
  S   S57       1.0  0.00940  0.70300  0.34451  1.0000
  S   S58       1.0  0.00797  0.61997  0.36114  1.0000
  C   C174      1.0  0.01076  0.64252  0.35737  1.0000
  H   H180      1.0  0.03480  0.73459  0.46742  1.0000
  C   C175      1.0  0.02451  0.73517  0.45974  1.0000
  C   C176      1.0  0.00090  0.63020  0.46948  1.0000
  C   C177      1.0  0.00703  0.73318  0.46834  1.0000
  H   H181      1.0  0.02289  0.58490  0.47028  1.0000
  H   H182      1.0  0.01573  0.67336  0.41733  1.0000
  C   C178      1.0  0.00716  0.68926  0.45559  1.0000
  C   C179      1.0  0.01135  0.67956  0.34992  1.0000
  H   H183      1.0  0.01280  0.69665  0.46273  1.0000
  C   C180      1.0  0.04999  0.59989  0.47346  1.0000
  C   C181      1.0  0.00875  0.67630  0.43025  1.0000
  C   C182      1.0  0.01553  0.73836  0.43124  1.0000
  H   H184      1.0  0.04225  0.73954  0.43456  1.0000
  H   H185      1.0  0.05476  0.61251  0.47340  1.0000
  H   H186      1.0  0.00085  0.64653  0.38428  1.0000
  Fe  Fe28      1.0  0.99950  0.73571  0.39609  1.0000
  H   H187      1.0  0.00018  0.67915  0.37759  1.0000
  H   H188      1.0  0.06050  0.58822  0.47711  1.0000
  C   C183      1.0  0.49639  0.68538  0.70470  1.0000
  H   H189      1.0  0.32924  0.69927  0.57602  1.0000
  Fe  Fe29      1.0  0.46694  0.63027  0.79018  1.0000
  C   C184      1.0  0.44583  0.53261  0.82318  1.0000
  C   C185      1.0  0.10940  0.72326  0.54013  1.0000
  S   S59       1.0  0.45542  0.52094  0.87455  1.0000
  H   H190      1.0  0.47579  0.66280  0.60354  1.0000
  S   S60       1.0  0.43139  0.72102  0.62005  1.0000
  H   H191      1.0  0.12302  0.72504  0.53972  1.0000
  H   H192      1.0  0.23524  0.72700  0.57330  1.0000
  H   H193      1.0  0.00434  0.61936  0.56976  1.0000
  Fe  Fe30      1.0  0.43838  0.60764  0.80709  1.0000
  S   S61       1.0  0.42185  0.59456  0.83151  1.0000
  Fe  Fe31      1.0  0.43396  0.63531  0.77388  1.0000
  H   H194      1.0  0.45066  0.50864  0.84270  1.0000
  S   S62       1.0  0.41456  0.65691  0.76039  1.0000
  Fe  Fe32      1.0  0.27617  0.72396  0.56338  1.0000
  S   S63       1.0  0.37431  0.68228  0.67035  1.0000
  S   S64       1.0  0.43175  0.60626  0.78097  1.0000
  S   S65       1.0  0.43757  0.63738  0.80092  1.0000
  H   H195      1.0  0.39819  0.67996  0.73228  1.0000
  Fe  Fe33      1.0  0.02267  0.70384  0.49967  1.0000
  C   C186      1.0  0.48829  0.57361  0.70676  1.0000
  Fe  Fe34      1.0  0.02754  0.66947  0.52591  1.0000
  S   S66       1.0  0.05539  0.66006  0.51164  1.0000
  C   C187      1.0  0.00106  0.59592  0.50995  1.0000
  Fe  Fe35      1.0  0.05943  0.68874  0.50965  1.0000
  S   S67       1.0  0.08508  0.69703  0.51406  1.0000
  S   S68       1.0  0.03226  0.69720  0.52576  1.0000
  H   H196      1.0  0.20249  0.73061  0.57373  1.0000
  Fe  Fe36      1.0  0.41011  0.70714  0.63832  1.0000
  S   S69       1.0  0.40822  0.67906  0.63694  1.0000
  C   C188      1.0  0.47979  0.60095  0.72708  1.0000
  C   C189      1.0  0.45536  0.61809  0.66282  1.0000
  Fe  Fe37      1.0  0.40440  0.67500  0.66656  1.0000
  S   S70       1.0  0.41959  0.64999  0.68074  1.0000
  C   C190      1.0  0.45309  0.70858  0.62117  1.0000
  S   S71       1.0  0.40864  0.70251  0.66772  1.0000
  C   C191      1.0  0.21157  0.71931  0.56888  1.0000
  C   C192      1.0  0.47363  0.68463  0.63594  1.0000
  S   S72       1.0  0.18193  0.70925  0.56203  1.0000
  H   H197      1.0  0.45828  0.66655  0.77722  1.0000
  N   N16       1.0  0.45255  0.54256  0.80748  1.0000
  H   H198      1.0  0.44697  0.67422  0.67525  1.0000
  H   H199      1.0  0.43707  0.70290  0.68716  1.0000
  S   S73       1.0  0.46344  0.63046  0.76252  1.0000
  Fe  Fe38      1.0  0.46167  0.60133  0.77215  1.0000
  C   C193      1.0  0.35635  0.69361  0.60660  1.0000
  C   C194      1.0  0.20483  0.70657  0.56307  1.0000
  C   C195      1.0  0.21663  0.69172  0.55722  1.0000
  C   C196      1.0  0.23516  0.68975  0.55690  1.0000
  C   C197      1.0  0.24199  0.70261  0.56240  1.0000
  C   C198      1.0  0.47938  0.69816  0.79594  1.0000
  Fe  Fe39      1.0  0.37845  0.68896  0.64067  1.0000
  H   H200      1.0  0.21148  0.68179  0.55279  1.0000
  H   H201      1.0  0.24425  0.67828  0.55225  1.0000
  H   H202      1.0  0.39275  0.72058  0.69817  1.0000
  C   C199      1.0  0.38717  0.73302  0.72142  1.0000
  C   C200      1.0  0.08841  0.71034  0.52885  1.0000
  C   C201      1.0  0.10595  0.71323  0.52842  1.0000
  C   C202      1.0  0.48541  0.60494  0.70867  1.0000
  C   C203      1.0  0.44224  0.56000  0.80079  1.0000
  H   H203      1.0  0.44749  0.57088  0.80417  1.0000
  C   C204      1.0  0.07428  0.71800  0.54098  1.0000
  H   H204      1.0  0.11703  0.70747  0.51908  1.0000
  C   C205      1.0  0.44550  0.69124  0.71221  1.0000
  S   S74       1.0  0.14261  0.73680  0.59101  1.0000
  H   H205      1.0  0.06069  0.71604  0.54146  1.0000
  C   C206      1.0  0.47384  0.71870  0.69815  1.0000
  N   N17       1.0  0.03305  0.59860  0.48600  1.0000
  C   C207      1.0  0.45801  0.69401  0.77920  1.0000
  C   C208      1.0  0.38253  0.72786  0.70706  1.0000
  H   H206      1.0  0.43286  0.53751  0.83077  1.0000
  H   H207      1.0  0.47395  0.72040  0.72526  1.0000
  C   C209      1.0  0.45655  0.67702  0.73988  1.0000
  H   H208      1.0  0.37709  0.71596  0.77285  1.0000
  S   S75       1.0  0.47398  0.57763  0.75864  1.0000
  C   C210      1.0  0.31115  0.71803  0.62182  1.0000
  H   H209      1.0  0.45667  0.69092  0.74140  1.0000
  C   C211      1.0  0.46933  0.53680  0.79840  1.0000
  S   S76       1.0  0.45679  0.72845  0.78410  1.0000
  S   S77       1.0  0.43153  0.72737  0.74360  1.0000
  C   C212      1.0  0.41487  0.65417  0.73871  1.0000
  C   C213      1.0  0.42461  0.63864  0.73241  1.0000
  C   C214      1.0  0.42537  0.63700  0.71474  1.0000
  C   C215      1.0  0.41656  0.65097  0.70336  1.0000
  C   C216      1.0  0.40655  0.66633  0.70980  1.0000
  C   C217      1.0  0.40572  0.66794  0.72745  1.0000
  H   H210      1.0  0.43164  0.62793  0.74109  1.0000
  H   H211      1.0  0.43313  0.62510  0.70980  1.0000
  H   H212      1.0  0.46586  0.64865  0.72359  1.0000
  H   H213      1.0  0.29677  0.72254  0.62037  1.0000
  H   H214      1.0  0.47478  0.54492  0.78614  1.0000
  C   C218      1.0  0.44708  0.54211  0.86313  1.0000
  C   C219      1.0  0.42849  0.54833  0.86630  1.0000
  C   C220      1.0  0.42104  0.56460  0.85671  1.0000
  C   C221      1.0  0.43211  0.57479  0.84385  1.0000
  C   C222      1.0  0.45080  0.56876  0.84082  1.0000
  C   C223      1.0  0.45831  0.55238  0.85047  1.0000
  H   H215      1.0  0.41977  0.54045  0.87610  1.0000
  H   H216      1.0  0.40661  0.56923  0.85917  1.0000
  H   H217      1.0  0.45948  0.57672  0.83122  1.0000
  H   H218      1.0  0.47271  0.54771  0.84810  1.0000
  N   N18       1.0  0.46080  0.63001  0.64617  1.0000
  C   C224      1.0  0.23016  0.71733  0.56853  1.0000
  C   C225      1.0  0.45705  0.65961  0.69874  1.0000
  S   S78       1.0  0.29381  0.72313  0.58293  1.0000
  S   S79       1.0  0.26540  0.70016  0.56071  1.0000
  C   C226      1.0  0.45958  0.66060  0.71562  1.0000
  H   H219      1.0  0.44339  0.66485  0.61692  1.0000
  C   C227      1.0  0.34807  0.71642  0.57535  1.0000
  H   H220      1.0  0.46074  0.64692  0.69400  1.0000
  C   C228      1.0  0.44324  0.69086  0.69508  1.0000
  H   H221      1.0  0.44510  0.69134  0.64573  1.0000
  C   C229      1.0  0.45618  0.69457  0.63534  1.0000
  C   C230      1.0  0.48432  0.64044  0.62332  1.0000
  S   S80       1.0  0.35995  0.68016  0.62699  1.0000
  N   N19       1.0  0.38891  0.68989  0.78466  1.0000
  C   C231      1.0  0.38735  0.70815  0.78033  1.0000
  C   C232      1.0  0.40203  0.67999  0.79387  1.0000
  C   C233      1.0  0.39897  0.71701  0.78537  1.0000
  C   C234      1.0  0.41400  0.68839  0.79897  1.0000
  C   C235      1.0  0.41240  0.70704  0.79473  1.0000
  C   C236      1.0  0.37656  0.68108  0.77902  1.0000
  Fe  Fe40      1.0  0.04274  0.66924  0.48697  1.0000
  H   H222      1.0  0.40349  0.66547  0.79703  1.0000
  H   H223      1.0  0.48648  0.61860  0.70237  1.0000
  H   H224      1.0  0.42459  0.68046  0.80599  1.0000
  H   H225      1.0  0.42170  0.71372  0.79849  1.0000
  H   H226      1.0  0.37901  0.68287  0.76429  1.0000
  H   H227      1.0  0.37866  0.66637  0.78408  1.0000
  H   H228      1.0  0.36234  0.68687  0.78388  1.0000
  C   C237      1.0  0.34353  0.69033  0.59802  1.0000
  S   S81       1.0  0.48670  0.64511  0.79516  1.0000
  H   H229      1.0  0.44068  0.61772  0.66536  1.0000
  C   C238      1.0  0.48966  0.59125  0.69851  1.0000
  C   C239      1.0  0.36145  0.71930  0.58350  1.0000
  H   H230      1.0  0.44713  0.69949  0.77187  1.0000
  Fe  Fe41      1.0  0.31150  0.73685  0.55995  1.0000
  C   C240      1.0  0.47851  0.66827  0.79161  1.0000
  N   N20       1.0  0.45401  0.67635  0.72205  1.0000
  C   C241      1.0  0.47868  0.62877  0.63880  1.0000
  H   H231      1.0  0.37569  0.71034  0.60556  1.0000
  H   H232      1.0  0.46273  0.60411  0.66250  1.0000
  C   C242      1.0  0.44908  0.67492  0.68832  1.0000
  H   H233      1.0  0.40095  0.72959  0.72360  1.0000
  N   N21       1.0  0.10857  0.69184  0.57727  1.0000
  C   C243      1.0  0.12057  0.69824  0.58385  1.0000
  C   C244      1.0  0.11442  0.68237  0.56357  1.0000
  C   C245      1.0  0.13893  0.69534  0.57658  1.0000
  C   C246      1.0  0.13268  0.67948  0.55581  1.0000
  C   C247      1.0  0.14499  0.68603  0.56240  1.0000
  C   C248      1.0  0.08949  0.69455  0.58553  1.0000
  H   H234      1.0  0.11594  0.70587  0.59462  1.0000
  H   H235      1.0  0.10492  0.67741  0.55822  1.0000
  H   H236      1.0  0.14844  0.70034  0.58186  1.0000
  H   H237      1.0  0.13721  0.67235  0.54467  1.0000
  H   H238      1.0  0.15921  0.68399  0.55654  1.0000
  H   H239      1.0  0.08732  0.68449  0.59783  1.0000
  H   H240      1.0  0.08508  0.70829  0.58888  1.0000
  H   H241      1.0  0.08075  0.69334  0.57638  1.0000
  H   H242      1.0  0.47588  0.67374  0.64677  1.0000
  N   N22       1.0  0.31455  0.72419  0.63703  1.0000
  H   H243      1.0  0.19443  0.72998  0.52628  1.0000
  H   H244      1.0  0.39760  0.73150  0.78190  1.0000
  C   C249      1.0  0.36478  0.73277  0.70393  1.0000
  C   C250      1.0  0.32766  0.71862  0.66331  1.0000
  H   H245      1.0  0.39959  0.67709  0.70114  1.0000
  S   S82       1.0  0.01501  0.67720  0.50156  1.0000
  C   C251      1.0  0.49184  0.69188  0.68786  1.0000
  C   C252      1.0  0.33927  0.70181  0.58250  1.0000
  H   H246      1.0  0.33661  0.67908  0.60355  1.0000
  C   C253      1.0  0.36551  0.70796  0.59921  1.0000
  H   H247      1.0  0.42769  0.56131  0.80678  1.0000
  H   H248      1.0  0.44087  0.70367  0.71734  1.0000
  C   C254      1.0  0.99959  0.63995  0.54718  1.0000
  S   S83       1.0  0.45717  0.73775  0.69502  1.0000
  C   C255      1.0  0.20323  0.73945  0.52554  1.0000
  C   C256      1.0  0.47154  0.65337  0.61532  1.0000
  C   C257      1.0  0.47905  0.71257  0.71475  1.0000
  H   H249      1.0  0.01057  0.64490  0.48515  1.0000
  C   C258      1.0  0.47970  0.52047  0.80484  1.0000
  C   C259      1.0  0.09529  0.73071  0.55243  1.0000
  H   H250      1.0  0.49415  0.69106  0.73095  1.0000
  C   C260      1.0  0.32441  0.71275  0.64876  1.0000
  H   H251      1.0  0.46506  0.72343  0.59663  1.0000
  C   C261      1.0  0.44818  0.64280  0.63852  1.0000
  Fe  Fe42      1.0  0.48466  0.50922  0.86772  1.0000
  H   H252      1.0  0.44550  0.67189  0.74986  1.0000
  H   H253      1.0  0.32979  0.69898  0.64694  1.0000
  C   C262      1.0  0.47899  0.58320  0.73543  1.0000
  C   C263      1.0  0.02996  0.60547  0.50133  1.0000
  H   H254      1.0  0.33551  0.70953  0.67258  1.0000
  H   H255      1.0  0.03973  0.61231  0.50404  1.0000
  S   S84       1.0  0.46826  0.60059  0.79883  1.0000
  H   H256      1.0  0.48261  0.55580  0.73163  1.0000
  H   H257      1.0  0.43402  0.64400  0.64451  1.0000
  C   C264      1.0  0.48614  0.67967  0.79833  1.0000
  S   S85       1.0  0.04983  0.69687  0.48317  1.0000
  H   H258      1.0  0.44336  0.56203  0.78613  1.0000
  H   H259      1.0  0.45837  0.62283  0.67413  1.0000
  C   C265      1.0  0.46538  0.70536  0.78631  1.0000
  C   C266      1.0  0.45335  0.65459  0.62292  1.0000
  C   C267      1.0  0.32084  0.73632  0.66574  1.0000
  S   S86       1.0  0.00228  0.72776  0.49145  1.0000
  C   C268      1.0  0.45585  0.51626  0.83001  1.0000
  H   H260      1.0  0.48870  0.61879  0.64495  1.0000
  H   H261      1.0  0.47668  0.61151  0.73482  1.0000
  H   H262      1.0  0.49304  0.51587  0.79772  1.0000
  S   S87       1.0  0.34161  0.73171  0.55688  1.0000
  C   C269      1.0  0.46741  0.71263  0.60762  1.0000
  C   C270      1.0  0.48062  0.70859  0.68456  1.0000
  H   H263      1.0  0.36839  0.73052  0.57792  1.0000
  H   H264      1.0  0.22711  0.71926  0.52541  1.0000
  C   C271      1.0  0.46435  0.67541  0.78216  1.0000
  Fe  Fe43      1.0  0.37878  0.71026  0.66878  1.0000
  S   S88       1.0  0.38054  0.71764  0.63931  1.0000
  H   H265      1.0  0.46970  0.66884  0.74258  1.0000
  C   C272      1.0  0.07770  0.72813  0.55260  1.0000
  C   C273      1.0  0.01394  0.60424  0.51352  1.0000
  C   C274      1.0  0.49045  0.69596  0.71798  1.0000
  H   H266      1.0  0.48507  0.70687  0.80151  1.0000
  S   S89       1.0  0.01521  0.65206  0.55033  1.0000
  H   H267      1.0  0.47665  0.71332  0.67169  1.0000
  C   C275      1.0  0.47284  0.51015  0.82072  1.0000
  H   H268      1.0  0.48081  0.49755  0.82592  1.0000
  C   C276      1.0  0.48322  0.56955  0.72524  1.0000
  Fe  Fe44      1.0  0.16508  0.73553  0.56761  1.0000
  H   H269      1.0  0.31401  0.70313  0.62335  1.0000
  H   H270      1.0  0.49162  0.56299  0.69893  1.0000
  C   C277      1.0  0.00441  0.58878  0.49439  1.0000
  S   S90       1.0  0.49480  0.64806  0.67043  1.0000
  C   C278      1.0  0.22173  0.73346  0.52511  1.0000
  H   H271      1.0  0.01143  0.60993  0.52553  1.0000
  H   H272      1.0  0.06661  0.73388  0.56194  1.0000
  H   H273      1.0  0.31984  0.72354  0.60951  1.0000
  H   H274      1.0  0.25555  0.72410  0.52798  1.0000
  C   C279      1.0  0.02066  0.59006  0.48258  1.0000
  S   S91       1.0  0.35883  0.72885  0.68489  1.0000
  H   H275      1.0  0.44085  0.72902  0.65563  1.0000
  C   C280      1.0  0.25223  0.73891  0.52377  1.0000
  C   C281      1.0  0.48471  0.70241  0.60798  1.0000
  H   H276      1.0  0.49702  0.67417  0.80572  1.0000
  C   C282      1.0  0.48788  0.68837  0.62209  1.0000
  S   S92       1.0  0.29541  0.73507  0.53996  1.0000
  H   H277      1.0  0.49564  0.70534  0.59722  1.0000
  H   H278      1.0  0.49657  0.68389  0.67747  1.0000
  H   H279      1.0  0.08866  0.74024  0.49701  1.0000
  S   S93       1.0  0.49754  0.59600  0.67566  1.0000
  H   H280      1.0  0.49855  0.63975  0.61773  1.0000
  Fe  Fe45      1.0  0.44332  0.74018  0.76058  1.0000
  H   H281      1.0  0.00651  0.88663  0.39949  1.0000
  H   H282      1.0  0.28018  0.94670  0.12468  1.0000
  S   S94       1.0  0.27167  0.95373  0.04363  1.0000
  C   C283      1.0  0.15027  0.98360  0.21495  1.0000
  H   H283      1.0  0.29102  0.94238  0.00775  1.0000
  H   H284      1.0  0.19491  0.94105  0.98989  1.0000
  H   H285      1.0  0.28959  0.97521  0.06564  1.0000
  C   C284      1.0  0.21585  0.95687  0.98475  1.0000
  S   S95       1.0  0.20560  0.97299  0.17915  1.0000
  Fe  Fe46      1.0  0.24951  0.97471  0.03374  1.0000
  H   H286      1.0  0.19491  0.96573  0.07540  1.0000
  H   H287      1.0  0.99946  0.82276  0.43983  1.0000
  Fe  Fe47      1.0  0.23406  0.94488  0.14400  1.0000
  S   S96       1.0  0.24632  0.95184  0.16462  1.0000
  S   S97       1.0  0.25110  0.92635  0.12596  1.0000
  Fe  Fe48      1.0  0.19673  0.96395  0.15766  1.0000
  H   H288      1.0  0.02574  0.79774  0.43631  1.0000
  H   H289      1.0  0.18933  0.94740  0.13115  1.0000
  H   H290      1.0  0.12888  0.91666  0.39088  1.0000
  H   H291      1.0  0.03999  0.92046  0.33513  1.0000
  Fe  Fe49      1.0  0.22153  0.94510  0.18359  1.0000
  S   S98       1.0  0.22092  0.92731  0.21036  1.0000
  H   H292      1.0  0.23003  0.89406  0.27698  1.0000
  S   S99       1.0  0.21079  0.93555  0.16353  1.0000
  N   N23       1.0  0.12451  0.85861  0.36821  1.0000
  H   H293      1.0  0.28166  0.94099  0.97957  1.0000
  S   S100      1.0  0.01766  0.94730  0.39157  1.0000
  H   H294      1.0  0.13987  0.95603  0.25417  1.0000
  C   C285      1.0  0.14326  0.97840  0.23283  1.0000
  H   H295      1.0  0.20395  0.93334  0.30987  1.0000
  H   H296      1.0  0.13734  0.87701  0.34816  1.0000
  Fe  Fe50      1.0  0.15629  0.85115  0.42503  1.0000
  S   S101      1.0  0.14162  0.87795  0.43129  1.0000
  S   S102      1.0  0.18497  0.84804  0.41111  1.0000
  Fe  Fe51      1.0  0.11865  0.87077  0.42253  1.0000
  H   H297      1.0  0.07827  0.96016  0.43879  1.0000
  S   S103      1.0  0.13419  0.84512  0.41408  1.0000
  Fe  Fe52      1.0  0.13902  0.91374  0.31597  1.0000
  S   S104      1.0  0.14149  0.91714  0.34300  1.0000
  S   S105      1.0  0.12570  0.89155  0.31344  1.0000
  Fe  Fe53      1.0  0.15921  0.94382  0.29708  1.0000
  S   S106      1.0  0.16359  0.94967  0.32249  1.0000
  S   S107      1.0  0.16850  0.96244  0.27221  1.0000
  Fe  Fe54      1.0  0.16995  0.91985  0.33062  1.0000
  S   S108      1.0  0.19485  0.90735  0.34236  1.0000
  Fe  Fe55      1.0  0.13486  0.94653  0.33249  1.0000
  S   S109      1.0  0.11734  0.96543  0.34984  1.0000
  S   S110      1.0  0.16817  0.91408  0.30423  1.0000
  S   S111      1.0  0.12982  0.94305  0.30634  1.0000
  C   C286      1.0  0.18746  0.86449  0.39200  1.0000
  C   C287      1.0  0.20468  0.86617  0.38240  1.0000
  C   C288      1.0  0.20683  0.87949  0.36728  1.0000
  C   C289      1.0  0.19175  0.89110  0.36163  1.0000
  C   C290      1.0  0.17454  0.88959  0.37142  1.0000
  C   C291      1.0  0.17238  0.87629  0.38658  1.0000
  H   H298      1.0  0.21637  0.85714  0.38661  1.0000
  H   H299      1.0  0.22018  0.88065  0.35983  1.0000
  H   H300      1.0  0.16292  0.89875  0.36746  1.0000
  H   H301      1.0  0.15904  0.87513  0.39398  1.0000
  H   H302      1.0  0.24855  0.98853  0.12456  1.0000
  H   H303      1.0  0.09856  0.94875  0.33133  1.0000
  C   C292      1.0  0.09479  0.87833  0.32878  1.0000
  C   C293      1.0  0.10442  0.89221  0.32705  1.0000
  C   C294      1.0  0.09722  0.90625  0.33658  1.0000
  H   H304      1.0  0.10029  0.86751  0.32131  1.0000
  H   H305      1.0  0.10456  0.91701  0.33522  1.0000
  H   H306      1.0  0.28603  0.95285  0.09186  1.0000
  C   C295      1.0  0.03248  0.79202  0.32094  1.0000
  C   C296      1.0  0.05105  0.88590  0.41378  1.0000
  C   C297      1.0  0.19855  0.95572  0.08663  1.0000
  C   C298      1.0  0.03319  0.88969  0.44779  1.0000
  H   H307      1.0  0.10149  0.74651  0.47558  1.0000
  H   H308      1.0  0.18955  0.85443  0.46766  1.0000
  C   C299      1.0  0.03511  0.89835  0.41659  1.0000
  H   H309      1.0  0.22924  0.89529  0.44938  1.0000
  N   N24       1.0  0.19768  0.87321  0.44451  1.0000
  C   C300      1.0  0.13135  0.84063  0.36966  1.0000
  H   H310      1.0  0.07057  0.86570  0.42619  1.0000
  H   H311      1.0  0.12425  0.92207  0.42051  1.0000
  C   C301      1.0  0.17720  0.97410  0.10669  1.0000
  H   H312      1.0  0.22616  0.95027  0.25570  1.0000
  Fe  Fe56      1.0  0.02036  0.97355  0.37367  1.0000
  C   C302      1.0  0.20597  0.93710  0.22729  1.0000
  C   C303      1.0  0.20259  0.95570  0.22646  1.0000
  C   C304      1.0  0.19089  0.96336  0.24027  1.0000
  C   C305      1.0  0.18266  0.95242  0.25500  1.0000
  C   C306      1.0  0.18586  0.93383  0.25578  1.0000
  C   C307      1.0  0.19754  0.92616  0.24192  1.0000
  H   H313      1.0  0.20942  0.96416  0.21545  1.0000
  H   H314      1.0  0.16621  0.97092  0.11795  1.0000
  H   H315      1.0  0.17936  0.92534  0.26699  1.0000
  H   H316      1.0  0.20011  0.91175  0.24256  1.0000
  C   C308      1.0  0.29335  0.97033  0.00005  1.0000
  C   C309      1.0  0.20861  0.93033  0.11513  1.0000
  C   C310      1.0  0.20180  0.89745  0.42000  1.0000
  S   S112      1.0  0.03892  0.94533  0.43308  1.0000
  H   H317      1.0  0.19825  0.90510  0.40754  1.0000
  H   H318      1.0  0.11375  0.92891  0.37638  1.0000
  Fe  Fe57      1.0  0.04440  0.82679  0.39034  1.0000
  C   C311      1.0  0.17071  0.93919  0.20117  1.0000
  H   H319      1.0  0.00943  0.92010  0.44763  1.0000
  C   C312      1.0  0.14488  0.96019  0.24016  1.0000
  C   C313      1.0  0.04937  0.77380  0.37091  1.0000
  H   H320      1.0  0.29716  0.97106  0.01240  1.0000
  C   C314      1.0  0.28999  0.96147  0.09902  1.0000
  C   C315      1.0  0.22947  0.92177  0.26453  1.0000
  S   S113      1.0  0.11544  0.80600  0.44911  1.0000
  C   C316      1.0  0.10629  0.86452  0.37110  1.0000
  C   C317      1.0  0.07461  0.80298  0.41600  1.0000
  C   C318      1.0  0.22585  0.90798  0.27872  1.0000
  S   S114      1.0  0.06007  0.80098  0.40238  1.0000
  H   H321      1.0  0.17372  0.91164  0.45941  1.0000
  H   H322      1.0  0.13188  0.93894  0.37901  1.0000
  Fe  Fe58      1.0  0.13139  0.86235  0.45769  1.0000
  N   N25       1.0  0.03866  0.78575  0.33802  1.0000
  C   C319      1.0  0.19544  0.94552  0.11773  1.0000
  C   C320      1.0  0.26546  0.94644  0.06649  1.0000
  C   C321      1.0  0.25260  0.95736  0.07704  1.0000
  C   C322      1.0  0.24820  0.95149  0.09543  1.0000
  C   C323      1.0  0.25632  0.93450  0.10316  1.0000
  C   C324      1.0  0.26897  0.92356  0.09254  1.0000
  C   C325      1.0  0.27369  0.92960  0.07430  1.0000
  Fe  Fe59      1.0  0.22943  0.97898  0.15828  1.0000
  H   H323      1.0  0.23838  0.96000  0.10350  1.0000
  H   H324      1.0  0.27526  0.91041  0.09846  1.0000
  H   H325      1.0  0.28359  0.92110  0.06620  1.0000
  H   H326      1.0  0.03376  0.94442  0.33021  1.0000
  C   C326      1.0  0.21106  0.93021  0.29704  1.0000
  C   C327      1.0  0.03618  0.76913  0.34729  1.0000
  C   C328      1.0  0.21081  0.87720  0.45159  1.0000
  C   C329      1.0  0.21171  0.94063  0.08354  1.0000
  H   H327      1.0  0.00849  0.92409  0.42469  1.0000
  S   S115      1.0  0.21884  0.97258  0.13611  1.0000
  N   N26       1.0  0.01349  0.93126  0.34773  1.0000
  H   H328      1.0  0.24618  0.97042  0.07109  1.0000
  S   S116      1.0  0.03514  0.97510  0.34574  1.0000
  H   H329      1.0  0.16863  0.92537  0.20758  1.0000
  C   C330      1.0  0.05709  0.92996  0.42446  1.0000
  C   C331      1.0  0.15902  0.97044  0.20470  1.0000
  C   C332      1.0  0.21674  0.92788  0.09791  1.0000
  C   C333      1.0  0.09947  0.80511  0.43658  1.0000
  Fe  Fe60      1.0  0.04079  0.86570  0.37259  1.0000
  C   C334      1.0  0.09436  0.85232  0.37567  1.0000
  H   H330      1.0  0.08993  0.89596  0.43812  1.0000
  H   H331      1.0  0.10090  0.87879  0.36983  1.0000
  H   H332      1.0  0.13171  0.88313  0.36999  1.0000
  C   C335      1.0  0.06375  0.98346  0.35573  1.0000
  H   H333      1.0  0.16458  0.97459  0.19086  1.0000
  H   H334      1.0  0.18388  0.98418  0.10974  1.0000
  S   S117      1.0  0.14820  0.83607  0.45227  1.0000
  N   N27       1.0  0.16072  0.95261  0.21203  1.0000
  H   H335      1.0  0.07123  0.83186  0.40985  1.0000
  H   H336      1.0  0.22147  0.91319  0.42078  1.0000
  H   H337      1.0  0.14733  0.89798  0.45937  1.0000
  S   S118      1.0  0.01633  0.82515  0.38844  1.0000
  S   S119      1.0  0.01406  0.83364  0.33798  1.0000
  C   C336      1.0  0.11324  0.93294  0.41764  1.0000
  Fe  Fe61      1.0  0.02220  0.96059  0.41264  1.0000
  C   C337      1.0  0.21491  0.90186  0.42733  1.0000
  H   H338      1.0  0.09351  0.95654  0.38362  1.0000
  H   H339      1.0  0.03324  0.80644  0.31584  1.0000
  C   C338      1.0  0.07801  0.81976  0.41708  1.0000
  C   C339      1.0  0.29104  0.98565  0.98699  1.0000
  S   S120      1.0  0.05118  0.89171  0.36576  1.0000
  C   C340      1.0  0.21670  0.91219  0.29513  1.0000
  C   C341      1.0  0.20830  0.96245  0.28525  1.0000
  C   C342      1.0  0.05801  0.87514  0.42828  1.0000
  H   H340      1.0  0.21382  0.90161  0.30633  1.0000
  H   H341      1.0  0.20544  0.97124  0.27259  1.0000
  N   N28       1.0  0.19048  0.95792  0.10357  1.0000
  C   C343      1.0  0.08629  0.90523  0.41096  1.0000
  S   S121      1.0  0.10666  0.85779  0.44968  1.0000
  C   C344      1.0  0.01363  0.78545  0.42067  1.0000
  H   H342      1.0  0.05447  0.86880  0.45679  1.0000
  H   H343      1.0  0.02990  0.76067  0.34192  1.0000
  H   H344      1.0  0.08076  0.77439  0.42467  1.0000
  C   C345      1.0  0.13665  0.87173  0.36259  1.0000
  H   H345      1.0  0.10249  0.77629  0.44305  1.0000
  H   H346      1.0  0.22734  0.91641  0.09574  1.0000
  H   H347      1.0  0.07504  0.91724  0.35534  1.0000
  H   H348      1.0  0.21877  0.96710  0.29003  1.0000
  Fe  Fe62      1.0  0.12441  0.83265  0.44205  1.0000
  H   H349      1.0  0.05325  0.76928  0.38391  1.0000
  C   C346      1.0  0.11980  0.82803  0.37427  1.0000
  H   H350      1.0  0.21829  0.93901  0.07013  1.0000
  C   C347      1.0  0.09066  0.82081  0.42717  1.0000
  S   S122      1.0  0.24807  0.98475  0.00499  1.0000
  C   C348      1.0  0.05807  0.97321  0.34594  1.0000
  C   C349      1.0  0.07113  0.89220  0.35011  1.0000
  C   C350      1.0  0.01393  0.79835  0.43059  1.0000
  C   C351      1.0  0.08460  0.96031  0.41064  1.0000
  N   N29       1.0  0.11004  0.93858  0.40064  1.0000
  C   C352      1.0  0.04903  0.87698  0.44543  1.0000
  H   H351      1.0  0.16632  0.94205  0.18806  1.0000
  C   C353      1.0  0.05232  0.79051  0.36113  1.0000
  H   H352      1.0  0.18283  0.87993  0.42328  1.0000
  H   H353      1.0  0.23631  0.91868  0.25159  1.0000
  S   S123      1.0  0.05162  0.83992  0.36201  1.0000
  C   C354      1.0  0.29191  0.96891  0.12688  1.0000
  H   H354      1.0  0.06638  0.95291  0.32933  1.0000
  H   H355      1.0  0.07083  0.86757  0.34160  1.0000
  S   S124      1.0  0.03649  0.85243  0.40119  1.0000
  C   C355      1.0  0.08050  0.90635  0.34796  1.0000
  C   C356      1.0  0.28681  0.95785  0.11758  1.0000
  C   C357      1.0  0.15386  0.94739  0.22955  1.0000
  C   C358      1.0  0.12180  0.93035  0.38607  1.0000
  C   C359      1.0  0.09611  0.95224  0.39703  1.0000
  C   C360      1.0  0.06734  0.91768  0.43596  1.0000
  S   S125      1.0  0.02121  0.74113  0.40810  1.0000
  C   C361      1.0  0.00140  0.94640  0.35116  1.0000
  Fe  Fe63      1.0  0.00896  0.85199  0.39682  1.0000
  H   H356      1.0  0.03912  0.93368  0.35173  1.0000
  C   C362      1.0  0.10119  0.83397  0.37712  1.0000
  S   S126      1.0  0.16770  0.96857  0.15537  1.0000
  H   H357      1.0  0.04891  0.80949  0.33726  1.0000
  H   H358      1.0  0.15564  0.93331  0.23556  1.0000
  C   C363      1.0  0.04141  0.76293  0.36389  1.0000
  C   C364      1.0  0.99922  0.81230  0.43261  1.0000
  H   H359      1.0  0.18535  0.93945  0.19901  1.0000
  H   H360      1.0  0.31354  0.97362  0.06462  1.0000
  H   H361      1.0  0.21421  0.86961  0.46412  1.0000
  H   H362      1.0  0.14580  0.83594  0.36729  1.0000
  H   H363      1.0  0.07953  0.91759  0.38531  1.0000
  C   C365      1.0  0.22362  0.93965  0.26692  1.0000
  C   C366      1.0  0.09469  0.96890  0.34760  1.0000
  C   C367      1.0  0.08898  0.95865  0.33786  1.0000
  Fe  Fe64      1.0  0.02273  0.84022  0.36100  1.0000
  H   H364      1.0  0.12524  0.81377  0.37559  1.0000
  C   C368      1.0  0.19319  0.88308  0.42890  1.0000
  H   H365      1.0  0.01122  0.80280  0.36616  1.0000
  H   H366      1.0  0.18841  0.97777  0.23963  1.0000
  H   H367      1.0  0.05822  0.88492  0.40043  1.0000
  C   C369      1.0  0.00809  0.91494  0.35155  1.0000
  H   H368      1.0  0.09360  0.83371  0.42770  1.0000
  N   N30       1.0  0.21425  0.94365  0.28294  1.0000
  C   C370      1.0  0.08201  0.90536  0.42921  1.0000
  H   H369      1.0  0.03918  0.74984  0.37134  1.0000
  C   C371      1.0  0.07071  0.96096  0.33682  1.0000
  S   S127      1.0  0.01250  0.86711  0.36906  1.0000
  H   H370      1.0  0.07993  0.85718  0.37786  1.0000
  C   C372      1.0  0.08337  0.78737  0.42548  1.0000
  S   S128      1.0  0.22102  0.97022  0.04084  1.0000
  C   C373      1.0  0.15548  0.89274  0.46959  1.0000
  C   C374      1.0  0.10201  0.94072  0.43162  1.0000
  H   H371      1.0  0.06395  0.91775  0.45009  1.0000
  H   H372      1.0  0.05861  0.79897  0.36644  1.0000
  C   C375      1.0  0.07815  0.87833  0.34031  1.0000
  C   C376      1.0  0.09565  0.78844  0.43589  1.0000
  H   H373      1.0  0.21287  0.92075  0.12639  1.0000
  N   N31       1.0  0.29763  0.97592  0.08998  1.0000
  S   S129      1.0  0.10418  0.88971  0.40224  1.0000
  C   C377      1.0  0.04690  0.79631  0.34459  1.0000
  H   H374      1.0  0.09210  0.82434  0.38045  1.0000
  C   C378      1.0  0.06158  0.92999  0.40619  1.0000
  H   H375      1.0  0.15049  0.86573  0.36513  1.0000
  H   H376      1.0  0.19544  0.96410  0.29489  1.0000
  C   C379      1.0  0.07613  0.91758  0.39945  1.0000
  H   H377      1.0  0.02991  0.90668  0.40517  1.0000
  C   C380      1.0  0.29993  0.98003  0.07055  1.0000
  H   H378      1.0  0.05409  0.93976  0.39717  1.0000
  C   C381      1.0  0.03249  0.93249  0.34084  1.0000
  Fe  Fe65      1.0  0.21884  0.98306  0.01280  1.0000
  H   H379      1.0  0.07312  0.97063  0.40776  1.0000
  H   H380      1.0  0.01778  0.90290  0.34921  1.0000
  H   H381      1.0  0.17083  0.98033  0.09486  1.0000
  S   S130      1.0  0.20288  0.97241  0.99788  1.0000
  H   H382      1.0  0.01807  0.79082  0.32251  1.0000
  N   N32       1.0  0.02653  0.90029  0.43346  1.0000
  H   H383      1.0  0.04075  0.78396  0.31094  1.0000
  C   C382      1.0  0.08208  0.98145  0.35640  1.0000
  H   H384      1.0  0.13682  0.98841  0.24112  1.0000
  C   C383      1.0  0.20839  0.94252  0.98299  1.0000
  H   H385      1.0  0.00567  0.95929  0.34840  1.0000
  C   C384      1.0  0.21944  0.89171  0.44324  1.0000
  H   H386      1.0  0.28899  0.96661  0.14129  1.0000
  C   C385      1.0  0.28986  0.95419  0.99744  1.0000
  C   C386      1.0  0.17029  0.90054  0.46969  1.0000
  C   C387      1.0  0.18882  0.85790  0.45329  1.0000
  H   H387      1.0  0.13081  0.98530  0.15753  1.0000
  H   H388      1.0  0.02633  0.89119  0.46114  1.0000
  C   C388      1.0  0.28445  0.95345  0.98174  1.0000
  H   H389      1.0  0.10425  0.93588  0.44515  1.0000
  C   C389      1.0  0.08752  0.95441  0.42806  1.0000
  C   C390      1.0  0.30047  0.98314  0.11754  1.0000
  H   H390      1.0  0.02516  0.77477  0.41875  1.0000
  S   S131      1.0  0.02788  0.98569  0.39394  1.0000
  H   H391      1.0  0.08646  0.98945  0.36391  1.0000
  C   C391      1.0  0.00975  0.91327  0.43638  1.0000
  C   C392      1.0  0.30343  0.98635  0.09896  1.0000
  H   H392      1.0  0.11876  0.77073  0.47005  1.0000
  H   H393      1.0  0.17429  0.86107  0.45230  1.0000
  H   H394      1.0  0.99925  0.91975  0.39381  1.0000
  H   H395      1.0  0.19520  0.84604  0.44683  1.0000
  C   C393      1.0  0.00024  0.80478  0.35904  1.0000
  S   S132      1.0  0.00122  0.74471  0.36685  1.0000
  N   N33       1.0  0.40984  0.96075  0.77922  1.0000
  C   C394      1.0  0.42893  0.83042  0.76291  1.0000
  C   C395      1.0  0.11999  0.83507  0.54328  1.0000
  H   H396      1.0  0.21172  0.77081  0.63804  1.0000
  C   C396      1.0  0.47053  0.80865  0.78196  1.0000
  Fe  Fe66      1.0  0.40883  0.75078  0.74538  1.0000
  C   C397      1.0  0.32671  0.79809  0.52375  1.0000
  C   C398      1.0  0.34748  0.98549  0.80240  1.0000
  H   H397      1.0  0.14464  0.84840  0.56756  1.0000
  S   S133      1.0  0.41906  0.76156  0.76472  1.0000
  C   C399      1.0  0.31514  0.80319  0.51132  1.0000
  H   H398      1.0  0.28226  0.86760  0.55254  1.0000
  H   H399      1.0  0.34588  0.75435  0.73888  1.0000
  H   H400      1.0  0.21275  0.91852  0.97174  1.0000
  C   C400      1.0  0.11904  0.85007  0.52981  1.0000
  Fe  Fe67      1.0  0.15318  0.77417  0.55191  1.0000
  S   S134      1.0  0.15910  0.79667  0.52966  1.0000
  Fe  Fe68      1.0  0.39292  0.98014  0.86327  1.0000
  C   C401      1.0  0.35217  0.97301  0.88963  1.0000
  C   C402      1.0  0.09308  0.75193  0.48734  1.0000
  H   H401      1.0  0.23606  0.76489  0.63526  1.0000
  Fe  Fe69      1.0  0.27966  0.76167  0.54569  1.0000
  N   N34       1.0  0.28531  0.98491  0.97182  1.0000
  S   S135      1.0  0.26954  0.78073  0.52273  1.0000
  C   C403      1.0  0.39855  0.76408  0.68301  1.0000
  S   S136      1.0  0.27058  0.75792  0.61237  1.0000
  H   H402      1.0  0.42712  0.75816  0.68216  1.0000
  S   S137      1.0  0.29776  0.76476  0.56337  1.0000
  Fe  Fe70      1.0  0.12531  0.75083  0.57048  1.0000
  Fe  Fe71      1.0  0.21095  0.83261  0.65862  1.0000
  S   S138      1.0  0.21826  0.85043  0.63293  1.0000
  S   S139      1.0  0.19211  0.81315  0.65807  1.0000
  Fe  Fe72      1.0  0.23393  0.85009  0.67765  1.0000
  S   S140      1.0  0.24227  0.86859  0.65238  1.0000
  S   S141      1.0  0.24462  0.85071  0.70307  1.0000
  Fe  Fe73      1.0  0.21354  0.87234  0.64887  1.0000
  S   S142      1.0  0.19804  0.89991  0.64081  1.0000
  Fe  Fe74      1.0  0.24607  0.84461  0.63927  1.0000
  S   S143      1.0  0.26803  0.83878  0.61628  1.0000
  S   S144      1.0  0.20449  0.85514  0.67478  1.0000
  S   S145      1.0  0.23940  0.82540  0.66449  1.0000
  Fe  Fe75      1.0  0.20974  0.89332  0.50880  1.0000
  S   S146      1.0  0.19192  0.89537  0.53523  1.0000
  C   C404      1.0  0.38836  0.75680  0.65878  1.0000
  Fe  Fe76      1.0  0.24266  0.87516  0.52456  1.0000
  S   S147      1.0  0.22813  0.87536  0.55236  1.0000
  S   S148      1.0  0.27155  0.86180  0.52169  1.0000
  Fe  Fe77      1.0  0.20594  0.86730  0.54334  1.0000
  S   S149      1.0  0.19099  0.84769  0.56294  1.0000
  Fe  Fe78      1.0  0.21535  0.90343  0.54226  1.0000
  S   S150      1.0  0.21074  0.92586  0.55779  1.0000
  S   S151      1.0  0.22168  0.86423  0.51626  1.0000
  S   S152      1.0  0.23210  0.90411  0.51497  1.0000
  Fe  Fe79      1.0  0.29694  0.95186  0.92036  1.0000
  S   S153      1.0  0.29748  0.92597  0.93966  1.0000
  Fe  Fe80      1.0  0.27884  0.75094  0.58513  1.0000
  Fe  Fe81      1.0  0.28440  0.93776  0.89259  1.0000
  S   S154      1.0  0.28375  0.91051  0.90933  1.0000
  S   S155      1.0  0.27691  0.94664  0.86536  1.0000
  Fe  Fe82      1.0  0.27139  0.92552  0.93173  1.0000
  S   S156      1.0  0.24789  0.91592  0.95052  1.0000
  Fe  Fe83      1.0  0.30991  0.91335  0.91571  1.0000
  S   S157      1.0  0.33463  0.89207  0.91516  1.0000
  S   S158      1.0  0.26955  0.95275  0.91458  1.0000
  S   S159      1.0  0.31173  0.93938  0.89691  1.0000
  Fe  Fe84      1.0  0.29752  0.90679  0.74958  1.0000
  S   S160      1.0  0.30665  0.88131  0.76761  1.0000
  S   S161      1.0  0.28151  0.90663  0.72765  1.0000
  Fe  Fe85      1.0  0.31647  0.92925  0.76745  1.0000
  S   S162      1.0  0.32667  0.90478  0.78589  1.0000
  C   C405      1.0  0.21846  0.92981  0.97271  1.0000
  Fe  Fe86      1.0  0.33295  0.89105  0.76229  1.0000
  S   S163      1.0  0.35887  0.87202  0.75641  1.0000
  Fe  Fe87      1.0  0.29926  0.89801  0.78922  1.0000
  S   S164      1.0  0.28671  0.88780  0.81714  1.0000
  S   S165      1.0  0.32464  0.91583  0.74311  1.0000
  S   S166      1.0  0.28817  0.92313  0.77189  1.0000
  Fe  Fe88      1.0  0.41948  0.85626  0.81538  1.0000
  S   S167      1.0  0.44202  0.87188  0.80486  1.0000
  C   C406      1.0  0.42474  0.82171  0.79497  1.0000
  Fe  Fe89      1.0  0.39193  0.88876  0.82484  1.0000
  S   S168      1.0  0.41176  0.90734  0.81509  1.0000
  S   S169      1.0  0.36284  0.89980  0.83324  1.0000
  Fe  Fe90      1.0  0.42107  0.89254  0.79227  1.0000
  S   S170      1.0  0.42250  0.90663  0.76415  1.0000
  Fe  Fe91      1.0  0.43050  0.88504  0.82884  1.0000
  S   S171      1.0  0.44513  0.89215  0.84738  1.0000
  S   S172      1.0  0.39949  0.87576  0.80090  1.0000
  S   S173      1.0  0.40979  0.86753  0.84048  1.0000
  C   C407      1.0  0.44820  0.91419  0.83859  1.0000
  C   C408      1.0  0.45551  0.91875  0.82063  1.0000
  C   C409      1.0  0.39856  0.90619  0.88811  1.0000
  H   H403      1.0  0.46088  0.90834  0.81264  1.0000
  H   H404      1.0  0.36458  0.85159  0.85207  1.0000
  C   C410      1.0  0.37694  0.88286  0.75543  1.0000
  C   C411      1.0  0.39462  0.87337  0.75286  1.0000
  C   C412      1.0  0.40894  0.88133  0.75406  1.0000
  C   C413      1.0  0.40562  0.89883  0.75764  1.0000
  C   C414      1.0  0.38799  0.90855  0.75950  1.0000
  C   C415      1.0  0.37369  0.90061  0.75826  1.0000
  H   H405      1.0  0.39722  0.85962  0.75077  1.0000
  H   H406      1.0  0.42249  0.87368  0.75304  1.0000
  H   H407      1.0  0.38521  0.92186  0.76278  1.0000
  H   H408      1.0  0.36010  0.90808  0.76012  1.0000
  C   C416      1.0  0.34238  0.89148  0.89265  1.0000
  C   C417      1.0  0.33057  0.89897  0.88071  1.0000
  C   C418      1.0  0.33692  0.90081  0.86250  1.0000
  C   C419      1.0  0.35519  0.89550  0.85610  1.0000
  C   C420      1.0  0.36698  0.88741  0.86799  1.0000
  C   C421      1.0  0.36051  0.88516  0.88633  1.0000
  H   H409      1.0  0.31652  0.90355  0.88547  1.0000
  H   H410      1.0  0.32763  0.90664  0.85344  1.0000
  H   H411      1.0  0.38112  0.88337  0.86318  1.0000
  H   H412      1.0  0.36964  0.87929  0.89558  1.0000
  C   C422      1.0  0.32934  0.97256  0.91632  1.0000
  C   C423      1.0  0.34285  0.96644  0.92669  1.0000
  C   C424      1.0  0.36100  0.96336  0.91853  1.0000
  C   C425      1.0  0.36565  0.96675  0.90002  1.0000
  C   C426      1.0  0.28234  0.96901  0.96894  1.0000
  C   C427      1.0  0.33399  0.97571  0.89779  1.0000
  H   H413      1.0  0.33926  0.96367  0.94100  1.0000
  S   S174      1.0  0.39547  0.97090  0.83749  1.0000
  H   H414      1.0  0.37747  0.75582  0.65244  1.0000
  C   C428      1.0  0.27922  0.92995  0.85244  1.0000
  C   C429      1.0  0.27565  0.93508  0.83510  1.0000
  C   C430      1.0  0.27807  0.92220  0.82419  1.0000
  C   C431      1.0  0.28348  0.90401  0.83078  1.0000
  C   C432      1.0  0.28658  0.89879  0.84830  1.0000
  C   C433      1.0  0.28467  0.91176  0.85904  1.0000
  H   H415      1.0  0.27118  0.94909  0.82999  1.0000
  H   H416      1.0  0.27552  0.92633  0.81075  1.0000
  H   H417      1.0  0.29081  0.88474  0.85345  1.0000
  H   H418      1.0  0.28755  0.90766  0.87235  1.0000
  C   C434      1.0  0.25699  0.86561  0.70831  1.0000
  C   C435      1.0  0.26477  0.86056  0.72381  1.0000
  C   C436      1.0  0.27311  0.87250  0.72947  1.0000
  C   C437      1.0  0.27365  0.88990  0.71983  1.0000
  C   C438      1.0  0.26632  0.89477  0.70408  1.0000
  C   C439      1.0  0.25817  0.88276  0.69831  1.0000
  H   H419      1.0  0.26403  0.84737  0.73170  1.0000
  H   H420      1.0  0.27865  0.86840  0.74158  1.0000
  H   H421      1.0  0.26662  0.90812  0.69642  1.0000
  H   H422      1.0  0.25231  0.88699  0.68639  1.0000
  C   C440      1.0  0.20155  0.90718  0.61776  1.0000
  C   C441      1.0  0.20020  0.92551  0.61073  1.0000
  C   C442      1.0  0.20285  0.93129  0.59226  1.0000
  C   C443      1.0  0.20629  0.91878  0.58084  1.0000
  C   C444      1.0  0.20702  0.90058  0.58797  1.0000
  C   C445      1.0  0.20508  0.89476  0.60631  1.0000
  H   H423      1.0  0.19736  0.93522  0.61954  1.0000
  H   H424      1.0  0.20221  0.94544  0.58684  1.0000
  H   H425      1.0  0.20889  0.89092  0.57943  1.0000
  H   H426      1.0  0.20546  0.88072  0.61153  1.0000
  C   C446      1.0  0.26933  0.80326  0.52323  1.0000
  C   C447      1.0  0.26408  0.81639  0.50914  1.0000
  C   C448      1.0  0.26483  0.83439  0.50869  1.0000
  C   C449      1.0  0.27111  0.83924  0.52217  1.0000
  C   C450      1.0  0.27625  0.82616  0.53636  1.0000
  C   C451      1.0  0.27518  0.80816  0.53697  1.0000
  H   H427      1.0  0.08102  0.76126  0.48320  1.0000
  C   C452      1.0  0.21691  0.95189  0.92234  1.0000
  H   H428      1.0  0.28077  0.82997  0.54698  1.0000
  H   H429      1.0  0.27899  0.79814  0.54800  1.0000
  C   C453      1.0  0.27180  0.78009  0.61299  1.0000
  C   C454      1.0  0.26985  0.78526  0.62946  1.0000
  C   C455      1.0  0.26958  0.80317  0.63040  1.0000
  C   C456      1.0  0.27121  0.81599  0.61491  1.0000
  C   C457      1.0  0.27386  0.81072  0.59836  1.0000
  C   C458      1.0  0.27396  0.79278  0.59742  1.0000
  H   H430      1.0  0.26823  0.77548  0.64154  1.0000
  H   H431      1.0  0.26816  0.80705  0.64314  1.0000
  H   H432      1.0  0.27498  0.82062  0.58634  1.0000
  H   H433      1.0  0.27500  0.78900  0.58470  1.0000
  C   C459      1.0  0.16840  0.81090  0.53842  1.0000
  C   C460      1.0  0.17643  0.82482  0.52736  1.0000
  C   C461      1.0  0.18382  0.83605  0.53471  1.0000
  C   C462      1.0  0.18303  0.83338  0.55308  1.0000
  C   C463      1.0  0.17489  0.81959  0.56405  1.0000
  C   C464      1.0  0.16765  0.80834  0.55676  1.0000
  H   H434      1.0  0.17696  0.82690  0.51316  1.0000
  H   H435      1.0  0.18998  0.84679  0.52619  1.0000
  H   H436      1.0  0.17386  0.81783  0.57825  1.0000
  H   H437      1.0  0.16097  0.79807  0.56550  1.0000
  H   H438      1.0  0.29889  0.96278  0.81603  1.0000
  C   C465      1.0  0.16164  0.78182  0.64579  1.0000
  C   C466      1.0  0.17027  0.79067  0.65466  1.0000
  C   C467      1.0  0.18174  0.80262  0.64530  1.0000
  C   C468      1.0  0.18439  0.80552  0.62658  1.0000
  C   C469      1.0  0.17611  0.79612  0.61760  1.0000
  H   H439      1.0  0.15275  0.77282  0.65350  1.0000
  H   H440      1.0  0.16790  0.78822  0.66903  1.0000
  H   H441      1.0  0.19277  0.81497  0.61897  1.0000
  C   C470      1.0  0.12724  0.86437  0.53031  1.0000
  H   H442      1.0  0.31552  0.93556  0.80752  1.0000
  C   C471      1.0  0.22373  0.96292  0.90695  1.0000
  H   H443      1.0  0.13887  0.88641  0.55309  1.0000
  C   C472      1.0  0.11602  0.77053  0.48426  1.0000
  H   H444      1.0  0.25938  0.74265  0.51002  1.0000
  H   H445      1.0  0.35058  0.92987  0.90531  1.0000
  C   C473      1.0  0.31884  0.77212  0.50846  1.0000
  H   H446      1.0  0.12646  0.87595  0.51973  1.0000
  H   H447      1.0  0.22398  0.90124  0.90808  1.0000
  S   S175      1.0  0.17347  0.76095  0.56951  1.0000
  H   H448      1.0  0.17862  0.79806  0.60331  1.0000
  C   C474      1.0  0.37401  0.91125  0.91243  1.0000
  C   C475      1.0  0.42621  0.80386  0.79321  1.0000
  C   C476      1.0  0.42956  0.79925  0.77635  1.0000
  H   H449      1.0  0.42543  0.79350  0.80489  1.0000
  H   H450      1.0  0.43218  0.78535  0.77522  1.0000
  S   S176      1.0  0.25932  0.75057  0.56784  1.0000
  S   S177      1.0  0.30665  0.97469  0.92650  1.0000
  H   H451      1.0  0.45121  0.76007  0.80596  1.0000
  H   H452      1.0  0.31453  0.92144  0.82903  1.0000
  H   H453      1.0  0.23822  0.89974  0.92420  1.0000
  H   H454      1.0  0.25096  0.92095  0.54873  1.0000
  H   H455      1.0  0.26066  0.84454  0.49782  1.0000
  C   C477      1.0  0.40480  0.97733  0.78408  1.0000
  C   C478      1.0  0.46802  0.79378  0.79533  1.0000
  C   C479      1.0  0.24320  0.94632  0.96503  1.0000
  C   C480      1.0  0.45554  0.93682  0.81291  1.0000
  C   C481      1.0  0.33058  0.76753  0.52072  1.0000
  H   H456      1.0  0.39563  0.76885  0.69557  1.0000
  S   S178      1.0  0.42196  0.82678  0.81619  1.0000
  H   H457      1.0  0.36806  0.90847  0.92637  1.0000
  H   H458      1.0  0.46443  0.79578  0.80904  1.0000
  C   C482      1.0  0.16149  0.87189  0.49629  1.0000
  C   C483      1.0  0.17615  0.87979  0.49648  1.0000
  H   H459      1.0  0.20917  0.95762  0.93377  1.0000
  H   H460      1.0  0.47527  0.81808  0.75371  1.0000
  C   C484      1.0  0.13726  0.84905  0.55702  1.0000
  H   H461      1.0  0.15853  0.86045  0.50627  1.0000
  H   H462      1.0  0.18417  0.87471  0.50680  1.0000
  C   C485      1.0  0.16444  0.78429  0.62720  1.0000
  H   H463      1.0  0.31876  0.98789  0.85001  1.0000
  C   C486      1.0  0.44722  0.95032  0.82288  1.0000
  H   H464      1.0  0.24272  0.91642  0.58138  1.0000
  C   C487      1.0  0.20749  0.76956  0.52503  1.0000
  C   C488      1.0  0.34683  0.95796  0.79160  1.0000
  C   C489      1.0  0.25156  0.90570  0.57517  1.0000
  H   H465      1.0  0.33637  0.75350  0.52445  1.0000
  H   H466      1.0  0.11236  0.85053  0.51879  1.0000
  C   C490      1.0  0.42609  0.83504  0.77983  1.0000
  C   C491      1.0  0.44122  0.92763  0.84890  1.0000
  H   H467      1.0  0.41211  0.98122  0.79267  1.0000
  C   C492      1.0  0.33186  0.96082  0.84739  1.0000
  H   H468      1.0  0.32927  0.80830  0.53003  1.0000
  H   H469      1.0  0.27093  0.89639  0.53407  1.0000
  N   N35       1.0  0.46915  0.77722  0.79110  1.0000
  N   N36       1.0  0.35865  0.83755  0.73272  1.0000
  C   C493      1.0  0.37549  0.84161  0.73066  1.0000
  C   C494      1.0  0.35589  0.82024  0.73867  1.0000
  C   C495      1.0  0.39005  0.82819  0.73468  1.0000
  C   C496      1.0  0.37023  0.80642  0.74265  1.0000
  C   C497      1.0  0.38738  0.81050  0.74071  1.0000
  C   C498      1.0  0.34326  0.85182  0.72923  1.0000
  H   H470      1.0  0.37770  0.85537  0.72627  1.0000
  H   H471      1.0  0.34253  0.81705  0.74044  1.0000
  H   H472      1.0  0.40331  0.83155  0.73325  1.0000
  H   H473      1.0  0.36807  0.79265  0.74732  1.0000
  H   H474      1.0  0.39858  0.80000  0.74396  1.0000
  H   H475      1.0  0.33428  0.85417  0.74196  1.0000
  H   H476      1.0  0.34760  0.86480  0.72265  1.0000
  H   H477      1.0  0.33551  0.84816  0.72049  1.0000
  C   C499      1.0  0.39613  0.92096  0.85757  1.0000
  H   H478      1.0  0.41212  0.89957  0.88331  1.0000
  H   H479      1.0  0.40675  0.90956  0.85378  1.0000
  H   H480      1.0  0.38561  0.92263  0.84932  1.0000
  H   H481      1.0  0.40229  0.93321  0.85447  1.0000
  H   H482      1.0  0.16016  0.87222  0.54628  1.0000
  C   C500      1.0  0.23328  0.95879  0.97576  1.0000
  C   C501      1.0  0.09931  0.76184  0.51285  1.0000
  H   H483      1.0  0.24781  0.90192  0.90119  1.0000
  C   C502      1.0  0.10889  0.77080  0.52045  1.0000
  H   H484      1.0  0.34133  0.96028  0.85599  1.0000
  H   H485      1.0  0.46893  0.82187  0.78535  1.0000
  C   C503      1.0  0.38569  0.96735  0.76258  1.0000
  H   H486      1.0  0.08877  0.75513  0.52130  1.0000
  H   H487      1.0  0.22413  0.78333  0.64631  1.0000
  H   H488      1.0  0.34261  0.93431  0.84161  1.0000
  C   C504      1.0  0.32594  0.98507  0.78371  1.0000
  H   H489      1.0  0.35705  0.76366  0.53838  1.0000
  C   C505      1.0  0.31110  0.74798  0.65352  1.0000
  S   S179      1.0  0.13175  0.86948  0.48385  1.0000
  N   N37       1.0  0.23130  0.92580  0.90928  1.0000
  H   H490      1.0  0.31538  0.76178  0.50301  1.0000
  C   C506      1.0  0.22058  0.93326  0.92314  1.0000
  C   C507      1.0  0.23768  0.93653  0.89398  1.0000
  H   H491      1.0  0.43517  0.98637  0.90896  1.0000
  C   C508      1.0  0.46527  0.76198  0.80510  1.0000
  C   C509      1.0  0.23547  0.90621  0.91069  1.0000
  H   H492      1.0  0.20199  0.78371  0.52506  1.0000
  H   H493      1.0  0.21544  0.92475  0.93525  1.0000
  H   H494      1.0  0.18182  0.76245  0.52571  1.0000
  C   C510      1.0  0.14643  0.87791  0.54320  1.0000
  C   C511      1.0  0.23583  0.93171  0.96371  1.0000
  C   C512      1.0  0.38055  0.98435  0.76733  1.0000
  H   H495      1.0  0.33832  0.77128  0.55469  1.0000
  H   H496      1.0  0.25949  0.81264  0.49852  1.0000
  H   H497      1.0  0.22237  0.76850  0.60441  1.0000
  C   C513      1.0  0.27375  0.87846  0.55881  1.0000
  H   H498      1.0  0.22378  0.78869  0.57520  1.0000
  N   N38       1.0  0.10326  0.76140  0.49504  1.0000
  H   H499      1.0  0.42865  0.93582  0.78010  1.0000
  C   C514      1.0  0.47514  0.78962  0.76004  1.0000
  C   C515      1.0  0.26862  0.87615  0.57726  1.0000
  H   H500      1.0  0.43010  0.84069  0.75119  1.0000
  C   C516      1.0  0.47263  0.77502  0.77374  1.0000
  H   H501      1.0  0.46111  0.94030  0.79901  1.0000
  H   H502      1.0  0.33590  0.92514  0.81562  1.0000
  C   C517      1.0  0.34632  0.77531  0.54137  1.0000
  C   C518      1.0  0.25199  0.88655  0.60454  1.0000
  H   H503      1.0  0.11410  0.82367  0.54285  1.0000
  C   C519      1.0  0.33247  0.94618  0.83927  1.0000
  N   N39       1.0  0.23871  0.89740  0.75348  1.0000
  C   C520      1.0  0.23335  0.88116  0.75594  1.0000
  C   C521      1.0  0.23508  0.91033  0.73918  1.0000
  C   C522      1.0  0.22418  0.87749  0.74385  1.0000
  C   C523      1.0  0.22583  0.90715  0.72690  1.0000
  C   C524      1.0  0.22047  0.89057  0.72923  1.0000
  C   C525      1.0  0.24924  0.90040  0.76579  1.0000
  H   H504      1.0  0.23672  0.87072  0.76695  1.0000
  H   H505      1.0  0.24008  0.92287  0.73672  1.0000
  H   H506      1.0  0.22069  0.86432  0.74532  1.0000
  H   H507      1.0  0.22361  0.91715  0.71522  1.0000
  H   H508      1.0  0.21413  0.88755  0.71933  1.0000
  H   H509      1.0  0.24216  0.89757  0.77973  1.0000
  H   H510      1.0  0.26267  0.89151  0.76431  1.0000
  H   H511      1.0  0.25170  0.91445  0.76304  1.0000
  N   N40       1.0  0.22607  0.78821  0.61800  1.0000
  C   C526      1.0  0.22907  0.80530  0.61662  1.0000
  C   C527      1.0  0.22444  0.78215  0.60332  1.0000
  C   C528      1.0  0.22997  0.81700  0.60028  1.0000
  C   C529      1.0  0.22525  0.79349  0.58678  1.0000
  C   C530      1.0  0.22793  0.81106  0.58531  1.0000
  C   C531      1.0  0.22447  0.77622  0.63525  1.0000
  H   H512      1.0  0.23062  0.81003  0.62821  1.0000
  H   H513      1.0  0.43728  0.95498  0.78209  1.0000
  H   H514      1.0  0.23245  0.83049  0.59924  1.0000
  H   H515      1.0  0.40438  0.94244  0.76496  1.0000
  H   H516      1.0  0.22847  0.82004  0.57258  1.0000
  H   H517      1.0  0.24440  0.89895  0.60956  1.0000
  Fe  Fe92      1.0  0.41859  0.98590  0.82892  1.0000
  H   H518      1.0  0.12967  0.78696  0.51526  1.0000
  H   H519      1.0  0.12966  0.82307  0.56772  1.0000
  H   H520      1.0  0.47450  0.74938  0.80212  1.0000
  H   H521      1.0  0.23473  0.77244  0.52427  1.0000
  C   C532      1.0  0.12562  0.77992  0.49134  1.0000
  C   C533      1.0  0.42520  0.94843  0.78573  1.0000
  H   H522      1.0  0.30586  0.76182  0.65518  1.0000
  S   S180      1.0  0.45847  0.75703  0.73787  1.0000
  H   H523      1.0  0.24597  0.93067  0.88286  1.0000
  C   C534      1.0  0.12217  0.77987  0.50959  1.0000
  C   C535      1.0  0.30809  0.96208  0.82497  1.0000
  H   H524      1.0  0.35572  0.97542  0.87532  1.0000
  C   C536      1.0  0.31121  0.79009  0.50365  1.0000
  C   C537      1.0  0.38450  0.76353  0.67460  1.0000
  H   H525      1.0  0.10599  0.77069  0.53467  1.0000
  H   H526      1.0  0.47722  0.78799  0.74627  1.0000
  N   N41       1.0  0.36491  0.84952  0.80922  1.0000
  C   C538      1.0  0.37074  0.84655  0.82510  1.0000
  C   C539      1.0  0.34855  0.86002  0.80714  1.0000
  C   C540      1.0  0.35980  0.85363  0.83960  1.0000
  C   C541      1.0  0.33719  0.86717  0.82141  1.0000
  C   C542      1.0  0.34283  0.86383  0.83775  1.0000
  C   C543      1.0  0.37661  0.84217  0.79409  1.0000
  H   H527      1.0  0.38401  0.83884  0.82657  1.0000
  H   H528      1.0  0.34422  0.86300  0.79437  1.0000
  H   H529      1.0  0.32421  0.87547  0.81978  1.0000
  H   H530      1.0  0.33428  0.86959  0.84881  1.0000
  H   H531      1.0  0.38489  0.85213  0.78613  1.0000
  H   H532      1.0  0.38580  0.82963  0.79854  1.0000
  H   H533      1.0  0.36857  0.83904  0.78530  1.0000
  N   N42       1.0  0.16679  0.86873  0.63510  1.0000
  C   C544      1.0  0.17062  0.85419  0.62670  1.0000
  C   C545      1.0  0.16431  0.88577  0.62557  1.0000
  C   C546      1.0  0.17283  0.85651  0.60820  1.0000
  C   C547      1.0  0.16614  0.88860  0.60706  1.0000
  C   C548      1.0  0.17069  0.87385  0.59834  1.0000
  C   C549      1.0  0.16463  0.86610  0.65448  1.0000
  H   H534      1.0  0.17218  0.84071  0.63431  1.0000
  H   H535      1.0  0.16151  0.89731  0.63222  1.0000
  H   H536      1.0  0.17634  0.84494  0.60153  1.0000
  H   H537      1.0  0.16486  0.90216  0.59951  1.0000
  H   H538      1.0  0.17284  0.87585  0.58395  1.0000
  H   H539      1.0  0.15010  0.86782  0.66043  1.0000
  H   H540      1.0  0.17132  0.85244  0.66003  1.0000
  H   H541      1.0  0.17090  0.87594  0.65852  1.0000
  S   S181      1.0  0.32148  0.95676  0.77032  1.0000
  S   S182      1.0  0.12945  0.77808  0.57374  1.0000
  H   H542      1.0  0.25743  0.74508  0.53275  1.0000
  H   H543      1.0  0.26392  0.88150  0.61120  1.0000
  H   H544      1.0  0.14831  0.88657  0.52989  1.0000
  N   N43       1.0  0.38851  0.91756  0.87651  1.0000
  H   H545      1.0  0.35232  0.94402  0.79073  1.0000
  C   C550      1.0  0.33235  0.96687  0.78282  1.0000
  C   C551      1.0  0.40049  0.95565  0.76867  1.0000
  S   S183      1.0  0.15251  0.77246  0.61728  1.0000
  H   H546      1.0  0.40672  0.98742  0.89878  1.0000
  C   C552      1.0  0.35433  0.96722  0.80144  1.0000
  S   S184      1.0  0.38836  0.96288  0.89002  1.0000
  H   H547      1.0  0.30071  0.75081  0.62955  1.0000
  N   N44       1.0  0.25765  0.88967  0.58521  1.0000
  C   C553      1.0  0.39142  0.90277  0.90624  1.0000
  H   H548      1.0  0.39925  0.89349  0.91537  1.0000
  H   H549      1.0  0.27338  0.86341  0.58516  1.0000
  H   H550      1.0  0.37141  0.95837  0.92656  1.0000
  Fe  Fe93      1.0  0.14966  0.76377  0.59159  1.0000
  N   N45       1.0  0.33452  0.78048  0.52805  1.0000
  C   C554      1.0  0.37163  0.92630  0.88254  1.0000
  H   H551      1.0  0.23965  0.96362  0.88060  1.0000
  H   H552      1.0  0.36385  0.93561  0.87342  1.0000
  C   C555      1.0  0.36410  0.92321  0.90057  1.0000
  C   C556      1.0  0.40629  0.75075  0.65153  1.0000
  H   H553      1.0  0.23892  0.97008  0.97679  1.0000
  C   C557      1.0  0.47406  0.80652  0.76422  1.0000
  H   H554      1.0  0.44862  0.74865  0.65792  1.0000
  S   S185      1.0  0.44312  0.97276  0.81233  1.0000
  H   H555      1.0  0.30877  0.81712  0.50806  1.0000
  H   H556      1.0  0.24312  0.87629  0.60846  1.0000
  C   C558      1.0  0.12880  0.83470  0.55720  1.0000
  S   S186      1.0  0.14764  0.74853  0.54731  1.0000
  H   H557      1.0  0.42519  0.84886  0.78111  1.0000
  S   S187      1.0  0.42082  0.76892  0.72171  1.0000
  C   C559      1.0  0.44038  0.94571  0.84095  1.0000
  H   H558      1.0  0.43415  0.95605  0.84878  1.0000
  Fe  Fe94      1.0  0.43345  0.77773  0.74093  1.0000
  C   C560      1.0  0.43067  0.81247  0.76116  1.0000
  S   S188      1.0  0.43492  0.80658  0.74000  1.0000
  H   H559      1.0  0.43556  0.92412  0.86278  1.0000
  H   H560      1.0  0.47299  0.76199  0.77042  1.0000
  C   C561      1.0  0.22593  0.76309  0.52465  1.0000
  C   C562      1.0  0.26744  0.89466  0.54845  1.0000
  H   H561      1.0  0.36539  0.96027  0.80815  1.0000
  N   N46       1.0  0.13681  0.86341  0.54343  1.0000
  H   H562      1.0  0.25654  0.94786  0.95789  1.0000
  C   C563      1.0  0.32170  0.93154  0.81968  1.0000
  C   C564      1.0  0.25629  0.90840  0.55665  1.0000
  N   N47       1.0  0.32078  0.94702  0.82809  1.0000
  H   H563      1.0  0.46695  0.76402  0.81824  1.0000
  H   H564      1.0  0.35314  0.78643  0.54182  1.0000
  H   H565      1.0  0.37803  0.96311  0.75456  1.0000
  C   C565      1.0  0.19613  0.75763  0.52541  1.0000
  N   N48       1.0  0.42002  0.75131  0.65985  1.0000
  C   C566      1.0  0.31913  0.97631  0.84409  1.0000
  H   H566      1.0  0.40911  0.74546  0.63929  1.0000
  H   H567      1.0  0.42209  0.94480  0.80042  1.0000
  H   H568      1.0  0.27815  0.96834  0.95677  1.0000
  H   H569      1.0  0.37060  0.76775  0.68063  1.0000
  C   C567      1.0  0.23403  0.95523  0.89259  1.0000
  C   C568      1.0  0.43861  0.74393  0.65248  1.0000
  H   H570      1.0  0.22125  0.97737  0.90625  1.0000
  C   C569      1.0  0.41633  0.75783  0.67543  1.0000
  C   C570      1.0  0.30709  0.97695  0.83287  1.0000
  H   H571      1.0  0.30173  0.79377  0.49449  1.0000
  C   C571      1.0  0.35613  0.74696  0.73004  1.0000
  H   H572      1.0  0.29721  0.98896  0.83012  1.0000
  H   H573      1.0  0.33788  0.74604  0.71308  1.0000
  S   S189      1.0  0.37948  0.74997  0.75034  1.0000
  C   C572      1.0  0.15093  0.87856  0.48305  1.0000
  H   H574      1.0  0.44133  0.74797  0.63779  1.0000
  S   S190      1.0  0.19912  0.90374  0.48330  1.0000
  Fe  Fe95      1.0  0.44448  0.74636  0.72109  1.0000
  H   H575      1.0  0.32353  0.98021  0.88976  1.0000
  C   C573      1.0  0.18051  0.89418  0.48326  1.0000
  H   H576      1.0  0.13553  0.78735  0.48264  1.0000
  C   C574      1.0  0.39012  0.98940  0.77818  1.0000
  H   H577      1.0  0.32326  0.74100  0.67701  1.0000
  C   C575      1.0  0.30816  0.74167  0.63909  1.0000
  N   N49       1.0  0.23279  0.74523  0.52478  1.0000
  C   C576      1.0  0.35161  0.74223  0.71547  1.0000
  C   C577      1.0  0.37393  0.74263  0.73286  1.0000
  S   S191      1.0  0.09888  0.74302  0.56797  1.0000
  Fe  Fe96      1.0  0.96716  0.12715  0.32439  1.0000
  S   S192      1.0  0.93907  0.12136  0.33157  1.0000
  S   S193      1.0  0.76472  0.21836  0.06073  1.0000
  S   S194      1.0  0.95074  0.09731  0.29977  1.0000
  Fe  Fe97      1.0  0.94057  0.12617  0.30212  1.0000
  S   S195      1.0  0.91668  0.14296  0.29111  1.0000
  Fe  Fe98      1.0  0.95205  0.09307  0.32868  1.0000
  S   S196      1.0  0.94302  0.06798  0.34503  1.0000
  S   S197      1.0  0.96791  0.13401  0.29502  1.0000
  Fe  Fe99      1.0  0.89717  0.21395  0.17779  1.0000
  S   S198      1.0  0.90475  0.18656  0.17051  1.0000
  H   H578      1.0  0.91573  0.10485  0.26155  1.0000
  Fe  Fe100     1.0  0.87530  0.18569  0.17797  1.0000
  Fe  Fe101     1.0  0.90539  0.17761  0.19944  1.0000
  S   S199      1.0  0.92960  0.15854  0.20765  1.0000
  S   S200      1.0  0.89941  0.20510  0.20645  1.0000
  Fe  Fe102     1.0  0.76789  0.22448  0.12288  1.0000
  H   H579      1.0  0.87154  0.20581  0.14351  1.0000
  C   C578      1.0  0.95648  0.23370  0.24587  1.0000
  S   S201      1.0  0.83320  0.22730  0.09830  1.0000
  H   H580      1.0  0.94029  0.16938  0.16072  1.0000
  H   H581      1.0  0.91010  0.23181  0.23668  1.0000
  S   S202      1.0  0.75421  0.21414  0.15022  1.0000
  C   C579      1.0  0.90618  0.16541  0.33027  1.0000
  N   N50       1.0  0.96016  0.18207  0.14191  1.0000
  H   H582      1.0  0.99511  0.14712  0.16564  1.0000
  H   H583      1.0  0.58260  0.19762  0.09180  1.0000
  H   H584      1.0  0.88427  0.16724  0.30806  1.0000
  C   C580      1.0  0.95807  0.09669  0.23807  1.0000
  C   C581      1.0  0.93685  0.11306  0.21921  1.0000
  N   N51       1.0  0.92317  0.11304  0.23359  1.0000
  Fe  Fe103     1.0  0.87043  0.20246  0.21036  1.0000
  S   S203      1.0  0.97624  0.14426  0.33931  1.0000
  C   C582      1.0  0.94755  0.19031  0.23218  1.0000
  C   C583      1.0  0.57395  0.23265  0.98107  1.0000
  C   C584      1.0  0.89391  0.19645  0.32883  1.0000
  S   S204      1.0  0.85946  0.17360  0.16420  1.0000
  S   S205      1.0  0.51855  0.18060  0.00541  1.0000
  Fe  Fe104     1.0  0.56567  0.18938  0.01092  1.0000
  S   S206      1.0  0.53933  0.20340  0.02398  1.0000
  S   S207      1.0  0.59206  0.19641  0.01485  1.0000
  Fe  Fe105     1.0  0.53093  0.17647  0.02973  1.0000
  S   S208      1.0  0.52057  0.16421  0.05755  1.0000
  Fe  Fe106     1.0  0.53030  0.20586  0.99804  1.0000
  H   H585      1.0  0.94667  0.09002  0.26569  1.0000
  S   S209      1.0  0.55767  0.16192  0.01786  1.0000
  H   H586      1.0  0.93924  0.19854  0.31143  1.0000
  C   C585      1.0  0.70527  0.22669  0.10281  1.0000
  S   S210      1.0  0.61363  0.23272  0.07251  1.0000
  C   C586      1.0  0.98047  0.21457  0.22943  1.0000
  H   H587      1.0  0.89747  0.12796  0.24281  1.0000
  H   H588      1.0  0.55958  0.16479  0.05611  1.0000
  H   H589      1.0  0.86130  0.22667  0.11740  1.0000
  C   C587      1.0  0.98417  0.04039  0.32850  1.0000
  N   N52       1.0  0.89599  0.18069  0.32269  1.0000
  C   C588      1.0  0.80325  0.23758  0.18176  1.0000
  H   H590      1.0  0.90062  0.20973  0.34761  1.0000
  N   N53       1.0  0.58286  0.17163  0.06193  1.0000
  S   S211      1.0  0.87659  0.17379  0.20640  1.0000
  Fe  Fe107     1.0  0.54569  0.16778  0.99273  1.0000
  C   C589      1.0  0.60755  0.22520  0.05469  1.0000
  C   C590      1.0  0.62049  0.21822  0.04120  1.0000
  C   C591      1.0  0.61543  0.20989  0.02899  1.0000
  C   C592      1.0  0.59733  0.20848  0.02984  1.0000
  C   C593      1.0  0.58426  0.21605  0.04290  1.0000
  C   C594      1.0  0.58937  0.22418  0.05527  1.0000
  C   C595      1.0  0.51143  0.12708  0.01403  1.0000
  H   H591      1.0  0.62573  0.20422  0.01896  1.0000
  H   H592      1.0  0.57026  0.21519  0.04385  1.0000
  H   H593      1.0  0.95620  0.20453  0.20624  1.0000
  H   H594      1.0  0.89723  0.11122  0.22981  1.0000
  H   H595      1.0  0.76219  0.17368  0.10205  1.0000
  H   H596      1.0  0.60751  0.16770  0.04356  1.0000
  H   H597      1.0  0.95842  0.17889  0.23098  1.0000
  H   H598      1.0  0.58516  0.22153  0.98234  1.0000
  Fe  Fe108     1.0  0.97808  0.10449  0.29550  1.0000
  C   C596      1.0  0.95455  0.10511  0.22127  1.0000
  H   H599      1.0  0.95172  0.20836  0.12797  1.0000
  H   H600      1.0  0.54952  0.19873  0.09523  1.0000
  H   H601      1.0  0.98583  0.12493  0.25872  1.0000
  C   C597      1.0  0.92652  0.10474  0.25011  1.0000
  H   H602      1.0  0.98272  0.19229  0.12514  1.0000
  C   C598      1.0  0.91433  0.16558  0.34457  1.0000
  C   C599      1.0  0.55890  0.19093  0.08605  1.0000
  H   H603      1.0  0.96238  0.14738  0.17641  1.0000
  C   C600      1.0  0.94768  0.20273  0.33456  1.0000
  C   C601      1.0  0.94676  0.19258  0.32201  1.0000
  C   C602      1.0  0.94237  0.21171  0.17106  1.0000
  N   N54       1.0  0.81296  0.22850  0.19466  1.0000
  C   C603      1.0  0.95754  0.19490  0.34815  1.0000
  C   C604      1.0  0.95529  0.17446  0.32344  1.0000
  H   H604      1.0  0.97170  0.09051  0.23988  1.0000
  H   H605      1.0  0.63455  0.21867  0.04055  1.0000
  H   H606      1.0  0.96553  0.10576  0.20999  1.0000
  H   H607      1.0  0.92268  0.15353  0.35035  1.0000
  H   H608      1.0  0.83189  0.17393  0.14471  1.0000
  C   C605      1.0  0.83816  0.18555  0.13889  1.0000
  H   H609      1.0  0.93319  0.20359  0.17980  1.0000
  C   C606      1.0  0.95545  0.05672  0.36174  1.0000
  C   C607      1.0  0.95320  0.03922  0.36996  1.0000
  C   C608      1.0  0.96384  0.02948  0.38249  1.0000
  C   C609      1.0  0.97659  0.03732  0.38702  1.0000
  C   C610      1.0  0.97854  0.05497  0.37913  1.0000
  C   C611      1.0  0.96810  0.06462  0.36639  1.0000
  H   H610      1.0  0.94333  0.03313  0.36651  1.0000
  H   H611      1.0  0.96200  0.01600  0.38882  1.0000
  C   C612      1.0  0.86051  0.20351  0.13825  1.0000
  H   H612      1.0  0.96971  0.07820  0.36032  1.0000
  C   C613      1.0  0.92087  0.14791  0.26795  1.0000
  C   C614      1.0  0.93769  0.14169  0.25825  1.0000
  C   C615      1.0  0.94062  0.14550  0.23964  1.0000
  C   C616      1.0  0.92671  0.15541  0.23080  1.0000
  C   C617      1.0  0.91009  0.16201  0.24055  1.0000
  C   C618      1.0  0.90716  0.15823  0.25911  1.0000
  H   H613      1.0  0.94838  0.13381  0.26504  1.0000
  H   H614      1.0  0.95355  0.14056  0.23211  1.0000
  H   H615      1.0  0.89933  0.16978  0.23384  1.0000
  H   H616      1.0  0.89419  0.16317  0.26659  1.0000
  H   H617      1.0  0.98867  0.21177  0.21695  1.0000
  H   H618      1.0  0.93425  0.11980  0.20615  1.0000
  C   C619      1.0  0.90469  0.12144  0.23127  1.0000
  H   H619      1.0  0.70989  0.23918  0.10340  1.0000
  S   S212      1.0  0.55722  0.19348  0.98419  1.0000
  N   N55       1.0  0.72041  0.21158  0.10281  1.0000
  N   N56       1.0  0.93303  0.21966  0.22002  1.0000
  C   C620      1.0  0.72909  0.20650  0.11708  1.0000
  C   C621      1.0  0.74111  0.18911  0.08808  1.0000
  C   C622      1.0  0.75312  0.23168  0.16148  1.0000
  C   C623      1.0  0.75020  0.18402  0.10245  1.0000
  C   C624      1.0  0.83904  0.21486  0.26594  1.0000
  C   C625      1.0  0.96640  0.23213  0.14808  1.0000
  C   C626      1.0  0.97310  0.21599  0.15841  1.0000
  C   C627      1.0  0.85472  0.21529  0.12348  1.0000
  H   H620      1.0  0.94457  0.19026  0.12135  1.0000
  C   C628      1.0  0.96506  0.16668  0.33718  1.0000
  C   C629      1.0  0.81859  0.20174  0.18191  1.0000
  H   H621      1.0  0.91156  0.20604  0.26156  1.0000
  H   H622      1.0  0.89836  0.18274  0.29492  1.0000
  S   S213      1.0  0.98021  0.09832  0.32428  1.0000
  H   H623      1.0  0.95832  0.20266  0.35788  1.0000
  C   C630      1.0  0.56473  0.17197  0.06390  1.0000
  C   C631      1.0  0.94400  0.09642  0.25258  1.0000
  C   C632      1.0  0.58929  0.18036  0.07210  1.0000
  H   H624      1.0  0.98827  0.06113  0.38274  1.0000
  H   H625      1.0  0.75118  0.18893  0.12832  1.0000
  C   C633      1.0  0.95449  0.16950  0.15598  1.0000
  C   C634      1.0  0.72612  0.20297  0.08849  1.0000
  H   H626      1.0  0.93641  0.17986  0.25903  1.0000
  C   C635      1.0  0.85235  0.18853  0.14583  1.0000
  S   S214      1.0  0.99651  0.20825  0.15568  1.0000
  H   H627      1.0  0.95437  0.16658  0.31389  1.0000
  H   H628      1.0  0.95087  0.22453  0.27408  1.0000
  C   C636      1.0  0.55248  0.18171  0.07588  1.0000
  C   C637      1.0  0.80854  0.21083  0.16883  1.0000
  C   C638      1.0  0.74408  0.19263  0.11714  1.0000
  H   H629      1.0  0.74610  0.18295  0.07633  1.0000
  C   C639      1.0  0.98532  0.15682  0.15887  1.0000
  C   C640      1.0  0.83199  0.19766  0.12450  1.0000
  C   C641      1.0  0.93569  0.22791  0.16076  1.0000
  C   C642      1.0  0.87179  0.22499  0.26577  1.0000
  C   C643      1.0  0.94696  0.19529  0.13277  1.0000
  C   C644      1.0  0.93518  0.19086  0.24795  1.0000
  H   H630      1.0  0.57917  0.22948  0.06559  1.0000
  C   C645      1.0  0.98207  0.20209  0.24504  1.0000
  C   C646      1.0  0.95892  0.22173  0.26160  1.0000
  H   H631      1.0  0.75167  0.21733  0.02963  1.0000
  H   H632      1.0  0.53809  0.18210  0.07718  1.0000
  C   C647      1.0  0.99335  0.12308  0.23095  1.0000
  H   H633      1.0  0.96601  0.19310  0.17749  1.0000
  S   S215      1.0  0.98909  0.17223  0.19942  1.0000
  H   H634      1.0  0.90456  0.13225  0.21938  1.0000
  C   C648      1.0  0.92134  0.20563  0.24942  1.0000
  C   C649      1.0  0.74497  0.22990  0.05282  1.0000
  C   C650      1.0  0.97164  0.20587  0.26118  1.0000
  C   C651      1.0  0.57742  0.19019  0.08425  1.0000
  S   S216      1.0  0.86213  0.23014  0.30049  1.0000
  C   C652      1.0  0.96695  0.15687  0.16483  1.0000
  H   H635      1.0  0.97303  0.19633  0.27330  1.0000
  H   H636      1.0  0.59997  0.14736  0.05637  1.0000
  C   C653      1.0  0.88825  0.18043  0.30721  1.0000
  H   H637      1.0  0.87597  0.19090  0.30614  1.0000
  H   H638      1.0  0.90815  0.15301  0.32518  1.0000
  Fe  Fe109     1.0  0.77171  0.22746  0.08342  1.0000
  S   S217      1.0  0.93594  0.22486  0.33443  1.0000
  H   H639      1.0  0.75704  0.21467  0.18645  1.0000
  H   H640      1.0  0.60364  0.18030  0.07041  1.0000
  H   H641      1.0  0.81271  0.22947  0.22164  1.0000
  H   H642      1.0  0.82106  0.19528  0.11916  1.0000
  C   C654      1.0  0.96103  0.20582  0.16993  1.0000
  C   C655      1.0  0.59554  0.16118  0.04948  1.0000
  H   H643      1.0  0.97053  0.03858  0.32878  1.0000
  C   C656      1.0  0.84231  0.21929  0.28125  1.0000
  S   S218      1.0  0.51573  0.23170  0.98463  1.0000
  H   H644      1.0  0.58929  0.16050  0.03814  1.0000
  C   C657      1.0  0.91214  0.18155  0.35099  1.0000
  H   H645      1.0  0.71950  0.20719  0.07699  1.0000
  H   H646      1.0  0.72477  0.21350  0.12833  1.0000
  H   H647      1.0  0.82477  0.18774  0.18203  1.0000
  H   H648      1.0  0.88616  0.20865  0.32263  1.0000
  H   H649      1.0  0.91887  0.18200  0.36170  1.0000
  S   S219      1.0  0.91513  0.22507  0.29082  1.0000
  C   C658      1.0  0.90191  0.19712  0.34307  1.0000
  H   H650      1.0  0.56732  0.23330  0.00908  1.0000
  H   H651      1.0  0.80668  0.20390  0.15883  1.0000
  C   C659      1.0  0.96634  0.17701  0.34935  1.0000
  S   S220      1.0  0.78660  0.20827  0.10359  1.0000
  C   C660      1.0  0.84042  0.21240  0.11664  1.0000
  C   C661      1.0  0.92048  0.22004  0.23525  1.0000
  H   H652      1.0  0.98763  0.13695  0.22662  1.0000
  C   C662      1.0  0.93221  0.23526  0.20565  1.0000
  C   C663      1.0  0.99233  0.11628  0.24914  1.0000
  H   H653      1.0  0.79285  0.23596  0.15868  1.0000
  H   H654      1.0  0.82630  0.21107  0.26604  1.0000
  C   C664      1.0  0.75574  0.22827  0.17910  1.0000
  C   C665      1.0  0.86865  0.22016  0.25049  1.0000
  S   S221      1.0  0.84722  0.20992  0.23166  1.0000
  C   C666      1.0  0.85219  0.21519  0.25058  1.0000
  H   H655      1.0  0.69446  0.22403  0.11439  1.0000
  S   S222      1.0  0.99063  0.02504  0.40200  1.0000
  H   H656      1.0  0.97394  0.17107  0.35993  1.0000
  H   H657      1.0  0.52572  0.12761  0.01000  1.0000
  C   C667      1.0  0.85861  0.22443  0.28117  1.0000
  C   C668      1.0  0.97817  0.18208  0.13599  1.0000
  H   H658      1.0  0.98771  0.02067  0.35184  1.0000
  S   S223      1.0  0.86739  0.21425  0.18222  1.0000
  C   C669      1.0  0.94617  0.20484  0.21820  1.0000
  H   H659      1.0  0.82876  0.20374  0.20479  1.0000
  H   H660      1.0  0.93391  0.19822  0.14185  1.0000
  H   H661      1.0  0.83209  0.21888  0.29311  1.0000
  C   C670      1.0  0.99100  0.16949  0.14437  1.0000
  C   C671      1.0  0.80087  0.22887  0.16868  1.0000
  C   C672      1.0  0.82076  0.21086  0.19475  1.0000
  H   H662      1.0  0.87872  0.22068  0.23855  1.0000
  Fe  Fe110     1.0  0.80365  0.22953  0.09919  1.0000
  C   C673      1.0  0.74186  0.22660  0.03694  1.0000
  C   C674      1.0  0.96771  0.23046  0.22988  1.0000
  H   H663      1.0  0.98434  0.06130  0.30545  1.0000
  H   H664      1.0  0.70351  0.23140  0.16264  1.0000
  H   H665      1.0  0.88427  0.22926  0.26563  1.0000
  C   C675      1.0  0.81552  0.23774  0.20823  1.0000
  H   H666      1.0  0.99257  0.17483  0.30556  1.0000
  H   H667      1.0  0.51029  0.11511  0.99204  1.0000
  C   C676      1.0  0.99186  0.05324  0.31552  1.0000
  S   S224      1.0  0.99609  0.18120  0.24444  1.0000
  Fe  Fe111     1.0  0.92093  0.23739  0.31204  1.0000
  C   C677      1.0  0.99390  0.03040  0.34159  1.0000
  S   S225      1.0  0.91240  0.23513  0.16154  1.0000
  H   H668      1.0  0.50844  0.13856  0.03758  1.0000
  H   H669      1.0  0.94494  0.23482  0.19579  1.0000
  H   H670      1.0  0.92095  0.23580  0.19864  1.0000
  H   H671      1.0  0.72383  0.23279  0.01803  1.0000
  C   C678      1.0  0.72612  0.23533  0.03038  1.0000
  C   C679      1.0  0.94775  0.23815  0.14936  1.0000
  C   C680      1.0  0.50258  0.12022  0.00377  1.0000
  C   C681      1.0  0.50174  0.13327  0.02943  1.0000
  C   C682      1.0  0.56392  0.23927  0.99610  1.0000
  H   H672      1.0  0.96611  0.23989  0.21774  1.0000
  H   H673      1.0  0.97566  0.24002  0.13907  1.0000
  H   H674      1.0  0.82971  0.23987  0.20580  1.0000
  H   H675      1.0  0.69923  0.22932  0.09063  1.0000
  H   H676      1.0  0.76068  0.23960  0.20020  1.0000
  Fe  Fe112     1.0  0.99813  0.99570  0.40032  1.0000
  H   H677      1.0  0.49958  0.15092  0.09019  1.0000
  H   H678      1.0  0.55224  0.11922  0.91204  1.0000
  C   C683      1.0  0.53430  0.21676  0.93667  1.0000
  C   C684      1.0  0.51505  0.11641  0.95077  1.0000
  C   C685      1.0  0.51598  0.14286  0.96330  1.0000
  H   H679      1.0  0.57671  0.23478  0.95276  1.0000
  S   S226      1.0  0.53356  0.23281  0.90232  1.0000
  H   H680      1.0  0.55115  0.14614  0.92485  1.0000
  C   C686      1.0  0.54071  0.13003  0.91160  1.0000
  C   C687      1.0  0.53995  0.14525  0.91892  1.0000
  C   C688      1.0  0.52615  0.12853  0.90439  1.0000
  H   H681      1.0  0.54000  0.20444  0.93158  1.0000
  C   C689      1.0  0.53245  0.10932  0.95435  1.0000
  C   C690      1.0  0.52129  0.23216  0.96166  1.0000
  C   C691      1.0  0.52454  0.17444  0.92673  1.0000
  C   C692      1.0  0.51077  0.15722  0.91195  1.0000
  H   H682      1.0  0.53908  0.09632  0.95104  1.0000
  C   C693      1.0  0.51113  0.14225  0.90443  1.0000
  N   N57       1.0  0.52500  0.15849  0.91922  1.0000
  C   C694      1.0  0.52906  0.21633  0.95499  1.0000
  C   C695      1.0  0.54168  0.11885  0.96179  1.0000
  C   C696      1.0  0.56928  0.24015  0.96447  1.0000
  H   H683      1.0  0.51069  0.17936  0.93346  1.0000
  H   H684      1.0  0.53048  0.20360  0.96386  1.0000
  H   H685      1.0  0.53331  0.17142  0.93696  1.0000
  H   H686      1.0  0.52626  0.11653  0.89925  1.0000
  H   H687      1.0  0.55524  0.11301  0.96407  1.0000
  C   C697      1.0  0.53369  0.13564  0.96644  1.0000
  H   H688      1.0  0.50950  0.15583  0.96673  1.0000
  C   C698      1.0  0.50675  0.13335  0.95533  1.0000
  H   H689      1.0  0.52905  0.18531  0.91603  1.0000
  Fe  Fe113     1.0  0.50572  0.23010  0.90099  1.0000
  S   S227      1.0  0.50518  0.10308  0.94050  1.0000
  C   C699      1.0  0.53143  0.23298  0.92495  1.0000
  S   S228      1.0  0.54716  0.14646  0.97556  1.0000
  H   H690      1.0  0.49970  0.14114  0.89898  1.0000
  H   H691      1.0  0.49889  0.16765  0.91219  1.0000
  H   H692      1.0  0.89510  0.46127  0.26515  1.0000
  C   C700      1.0  0.88849  0.43501  0.26788  1.0000
  C   C701      1.0  0.67937  0.30459  0.02141  1.0000
  C   C702      1.0  0.76779  0.49049  0.43804  1.0000
  H   H693      1.0  0.89439  0.40156  0.30298  1.0000
  H   H694      1.0  0.88295  0.43815  0.25572  1.0000
  Fe  Fe114     1.0  0.92145  0.25066  0.27297  1.0000
  S   S229      1.0  0.80140  0.45484  0.36390  1.0000
  H   H695      1.0  0.93487  0.32087  0.32012  1.0000
  S   S230      1.0  0.75152  0.24177  0.10326  1.0000
  H   H696      1.0  0.85260  0.29134  0.32812  1.0000
  S   S231      1.0  0.69345  0.25752  0.03157  1.0000
  C   C703      1.0  0.79701  0.47099  0.30035  1.0000
  H   H697      1.0  0.75137  0.39323  0.44613  1.0000
  H   H698      1.0  0.97840  0.48871  0.38173  1.0000
  Fe  Fe115     1.0  0.77167  0.25992  0.09881  1.0000
  Fe  Fe116     1.0  0.66984  0.26279  0.05327  1.0000
  S   S232      1.0  0.76506  0.28980  0.09552  1.0000
  H   H699      1.0  0.67405  0.29162  0.17576  1.0000
  H   H700      1.0  0.90582  0.44083  0.38059  1.0000
  H   H701      1.0  0.63629  0.36494  0.99858  1.0000
  H   H702      1.0  0.84637  0.26748  0.28554  1.0000
  H   H703      1.0  0.74878  0.47475  0.32759  1.0000
  C   C704      1.0  0.62885  0.43485  0.00712  1.0000
  S   S233      1.0  0.66683  0.28481  0.06870  1.0000
  Fe  Fe117     1.0  0.63768  0.28957  0.06629  1.0000
  S   S234      1.0  0.61974  0.31645  0.06107  1.0000
  Fe  Fe118     1.0  0.71080  0.34928  0.03515  1.0000
  S   S235      1.0  0.70263  0.36198  0.05954  1.0000
  S   S236      1.0  0.71666  0.31958  0.03683  1.0000
  Fe  Fe119     1.0  0.70600  0.38468  0.00988  1.0000
  S   S237      1.0  0.69786  0.40064  0.03193  1.0000
  C   C705      1.0  0.79434  0.46680  0.45423  1.0000
  Fe  Fe120     1.0  0.72020  0.38156  0.04395  1.0000
  S   S238      1.0  0.73962  0.39211  0.05500  1.0000
  Fe  Fe121     1.0  0.68128  0.37953  0.04527  1.0000
  S   S239      1.0  0.65223  0.38564  0.05744  1.0000
  S   S240      1.0  0.73008  0.36748  0.02044  1.0000
  S   S241      1.0  0.68786  0.36485  0.02238  1.0000
  Fe  Fe122     1.0  0.75191  0.30472  0.17289  1.0000
  S   S242      1.0  0.72543  0.31839  0.18631  1.0000
  S   S243      1.0  0.76280  0.27664  0.18556  1.0000
  Fe  Fe123     1.0  0.75598  0.33704  0.14408  1.0000
  S   S244      1.0  0.72951  0.35269  0.15509  1.0000
  S   S245      1.0  0.77478  0.34938  0.12111  1.0000
  Fe  Fe124     1.0  0.73907  0.34264  0.18150  1.0000
  S   S246      1.0  0.73768  0.36095  0.20175  1.0000
  Fe  Fe125     1.0  0.71916  0.32660  0.15848  1.0000
  S   S247      1.0  0.69333  0.32320  0.15015  1.0000
  S   S248      1.0  0.76588  0.32807  0.17000  1.0000
  S   S249      1.0  0.74518  0.31210  0.14545  1.0000
  Fe  Fe126     1.0  0.80025  0.40207  0.25092  1.0000
  S   S250      1.0  0.78267  0.39452  0.27712  1.0000
  S   S251      1.0  0.79941  0.38913  0.22702  1.0000
  Fe  Fe127     1.0  0.81826  0.42663  0.26736  1.0000
  S   S252      1.0  0.80123  0.42051  0.29392  1.0000
  S   S253      1.0  0.83689  0.44710  0.26469  1.0000
  Fe  Fe128     1.0  0.80729  0.39222  0.28889  1.0000
  S   S254      1.0  0.81541  0.37043  0.31103  1.0000
  Fe  Fe129     1.0  0.77866  0.42364  0.27914  1.0000
  S   S255      1.0  0.75115  0.43932  0.28727  1.0000
  S   S256      1.0  0.82565  0.39781  0.26282  1.0000
  S   S257      1.0  0.79495  0.43173  0.25237  1.0000
  Fe  Fe130     1.0  0.74481  0.43118  0.38578  1.0000
  S   S258      1.0  0.74123  0.42094  0.41506  1.0000
  S   S259      1.0  0.72403  0.43049  0.36996  1.0000
  Fe  Fe131     1.0  0.78043  0.44222  0.38419  1.0000
  S   S260      1.0  0.78044  0.43291  0.41324  1.0000
  C   C706      1.0  0.86121  0.48309  0.27756  1.0000
  Fe  Fe132     1.0  0.77053  0.40897  0.40952  1.0000
  S   S261      1.0  0.78085  0.38026  0.42027  1.0000
  Fe  Fe133     1.0  0.75126  0.44563  0.41649  1.0000
  S   S262      1.0  0.73813  0.46262  0.43727  1.0000
  S   S263      1.0  0.77335  0.41701  0.38007  1.0000
  S   S264      1.0  0.75203  0.45714  0.38761  1.0000
  H   H704      1.0  0.97249  0.39452  0.37494  1.0000
  H   H705      1.0  0.68927  0.33358  0.99967  1.0000
  C   C707      1.0  0.83224  0.46793  0.36037  1.0000
  H   H706      1.0  0.89601  0.38086  0.43687  1.0000
  H   H707      1.0  0.70859  0.26788  0.12314  1.0000
  Fe  Fe134     1.0  0.89498  0.34011  0.38232  1.0000
  S   S265      1.0  0.91014  0.35771  0.36033  1.0000
  S   S266      1.0  0.89651  0.31112  0.38124  1.0000
  Fe  Fe135     1.0  0.87835  0.36975  0.40331  1.0000
  S   S267      1.0  0.89161  0.39027  0.38319  1.0000
  S   S268      1.0  0.86055  0.37899  0.42747  1.0000
  Fe  Fe136     1.0  0.88443  0.37761  0.36304  1.0000
  S   S269      1.0  0.87573  0.39507  0.33852  1.0000
  Fe  Fe137     1.0  0.91619  0.36878  0.38213  1.0000
  S   S270      1.0  0.94366  0.37469  0.38105  1.0000
  S   S271      1.0  0.86856  0.35914  0.38331  1.0000
  S   S272      1.0  0.90359  0.34917  0.40414  1.0000
  C   C708      1.0  0.93384  0.42433  0.35202  1.0000
  C   C709      1.0  0.93267  0.40650  0.35986  1.0000
  C   C710      1.0  0.94643  0.39583  0.36845  1.0000
  C   C711      1.0  0.74586  0.45564  0.45753  1.0000
  H   H708      1.0  0.92310  0.43253  0.34565  1.0000
  H   H709      1.0  0.92109  0.40107  0.35932  1.0000
  C   C712      1.0  0.80243  0.37837  0.42497  1.0000
  C   C713      1.0  0.80669  0.39214  0.43149  1.0000
  C   C714      1.0  0.82449  0.39178  0.43310  1.0000
  C   C715      1.0  0.83808  0.37774  0.42802  1.0000
  C   C716      1.0  0.83369  0.36346  0.42239  1.0000
  C   C717      1.0  0.81578  0.36368  0.42106  1.0000
  H   H710      1.0  0.79629  0.40309  0.43528  1.0000
  H   H711      1.0  0.82784  0.40270  0.43769  1.0000
  H   H712      1.0  0.84413  0.35239  0.41881  1.0000
  H   H713      1.0  0.81248  0.35289  0.41622  1.0000
  C   C718      1.0  0.77693  0.47269  0.32841  1.0000
  H   H714      1.0  0.94187  0.26348  0.32642  1.0000
  H   H715      1.0  0.74515  0.32564  0.00568  1.0000
  C   C719      1.0  0.84911  0.46470  0.38406  1.0000
  C   C720      1.0  0.83619  0.45575  0.39583  1.0000
  C   C721      1.0  0.82132  0.45287  0.38982  1.0000
  C   C722      1.0  0.81928  0.45904  0.37210  1.0000
  H   H716      1.0  0.83780  0.45087  0.40950  1.0000
  H   H717      1.0  0.81172  0.44557  0.39881  1.0000
  H   H718      1.0  0.72632  0.47557  0.47015  1.0000
  C   C723      1.0  0.83332  0.37610  0.31792  1.0000
  C   C724      1.0  0.83986  0.36607  0.33302  1.0000
  C   C725      1.0  0.85334  0.37147  0.33916  1.0000
  C   C726      1.0  0.86004  0.38704  0.33039  1.0000
  C   C727      1.0  0.85372  0.39681  0.31511  1.0000
  C   C728      1.0  0.84055  0.39126  0.30877  1.0000
  H   H719      1.0  0.83445  0.35423  0.34007  1.0000
  H   H720      1.0  0.85842  0.36360  0.35070  1.0000
  H   H721      1.0  0.85880  0.40885  0.30828  1.0000
  H   H722      1.0  0.83590  0.39889  0.29690  1.0000
  C   C729      1.0  0.74386  0.43760  0.31024  1.0000
  C   C730      1.0  0.75625  0.43304  0.32184  1.0000
  C   C731      1.0  0.75022  0.43175  0.34015  1.0000
  C   C732      1.0  0.73176  0.43429  0.34700  1.0000
  C   C733      1.0  0.71934  0.43880  0.33542  1.0000
  C   C734      1.0  0.72539  0.44078  0.31703  1.0000
  H   H723      1.0  0.77048  0.43091  0.31676  1.0000
  H   H724      1.0  0.75988  0.42836  0.34893  1.0000
  S   S273      1.0  0.91319  0.48533  0.36858  1.0000
  H   H725      1.0  0.71574  0.44436  0.30810  1.0000
  C   C735      1.0  0.78216  0.37972  0.22182  1.0000
  C   C736      1.0  0.78687  0.36839  0.20896  1.0000
  C   C737      1.0  0.77359  0.36207  0.20309  1.0000
  C   C738      1.0  0.75525  0.36712  0.20984  1.0000
  C   C739      1.0  0.75056  0.37830  0.22281  1.0000
  C   C740      1.0  0.76385  0.38448  0.22881  1.0000
  H   H726      1.0  0.80093  0.36461  0.20335  1.0000
  H   H727      1.0  0.77755  0.35354  0.19311  1.0000
  H   H728      1.0  0.73647  0.38238  0.22817  1.0000
  H   H729      1.0  0.75986  0.39329  0.23856  1.0000
  H   H730      1.0  0.93574  0.28826  0.37154  1.0000
  H   H731      1.0  0.83086  0.47263  0.34660  1.0000
  C   C741      1.0  0.85270  0.47396  0.26895  1.0000
  H   H732      1.0  0.95053  0.24619  0.35522  1.0000
  C   C742      1.0  0.66928  0.39823  0.98895  1.0000
  C   C743      1.0  0.65201  0.40202  0.98466  1.0000
  C   C744      1.0  0.67940  0.25160  0.16233  1.0000
  C   C745      1.0  0.93666  0.30772  0.32842  1.0000
  H   H733      1.0  0.67081  0.39364  0.00258  1.0000
  H   H734      1.0  0.64050  0.39981  0.99498  1.0000
  C   C746      1.0  0.74911  0.37939  0.07326  1.0000
  C   C747      1.0  0.74269  0.36414  0.08356  1.0000
  C   C748      1.0  0.75030  0.35491  0.09853  1.0000
  C   C749      1.0  0.76459  0.36071  0.10285  1.0000
  C   C750      1.0  0.77127  0.37559  0.09226  1.0000
  C   C751      1.0  0.76340  0.38503  0.07768  1.0000
  H   H735      1.0  0.73188  0.35955  0.08001  1.0000
  H   H736      1.0  0.74545  0.34310  0.10645  1.0000
  H   H737      1.0  0.78239  0.38004  0.09544  1.0000
  H   H738      1.0  0.76845  0.39675  0.06974  1.0000
  C   C752      1.0  0.68109  0.28100  0.12199  1.0000
  C   C753      1.0  0.70272  0.29250  0.13387  1.0000
  C   C754      1.0  0.68952  0.30714  0.13843  1.0000
  C   C755      1.0  0.67228  0.30878  0.13429  1.0000
  C   C756      1.0  0.66814  0.29596  0.12602  1.0000
  H   H739      1.0  0.71610  0.29095  0.13683  1.0000
  H   H740      1.0  0.66190  0.31995  0.13774  1.0000
  H   H741      1.0  0.65464  0.29729  0.12341  1.0000
  C   C757      1.0  0.62894  0.33541  0.06067  1.0000
  C   C758      1.0  0.61745  0.35189  0.06213  1.0000
  C   C759      1.0  0.62457  0.36731  0.06141  1.0000
  C   C760      1.0  0.64322  0.36634  0.05884  1.0000
  C   C761      1.0  0.65471  0.34989  0.05717  1.0000
  C   C762      1.0  0.64758  0.33442  0.05827  1.0000
  H   H742      1.0  0.60301  0.35270  0.06393  1.0000
  H   H743      1.0  0.61563  0.37999  0.06268  1.0000
  H   H744      1.0  0.66911  0.34895  0.05543  1.0000
  H   H745      1.0  0.65654  0.32186  0.05688  1.0000
  H   H746      1.0  0.70620  0.25936  0.06328  1.0000
  H   H747      1.0  0.65977  0.41983  0.03435  1.0000
  C   C763      1.0  0.75389  0.26314  0.15964  1.0000
  C   C764      1.0  0.75747  0.25971  0.17688  1.0000
  H   H748      1.0  0.77678  0.37660  0.46112  1.0000
  C   C765      1.0  0.75162  0.39489  0.45948  1.0000
  C   C766      1.0  0.76919  0.26684  0.03378  1.0000
  H   H749      1.0  0.75391  0.27625  0.15170  1.0000
  S   S274      1.0  0.66401  0.24157  0.07695  1.0000
  S   S275      1.0  0.87695  0.48838  0.30373  1.0000
  C   C767      1.0  0.75197  0.29797  0.07893  1.0000
  C   C768      1.0  0.74882  0.31635  0.07220  1.0000
  C   C769      1.0  0.73815  0.32298  0.05905  1.0000
  C   C770      1.0  0.73038  0.31125  0.05286  1.0000
  C   C771      1.0  0.73369  0.29287  0.05943  1.0000
  C   C772      1.0  0.74465  0.28621  0.07232  1.0000
  H   H750      1.0  0.75468  0.32546  0.07709  1.0000
  H   H751      1.0  0.73602  0.33717  0.05372  1.0000
  H   H752      1.0  0.72773  0.28380  0.05462  1.0000
  H   H753      1.0  0.74730  0.27200  0.07718  1.0000
  C   C773      1.0  0.91684  0.39300  0.41831  1.0000
  H   H754      1.0  0.71338  0.34964  0.12007  1.0000
  H   H755      1.0  0.67234  0.29285  0.02545  1.0000
  C   C774      1.0  0.73780  0.40651  0.46826  1.0000
  C   C775      1.0  0.63600  0.42670  0.02240  1.0000
  N   N58       1.0  0.93959  0.27408  0.34996  1.0000
  H   H756      1.0  0.88267  0.40812  0.27482  1.0000
  H   H757      1.0  0.63456  0.44788  0.98000  1.0000
  H   H758      1.0  0.92694  0.38083  0.41906  1.0000
  H   H759      1.0  0.66842  0.36099  0.10699  1.0000
  C   C776      1.0  0.89508  0.29182  0.35638  1.0000
  C   C777      1.0  0.89274  0.30895  0.36059  1.0000
  C   C778      1.0  0.88902  0.32414  0.34772  1.0000
  C   C779      1.0  0.88846  0.32217  0.33046  1.0000
  C   C780      1.0  0.93732  0.28917  0.35729  1.0000
  H   H760      1.0  0.88691  0.33741  0.35095  1.0000
  C   C781      1.0  0.90681  0.42403  0.31715  1.0000
  H   H761      1.0  0.92665  0.25210  0.36281  1.0000
  H   H762      1.0  0.85969  0.45545  0.31750  1.0000
  C   C782      1.0  0.70547  0.25432  0.17330  1.0000
  H   H763      1.0  0.91853  0.43054  0.31644  1.0000
  H   H764      1.0  0.80311  0.45699  0.42933  1.0000
  N   N59       1.0  0.65805  0.44099  0.99205  1.0000
  C   C783      1.0  0.76017  0.44131  0.45970  1.0000
  H   H765      1.0  0.90651  0.45216  0.39827  1.0000
  C   C784      1.0  0.90129  0.44411  0.28944  1.0000
  C   C785      1.0  0.88825  0.41819  0.27864  1.0000
  H   H766      1.0  0.97491  0.42588  0.36034  1.0000
  Fe  Fe138     1.0  0.90050  0.27431  0.29936  1.0000
  H   H767      1.0  0.69838  0.29215  0.19015  1.0000
  H   H768      1.0  0.75414  0.47436  0.29536  1.0000
  N   N60       1.0  0.77720  0.39956  0.17319  1.0000
  C   C786      1.0  0.78879  0.39072  0.16068  1.0000
  C   C787      1.0  0.75905  0.39976  0.17566  1.0000
  C   C788      1.0  0.78229  0.38165  0.15035  1.0000
  C   C789      1.0  0.75212  0.39080  0.16559  1.0000
  C   C790      1.0  0.76383  0.38177  0.15282  1.0000
  C   C791      1.0  0.78424  0.40955  0.18337  1.0000
  H   H769      1.0  0.80317  0.39055  0.15873  1.0000
  H   H770      1.0  0.74985  0.40639  0.18584  1.0000
  H   H771      1.0  0.79143  0.37446  0.14051  1.0000
  H   H772      1.0  0.73780  0.39044  0.16804  1.0000
  H   H773      1.0  0.75866  0.37477  0.14491  1.0000
  H   H774      1.0  0.79726  0.40200  0.18714  1.0000
  H   H775      1.0  0.78627  0.42288  0.17546  1.0000
  H   H776      1.0  0.77493  0.41153  0.19605  1.0000
  C   C792      1.0  0.93598  0.30619  0.34661  1.0000
  H   H777      1.0  0.79912  0.46431  0.26845  1.0000
  H   H778      1.0  0.79340  0.28372  0.15119  1.0000
  C   C793      1.0  0.77491  0.29711  0.02895  1.0000
  H   H779      1.0  0.78234  0.30652  0.03136  1.0000
  Fe  Fe139     1.0  0.92260  0.47143  0.34506  1.0000
  H   H780      1.0  0.51694  0.27056  0.98183  1.0000
  C   C794      1.0  0.54936  0.25345  0.99431  1.0000
  C   C795      1.0  0.78563  0.47201  0.27313  1.0000
  C   C796      1.0  0.65415  0.42621  0.02251  1.0000
  S   S276      1.0  0.89303  0.26570  0.27670  1.0000
  Fe  Fe140     1.0  0.63500  0.24987  0.07247  1.0000
  C   C797      1.0  0.93985  0.25637  0.36130  1.0000
  C   C798      1.0  0.94896  0.43142  0.35233  1.0000
  C   C799      1.0  0.84567  0.31127  0.28706  1.0000
  H   H781      1.0  0.93350  0.31813  0.35261  1.0000
  C   C800      1.0  0.75804  0.32201  0.01087  1.0000
  C   C801      1.0  0.88660  0.40865  0.42669  1.0000
  H   H782      1.0  0.71896  0.24875  0.17590  1.0000
  H   H783      1.0  0.91092  0.40940  0.32185  1.0000
  N   N61       1.0  0.75060  0.38835  0.33455  1.0000
  C   C802      1.0  0.76862  0.38136  0.33269  1.0000
  C   C803      1.0  0.74078  0.39073  0.35090  1.0000
  C   C804      1.0  0.77735  0.37685  0.34740  1.0000
  C   C805      1.0  0.74910  0.38654  0.36585  1.0000
  C   C806      1.0  0.76749  0.37949  0.36408  1.0000
  C   C807      1.0  0.74175  0.39261  0.31897  1.0000
  H   H784      1.0  0.77637  0.37924  0.31976  1.0000
  H   H785      1.0  0.72650  0.39642  0.35244  1.0000
  H   H786      1.0  0.79166  0.37130  0.34580  1.0000
  H   H787      1.0  0.74132  0.38907  0.37867  1.0000
  H   H788      1.0  0.77405  0.37615  0.37563  1.0000
  H   H789      1.0  0.75012  0.39973  0.30737  1.0000
  H   H790      1.0  0.73961  0.38009  0.31557  1.0000
  H   H791      1.0  0.72853  0.40171  0.32128  1.0000
  N   N62       1.0  0.82577  0.41451  0.35256  1.0000
  C   C808      1.0  0.83853  0.42445  0.35236  1.0000
  C   C809      1.0  0.82197  0.40127  0.36665  1.0000
  C   C810      1.0  0.84787  0.42119  0.36654  1.0000
  C   C811      1.0  0.83104  0.39768  0.38100  1.0000
  C   C812      1.0  0.84399  0.40777  0.38100  1.0000
  C   C813      1.0  0.81522  0.41878  0.33822  1.0000
  H   H792      1.0  0.84137  0.43514  0.34135  1.0000
  H   H793      1.0  0.81182  0.39342  0.36692  1.0000
  H   H794      1.0  0.85791  0.42916  0.36636  1.0000
  H   H795      1.0  0.82802  0.38717  0.39205  1.0000
  H   H796      1.0  0.85094  0.40519  0.39221  1.0000
  N   N63       1.0  0.84818  0.30945  0.30417  1.0000
  H   H797      1.0  0.81196  0.40641  0.33553  1.0000
  H   H798      1.0  0.80250  0.42811  0.34195  1.0000
  H   H799      1.0  0.85113  0.47923  0.25531  1.0000
  C   C814      1.0  0.76552  0.47357  0.30178  1.0000
  H   H800      1.0  0.85174  0.32221  0.32473  1.0000
  H   H801      1.0  0.62764  0.42051  0.03410  1.0000
  H   H802      1.0  0.85928  0.33270  0.30255  1.0000
  C   C815      1.0  0.69844  0.27943  0.12595  1.0000
  H   H803      1.0  0.93017  0.24786  0.21108  1.0000
  H   H804      1.0  0.74910  0.25205  0.13855  1.0000
  H   H805      1.0  0.81057  0.47008  0.29272  1.0000
  H   H806      1.0  0.69133  0.30095  0.01125  1.0000
  H   H807      1.0  0.68409  0.30676  0.03313  1.0000
  C   C816      1.0  0.64502  0.35248  0.00292  1.0000
  H   H808      1.0  0.93900  0.29337  0.30701  1.0000
  C   C817      1.0  0.79341  0.29958  0.12495  1.0000
  C   C818      1.0  0.79914  0.28452  0.13718  1.0000
  H   H809      1.0  0.94252  0.25646  0.37467  1.0000
  H   H810      1.0  0.78347  0.31049  0.12967  1.0000
  H   H811      1.0  0.54137  0.25828  0.00609  1.0000
  H   H812      1.0  0.72696  0.41407  0.46140  1.0000
  C   C819      1.0  0.96312  0.42050  0.36017  1.0000
  H   H813      1.0  0.79704  0.25156  0.18166  1.0000
  N   N64       1.0  0.76160  0.30298  0.01892  1.0000
  C   C820      1.0  0.93896  0.29227  0.32107  1.0000
  C   C821      1.0  0.89526  0.44799  0.27318  1.0000
  H   H814      1.0  0.76663  0.43429  0.44889  1.0000
  H   H815      1.0  0.84433  0.32442  0.27869  1.0000
  H   H816      1.0  0.90563  0.45463  0.29388  1.0000
  H   H817      1.0  0.81697  0.25885  0.14037  1.0000
  C   C822      1.0  0.75558  0.27295  0.02360  1.0000
  N   N65       1.0  0.69472  0.34494  0.10568  1.0000
  C   C823      1.0  0.70598  0.33016  0.10014  1.0000
  C   C824      1.0  0.67727  0.34911  0.10290  1.0000
  C   C825      1.0  0.69968  0.31888  0.09196  1.0000
  C   C826      1.0  0.67054  0.33809  0.09482  1.0000
  C   C827      1.0  0.68188  0.32295  0.08922  1.0000
  C   C828      1.0  0.70144  0.35681  0.11408  1.0000
  H   H818      1.0  0.71983  0.32681  0.10230  1.0000
  H   H819      1.0  0.70846  0.30690  0.08805  1.0000
  H   H820      1.0  0.65659  0.34127  0.09295  1.0000
  H   H821      1.0  0.67682  0.31424  0.08300  1.0000
  H   H822      1.0  0.69104  0.36150  0.12514  1.0000
  H   H823      1.0  0.70512  0.36858  0.10412  1.0000
  H   H824      1.0  0.71657  0.27336  0.19191  1.0000
  H   H825      1.0  0.76916  0.32519  0.99979  1.0000
  H   H826      1.0  0.77548  0.46563  0.26970  1.0000
  C   C829      1.0  0.63772  0.33833  0.01427  1.0000
  H   H827      1.0  0.87303  0.40871  0.43420  1.0000
  C   C830      1.0  0.89954  0.39302  0.42825  1.0000
  C   C831      1.0  0.91209  0.43982  0.39236  1.0000
  N   N66       1.0  0.66747  0.32082  0.01447  1.0000
  C   C832      1.0  0.67476  0.33468  0.00349  1.0000
  C   C833      1.0  0.64920  0.32245  0.01982  1.0000
  C   C834      1.0  0.66365  0.35062  0.99734  1.0000
  H   H828      1.0  0.62329  0.33967  0.01908  1.0000
  C   C835      1.0  0.85011  0.29286  0.31472  1.0000
  H   H829      1.0  0.85102  0.26439  0.31649  1.0000
  N   N67       1.0  0.78204  0.47854  0.46355  1.0000
  H   H830      1.0  0.64341  0.31158  0.02877  1.0000
  H   H831      1.0  0.67265  0.24441  0.15597  1.0000
  H   H832      1.0  0.82947  0.26107  0.10825  1.0000
  C   C836      1.0  0.89168  0.30502  0.32604  1.0000
  H   H833      1.0  0.78936  0.27442  0.04458  1.0000
  H   H834      1.0  0.93441  0.40851  0.39925  1.0000
  C   C837      1.0  0.89478  0.28987  0.33908  1.0000
  H   H835      1.0  0.88074  0.43587  0.41334  1.0000
  C   C838      1.0  0.89479  0.41462  0.29462  1.0000
  C   C839      1.0  0.84861  0.32553  0.31108  1.0000
  H   H836      1.0  0.88597  0.33397  0.32046  1.0000
  N   N68       1.0  0.90807  0.42385  0.40524  1.0000
  S   S277      1.0  0.64152  0.26990  0.04792  1.0000
  H   H837      1.0  0.83539  0.33470  0.31131  1.0000
  C   C840      1.0  0.67102  0.26847  0.16636  1.0000
  N   N69       1.0  0.90116  0.42753  0.29983  1.0000
  H   H838      1.0  0.84316  0.29770  0.26646  1.0000
  C   C841      1.0  0.81932  0.27185  0.11307  1.0000
  H   H839      1.0  0.84392  0.43944  0.30224  1.0000
  H   H840      1.0  0.82284  0.42518  0.32566  1.0000
  C   C842      1.0  0.81228  0.27063  0.13115  1.0000
  C   C843      1.0  0.92093  0.40868  0.40691  1.0000
  H   H841      1.0  0.74106  0.29585  0.00866  1.0000
  C   C844      1.0  0.84714  0.47069  0.36632  1.0000
  C   C845      1.0  0.84860  0.45166  0.29538  1.0000
  N   N70       1.0  0.80018  0.30054  0.10721  1.0000
  N   N71       1.0  0.78269  0.47186  0.29228  1.0000
  S   S278      1.0  0.67514  0.26263  0.11518  1.0000
  H   H842      1.0  0.80636  0.25094  0.20843  1.0000
  N   N72       1.0  0.69729  0.27098  0.17691  1.0000
  C   C846      1.0  0.94045  0.27545  0.33211  1.0000
  S   S279      1.0  0.94996  0.45407  0.34366  1.0000
  C   C847      1.0  0.89104  0.42396  0.41488  1.0000
  H   H843      1.0  0.89789  0.28007  0.36633  1.0000
  S   S280      1.0  0.86797  0.46793  0.39134  1.0000
  C   C848      1.0  0.64010  0.44214  0.99201  1.0000
  C   C849      1.0  0.84640  0.45812  0.27758  1.0000
  C   C850      1.0  0.85756  0.46076  0.30404  1.0000
  C   C851      1.0  0.81302  0.28695  0.10120  1.0000
  H   H844      1.0  0.79615  0.31377  0.08108  1.0000
  S   S281      1.0  0.70573  0.39772  0.98143  1.0000
  C   C852      1.0  0.79352  0.46649  0.43661  1.0000
  C   C853      1.0  0.79415  0.31662  0.09475  1.0000
  H   H845      1.0  0.77945  0.32143  0.09860  1.0000
  Fe  Fe141     1.0  0.65949  0.26435  0.09254  1.0000
  H   H846      1.0  0.96463  0.47451  0.36337  1.0000
  S   S282      1.0  0.62973  0.27023  0.09101  1.0000
  S   S283      1.0  0.89632  0.46304  0.34608  1.0000
  H   H847      1.0  0.81841  0.28765  0.08715  1.0000
  H   H848      1.0  0.80141  0.32754  0.09482  1.0000
  C   C854      1.0  0.77893  0.27898  0.03649  1.0000
  C   C855      1.0  0.86410  0.47654  0.29501  1.0000
  H   H849      1.0  0.74765  0.26370  0.02174  1.0000
  C   C856      1.0  0.70749  0.28182  0.18289  1.0000
  H   H850      1.0  0.92683  0.43935  0.38781  1.0000
  C   C857      1.0  0.96179  0.40276  0.36836  1.0000
  C   C858      1.0  0.84936  0.27757  0.30820  1.0000
  S   S284      1.0  0.89222  0.30278  0.30409  1.0000
  C   C859      1.0  0.75152  0.24923  0.15204  1.0000
  C   C860      1.0  0.84496  0.29624  0.28009  1.0000
  S   S285      1.0  0.92953  0.26164  0.29373  1.0000
  C   C861      1.0  0.84675  0.27931  0.29079  1.0000
  H   H851      1.0  0.89752  0.27664  0.33581  1.0000
  H   H852      1.0  0.66949  0.36159  0.98863  1.0000
  C   C862      1.0  0.75197  0.29117  0.01618  1.0000
  C   C863      1.0  0.76238  0.47388  0.32000  1.0000
  C   C864      1.0  0.78006  0.47833  0.42854  1.0000
  H   H853      1.0  0.77205  0.25277  0.03973  1.0000
  H   H854      1.0  0.89542  0.42928  0.32713  1.0000
  H   H855      1.0  0.71583  0.28880  0.17118  1.0000
  C   C865      1.0  0.68027  0.27810  0.17358  1.0000
  C   C866      1.0  0.71314  0.24698  0.03995  1.0000
  H   H856      1.0  0.70503  0.44079  0.34066  1.0000
  S   S286      1.0  0.89240  0.25093  0.31940  1.0000
  Fe  Fe142     1.0  0.88616  0.47974  0.36748  1.0000
  H   H857      1.0  0.80471  0.45744  0.46051  1.0000
  S   S287      1.0  0.79052  0.24720  0.07727  1.0000
  H   H858      1.0  0.77467  0.47288  0.34255  1.0000
  H   H859      1.0  0.85704  0.47753  0.35709  1.0000
  H   H860      1.0  0.77895  0.47793  0.41504  1.0000
  S   S288      1.0  0.93831  0.25168  0.24586  1.0000
  C   C867      1.0  0.73747  0.46452  0.47176  1.0000
  H   H861      1.0  0.65780  0.27442  0.16309  1.0000
  H   H862      1.0  0.94267  0.25067  0.14134  1.0000
  C   C868      1.0  0.71613  0.25021  0.05593  1.0000
  C   C869      1.0  0.76587  0.38547  0.46797  1.0000
  H   H863      1.0  0.53039  0.28623  0.98402  1.0000
  C   C870      1.0  0.66506  0.43350  0.00714  1.0000
  C   C871      1.0  0.76600  0.43582  0.47608  1.0000
  H   H864      1.0  0.75672  0.33061  0.02097  1.0000
  Fe  Fe143     1.0  0.88972  0.48886  0.32769  1.0000
  H   H865      1.0  0.78470  0.48603  0.26584  1.0000
  C   C872      1.0  0.73222  0.24194  0.06217  1.0000
  H   H866      1.0  0.67929  0.43257  0.00716  1.0000
  C   C873      1.0  0.96611  0.48852  0.35950  1.0000
  C   C874      1.0  0.75794  0.24233  0.18681  1.0000
  H   H867      1.0  0.73456  0.24472  0.07430  1.0000
  C   C875      1.0  0.79437  0.47130  0.31855  1.0000
  Fe  Fe144     1.0  0.88743  0.24115  0.29635  1.0000
  S   S289      1.0  0.78633  0.24400  0.12026  1.0000
  H   H868      1.0  0.80574  0.47056  0.32498  1.0000
  H   H869      1.0  0.61484  0.43501  0.00671  1.0000
  C   C876      1.0  0.69672  0.24440  0.16590  1.0000
  C   C877      1.0  0.76908  0.49052  0.45559  1.0000
  H   H870      1.0  0.77705  0.42468  0.47772  1.0000
  Fe  Fe145     1.0  0.77459  0.46591  0.55773  1.0000
  H   H871      1.0  0.53974  0.36204  0.83699  1.0000
  S   S290      1.0  0.79012  0.45303  0.57962  1.0000
  Fe  Fe146     1.0  0.76002  0.45694  0.52818  1.0000
  N   N73       1.0  0.79487  0.47427  0.62961  1.0000
  S   S291      1.0  0.76318  0.43575  0.51140  1.0000
  H   H872      1.0  0.56678  0.39252  0.87082  1.0000
  H   H873      1.0  0.71920  0.43311  0.48474  1.0000
  N   N74       1.0  0.53497  0.40813  0.84487  1.0000
  H   H874      1.0  0.51195  0.41207  0.83240  1.0000
  S   S292      1.0  0.78494  0.46721  0.52853  1.0000
  S   S293      1.0  0.75124  0.45304  0.55772  1.0000
  H   H875      1.0  0.57264  0.46274  0.84834  1.0000
  H   H876      1.0  0.67878  0.47190  0.58571  1.0000
  S   S294      1.0  0.51885  0.32756  0.89897  1.0000
  Fe  Fe147     1.0  0.71503  0.45603  0.66054  1.0000
  S   S295      1.0  0.72231  0.46751  0.68155  1.0000
  S   S296      1.0  0.73440  0.43335  0.64936  1.0000
  Fe  Fe148     1.0  0.69368  0.46667  0.69499  1.0000
  S   S297      1.0  0.68475  0.46108  0.72457  1.0000
  C   C878      1.0  0.68384  0.46286  0.59690  1.0000
  H   H877      1.0  0.70315  0.43187  0.63645  1.0000
  S   S298      1.0  0.68718  0.45278  0.67529  1.0000
  H   H878      1.0  0.51756  0.39017  0.84503  1.0000
  C   C879      1.0  0.54616  0.43260  0.85066  1.0000
  C   C880      1.0  0.57050  0.37275  0.92926  1.0000
  Fe  Fe149     1.0  0.64351  0.43753  0.89677  1.0000
  S   S299      1.0  0.66777  0.42869  0.87720  1.0000
  C   C881      1.0  0.68734  0.40306  0.81035  1.0000
  Fe  Fe150     1.0  0.62883  0.39609  0.78320  1.0000
  S   S300      1.0  0.63731  0.40884  0.80249  1.0000
  S   S301      1.0  0.64553  0.39464  0.75610  1.0000
  Fe  Fe151     1.0  0.59470  0.38792  0.80863  1.0000
  S   S302      1.0  0.60023  0.40045  0.82984  1.0000
  S   S303      1.0  0.56861  0.37760  0.81410  1.0000
  Fe  Fe152     1.0  0.60839  0.42204  0.80738  1.0000
  H   H879      1.0  0.59548  0.40426  0.92850  1.0000
  Fe  Fe153     1.0  0.62847  0.38600  0.82268  1.0000
  S   S304      1.0  0.64657  0.37181  0.84199  1.0000
  S   S305      1.0  0.60039  0.41088  0.78662  1.0000
  S   S306      1.0  0.62251  0.37176  0.80308  1.0000
  N   N75       1.0  0.61233  0.36766  0.89171  1.0000
  H   H880      1.0  0.77714  0.38048  0.49186  1.0000
  C   C882      1.0  0.60788  0.35347  0.90445  1.0000
  H   H881      1.0  0.50083  0.44428  0.87424  1.0000
  S   S307      1.0  0.49923  0.31096  0.94975  1.0000
  C   C883      1.0  0.50872  0.39933  0.88939  1.0000
  C   C884      1.0  0.60940  0.36913  0.87480  1.0000
  C   C885      1.0  0.54021  0.29411  0.85542  1.0000
  C   C886      1.0  0.62089  0.38111  0.89579  1.0000
  S   S308      1.0  0.56781  0.30893  0.87385  1.0000
  C   C887      1.0  0.56862  0.35728  0.82916  1.0000
  C   C888      1.0  0.70022  0.45097  0.59421  1.0000
  C   C889      1.0  0.61329  0.44331  0.74493  1.0000
  C   C890      1.0  0.58472  0.34554  0.83186  1.0000
  C   C891      1.0  0.51217  0.43190  0.89765  1.0000
  C   C892      1.0  0.68176  0.40845  0.95833  1.0000
  H   H882      1.0  0.59738  0.34845  0.82396  1.0000
  C   C893      1.0  0.76602  0.38759  0.48520  1.0000
  H   H883      1.0  0.78333  0.45097  0.63260  1.0000
  C   C894      1.0  0.66210  0.41311  0.86699  1.0000
  C   C895      1.0  0.67344  0.39652  0.86587  1.0000
  C   C896      1.0  0.66845  0.38368  0.85851  1.0000
  C   C897      1.0  0.65246  0.38771  0.85163  1.0000
  C   C898      1.0  0.64130  0.40447  0.85237  1.0000
  C   C899      1.0  0.64593  0.41700  0.86041  1.0000
  H   H884      1.0  0.68584  0.39343  0.87115  1.0000
  H   H885      1.0  0.67706  0.37070  0.85804  1.0000
  H   H886      1.0  0.62897  0.40770  0.84702  1.0000
  H   H887      1.0  0.63713  0.42978  0.86131  1.0000
  C   C900      1.0  0.67405  0.44249  0.73295  1.0000
  C   C901      1.0  0.66289  0.44172  0.74958  1.0000
  C   C902      1.0  0.65364  0.42736  0.75642  1.0000
  C   C903      1.0  0.65595  0.41338  0.74695  1.0000
  C   C904      1.0  0.66720  0.41409  0.73031  1.0000
  C   C905      1.0  0.67617  0.42871  0.72324  1.0000
  H   H888      1.0  0.66116  0.45242  0.75709  1.0000
  H   H889      1.0  0.64462  0.42728  0.76895  1.0000
  H   H890      1.0  0.66911  0.40325  0.72295  1.0000
  H   H891      1.0  0.68500  0.42910  0.71049  1.0000
  H   H892      1.0  0.72855  0.41999  0.61742  1.0000
  C   C906      1.0  0.69781  0.44050  0.62523  1.0000
  S   S309      1.0  0.52063  0.35079  0.92928  1.0000
  C   C907      1.0  0.52579  0.30693  0.84996  1.0000
  C   C908      1.0  0.58443  0.32995  0.84486  1.0000
  H   H893      1.0  0.76280  0.45615  0.66056  1.0000
  H   H894      1.0  0.59404  0.44825  0.84815  1.0000
  H   H895      1.0  0.75226  0.40101  0.50697  1.0000
  C   C909      1.0  0.74311  0.45884  0.48823  1.0000
  H   H896      1.0  0.78743  0.46488  0.48905  1.0000
  H   H897      1.0  0.55373  0.29480  0.84804  1.0000
  H   H898      1.0  0.54587  0.44690  0.84894  1.0000
  H   H899      1.0  0.59649  0.32925  0.91062  1.0000
  C   C910      1.0  0.77448  0.44770  0.59884  1.0000
  C   C911      1.0  0.75876  0.46000  0.60318  1.0000
  C   C912      1.0  0.74656  0.45591  0.61890  1.0000
  C   C913      1.0  0.74977  0.43928  0.63002  1.0000
  C   C914      1.0  0.76523  0.42678  0.62536  1.0000
  C   C915      1.0  0.77771  0.43109  0.60995  1.0000
  H   H900      1.0  0.55006  0.37628  0.91346  1.0000
  H   H901      1.0  0.73451  0.46548  0.62209  1.0000
  H   H902      1.0  0.76769  0.41382  0.63380  1.0000
  H   H903      1.0  0.78976  0.42148  0.60652  1.0000
  H   H904      1.0  0.56572  0.27234  0.87012  1.0000
  N   N76       1.0  0.63191  0.46330  0.72562  1.0000
  C   C916      1.0  0.55204  0.33813  0.85270  1.0000
  C   C917      1.0  0.77209  0.48036  0.66130  1.0000
  C   C918      1.0  0.57901  0.45981  0.80866  1.0000
  H   H905      1.0  0.61624  0.47686  0.76541  1.0000
  Fe  Fe154     1.0  0.52215  0.35540  0.89987  1.0000
  C   C919      1.0  0.56012  0.38221  0.91658  1.0000
  C   C920      1.0  0.53481  0.42617  0.84270  1.0000
  C   C921      1.0  0.60040  0.34024  0.90035  1.0000
  C   C922      1.0  0.66435  0.41277  0.95411  1.0000
  C   C923      1.0  0.72424  0.42777  0.60491  1.0000
  Fe  Fe155     1.0  0.51005  0.47593  0.88152  1.0000
  C   C924      1.0  0.52336  0.24877  0.93158  1.0000
  H   H906      1.0  0.61293  0.38038  0.86476  1.0000
  C   C925      1.0  0.54636  0.39613  0.85476  1.0000
  C   C926      1.0  0.68140  0.45227  0.62837  1.0000
  H   H907      1.0  0.67417  0.45285  0.64178  1.0000
  N   N77       1.0  0.73811  0.40861  0.48511  1.0000
  C   C927      1.0  0.51587  0.39939  0.90433  1.0000
  Fe  Fe156     1.0  0.73658  0.48138  0.55314  1.0000
  C   C928      1.0  0.55478  0.25445  0.96312  1.0000
  C   C929      1.0  0.54697  0.45495  0.92811  1.0000
  H   H908      1.0  0.73597  0.46519  0.49936  1.0000
  H   H909      1.0  0.55285  0.25493  0.87144  1.0000
  H   H910      1.0  0.69221  0.42099  0.76640  1.0000
  C   C930      1.0  0.59774  0.34144  0.88304  1.0000
  C   C931      1.0  0.56288  0.39932  0.90773  1.0000
  N   N78       1.0  0.68010  0.38368  0.79359  1.0000
  C   C932      1.0  0.68399  0.39549  0.77824  1.0000
  C   C933      1.0  0.68229  0.38701  0.80942  1.0000
  C   C934      1.0  0.67426  0.36703  0.79298  1.0000
  H   H911      1.0  0.68271  0.39262  0.76562  1.0000
  H   H912      1.0  0.67992  0.37732  0.82147  1.0000
  H   H913      1.0  0.66600  0.36917  0.78240  1.0000
  H   H914      1.0  0.68617  0.35640  0.79034  1.0000
  H   H915      1.0  0.66562  0.36230  0.80571  1.0000
  C   C935      1.0  0.78365  0.46246  0.63823  1.0000
  S   S310      1.0  0.74278  0.48410  0.52357  1.0000
  H   H916      1.0  0.63523  0.37967  0.88911  1.0000
  H   H917      1.0  0.66246  0.41865  0.94068  1.0000
  H   H918      1.0  0.51812  0.26977  0.89074  1.0000
  C   C936      1.0  0.56812  0.32651  0.85559  1.0000
  C   C937      1.0  0.58295  0.38088  0.93392  1.0000
  Fe  Fe157     1.0  0.60431  0.43431  0.90645  1.0000
  C   C938      1.0  0.75186  0.39916  0.49370  1.0000
  H   H919      1.0  0.56645  0.42530  0.86730  1.0000
  H   H920      1.0  0.59691  0.32099  0.84705  1.0000
  C   C939      1.0  0.51816  0.24837  0.94992  1.0000
  C   C940      1.0  0.62902  0.47362  0.73852  1.0000
  C   C941      1.0  0.68421  0.40142  0.97584  1.0000
  S   S311      1.0  0.60196  0.45144  0.80870  1.0000
  H   H921      1.0  0.71155  0.41380  0.49959  1.0000
  S   S312      1.0  0.61878  0.45477  0.88787  1.0000
  Fe  Fe158     1.0  0.62597  0.43120  0.93527  1.0000
  H   H922      1.0  0.52356  0.48160  0.91425  1.0000
  C   C942      1.0  0.58545  0.46008  0.85350  1.0000
  S   S313      1.0  0.58144  0.42689  0.89808  1.0000
  H   H923      1.0  0.72312  0.41811  0.59671  1.0000
  H   H924      1.0  0.70769  0.45090  0.58079  1.0000
  H   H925      1.0  0.52818  0.31736  0.83850  1.0000
  H   H926      1.0  0.61383  0.39488  0.89114  1.0000
  H   H927      1.0  0.53941  0.33564  0.86103  1.0000
  H   H928      1.0  0.51156  0.26057  0.95492  1.0000
  H   H929      1.0  0.63597  0.48620  0.84208  1.0000
  N   N79       1.0  0.70703  0.44003  0.60828  1.0000
  H   H930      1.0  0.52290  0.41559  0.92021  1.0000
  H   H931      1.0  0.55487  0.40654  0.89789  1.0000
  N   N80       1.0  0.53742  0.28122  0.87014  1.0000
  C   C943      1.0  0.54926  0.45559  0.80674  1.0000
  H   H932      1.0  0.60982  0.35242  0.91799  1.0000
  H   H933      1.0  0.73501  0.43552  0.59775  1.0000
  H   H934      1.0  0.69327  0.41096  0.94811  1.0000
  H   H935      1.0  0.52575  0.43575  0.83494  1.0000
  S   S314      1.0  0.55220  0.34957  0.89423  1.0000
  H   H936      1.0  0.76266  0.48315  0.67325  1.0000
  H   H937      1.0  0.52935  0.28248  0.96250  1.0000
  H   H938      1.0  0.62080  0.45999  0.84734  1.0000
  H   H939      1.0  0.53380  0.45064  0.93401  1.0000
  H   H940      1.0  0.52059  0.26115  0.92250  1.0000
  H   H941      1.0  0.55115  0.26009  0.95020  1.0000
  H   H942      1.0  0.75612  0.47278  0.59450  1.0000
  H   H943      1.0  0.69468  0.42798  0.79533  1.0000
  H   H944      1.0  0.59077  0.37372  0.94401  1.0000
  C   C944      1.0  0.67447  0.46357  0.61410  1.0000
  H   H945      1.0  0.54638  0.38186  0.85660  1.0000
  S   S315      1.0  0.62926  0.41571  0.91332  1.0000
  C   C945      1.0  0.50295  0.41561  0.87875  1.0000
  H   H946      1.0  0.58041  0.48553  0.81414  1.0000
  S   S316      1.0  0.64241  0.45173  0.91936  1.0000
  C   C946      1.0  0.52973  0.27579  0.97649  1.0000
  H   H947      1.0  0.54062  0.44727  0.80449  1.0000
  C   C947      1.0  0.60216  0.35603  0.87017  1.0000
  H   H948      1.0  0.62048  0.37973  0.91028  1.0000
  C   C948      1.0  0.55224  0.35318  0.83918  1.0000
  C   C949      1.0  0.50839  0.30630  0.85948  1.0000
  Fe  Fe159     1.0  0.61601  0.46694  0.91197  1.0000
  H   H949      1.0  0.60015  0.35714  0.85666  1.0000
  C   C950      1.0  0.53285  0.48625  0.92013  1.0000
  C   C951      1.0  0.55775  0.42047  0.86084  1.0000
  H   H950      1.0  0.57325  0.43575  0.80300  1.0000
  C   C952      1.0  0.80536  0.47203  0.61199  1.0000
  C   C953      1.0  0.56779  0.44912  0.80575  1.0000
  Fe  Fe160     1.0  0.54902  0.32126  0.89575  1.0000
  H   H951      1.0  0.58250  0.45670  0.86822  1.0000
  S   S317      1.0  0.59948  0.44777  0.92994  1.0000
  C   C954      1.0  0.61031  0.45372  0.75817  1.0000
  H   H952      1.0  0.68843  0.40587  0.82307  1.0000
  H   H953      1.0  0.58240  0.47840  0.89886  1.0000
  H   H954      1.0  0.62664  0.44000  0.71851  1.0000
  C   C955      1.0  0.57170  0.47706  0.81236  1.0000
  Fe  Fe161     1.0  0.55051  0.34214  0.92368  1.0000
  C   C956      1.0  0.55792  0.40209  0.86286  1.0000
  C   C957      1.0  0.68937  0.41155  0.77861  1.0000
  H   H955      1.0  0.59207  0.33117  0.87969  1.0000
  C   C958      1.0  0.51736  0.41565  0.90860  1.0000
  C   C959      1.0  0.58569  0.39810  0.92506  1.0000
  H   H956      1.0  0.80979  0.45761  0.61085  1.0000
  C   C960      1.0  0.57610  0.40699  0.91148  1.0000
  C   C961      1.0  0.62144  0.48819  0.84313  1.0000
  H   H957      1.0  0.55064  0.45235  0.91422  1.0000
  S   S318      1.0  0.54980  0.31313  0.92489  1.0000
  S   S319      1.0  0.56886  0.35031  0.93800  1.0000
  C   C962      1.0  0.69081  0.41544  0.79482  1.0000
  H   H958      1.0  0.60755  0.43117  0.74740  1.0000
  C   C963      1.0  0.62414  0.44835  0.72862  1.0000
  C   C964      1.0  0.72330  0.42066  0.49413  1.0000
  H   H959      1.0  0.55137  0.26533  0.89040  1.0000
  C   C965      1.0  0.55262  0.26780  0.87572  1.0000
  Fe  Fe162     1.0  0.51984  0.32237  0.92811  1.0000
  S   S320      1.0  0.62741  0.41747  0.96331  1.0000
  S   S321      1.0  0.51839  0.47868  0.81663  1.0000
  C   C966      1.0  0.61826  0.46893  0.75501  1.0000
  H   H960      1.0  0.66196  0.47305  0.61638  1.0000
  C   C967      1.0  0.64287  0.46854  0.70826  1.0000
  C   C968      1.0  0.75728  0.44437  0.49046  1.0000
  H   H961      1.0  0.50645  0.29099  0.92115  1.0000
  C   C969      1.0  0.54180  0.47230  0.81172  1.0000
  C   C970      1.0  0.50561  0.29285  0.87423  1.0000
  H   H962      1.0  0.55737  0.44636  0.93556  1.0000
  H   H963      1.0  0.65148  0.45653  0.70328  1.0000
  C   C971      1.0  0.77208  0.46531  0.65415  1.0000
  H   H964      1.0  0.79692  0.47844  0.60167  1.0000
  H   H965      1.0  0.68365  0.44010  0.97495  1.0000
  H   H966      1.0  0.51998  0.38696  0.91280  1.0000
  C   C972      1.0  0.52037  0.28030  0.87937  1.0000
  C   C973      1.0  0.52340  0.40147  0.83605  1.0000
  H   H967      1.0  0.60205  0.44992  0.77095  1.0000
  C   C974      1.0  0.64945  0.40982  0.96739  1.0000
  Fe  Fe163     1.0  0.67885  0.48067  0.66095  1.0000
  N   N81       1.0  0.59442  0.47576  0.84818  1.0000
  C   C975      1.0  0.55736  0.47992  0.93567  1.0000
  S   S322      1.0  0.51473  0.45203  0.90296  1.0000
  H   H968      1.0  0.72742  0.42499  0.50514  1.0000
  C   C976      1.0  0.61278  0.47340  0.84617  1.0000
  N   N82       1.0  0.54562  0.47413  0.92819  1.0000
  Fe  Fe164     1.0  0.51254  0.48926  0.84210  1.0000
  H   H969      1.0  0.56743  0.47042  0.94216  1.0000
  H   H970      1.0  0.66481  0.44755  0.96382  1.0000
  C   C977      1.0  0.50497  0.43185  0.88270  1.0000
  H   H971      1.0  0.81751  0.47841  0.60895  1.0000
  H   H972      1.0  0.53148  0.39671  0.82383  1.0000
  H   H973      1.0  0.76994  0.48410  0.48946  1.0000
  S   S323      1.0  0.53315  0.48195  0.85989  1.0000
  S   S324      1.0  0.50677  0.37903  0.88402  1.0000
  S   S325      1.0  0.70592  0.48260  0.64427  1.0000
  H   H974      1.0  0.63408  0.47576  0.69851  1.0000
  H   H975      1.0  0.65220  0.47736  0.70908  1.0000
  C   C978      1.0  0.55303  0.48310  0.81443  1.0000
  C   C979      1.0  0.78322  0.47869  0.48194  1.0000
  H   H976      1.0  0.63538  0.48532  0.73624  1.0000
  H   H977      1.0  0.55716  0.49056  0.88211  1.0000
  C   C980      1.0  0.79513  0.48897  0.63663  1.0000
  H   H978      1.0  0.79295  0.48728  0.48228  1.0000
  C   C981      1.0  0.66979  0.44820  0.97597  1.0000
  S   S326      1.0  0.71028  0.48921  0.57054  1.0000
  S   S327      1.0  0.65535  0.49051  0.64681  1.0000
  N   N83       1.0  0.54513  0.26101  0.97793  1.0000
  H   H979      1.0  0.67043  0.46235  0.97613  1.0000
  H   H980      1.0  0.95519  0.64505  0.37554  1.0000
  C   C982      1.0  0.90213  0.70984  0.43947  1.0000
  C   C983      1.0  0.90188  0.72384  0.46491  1.0000
  Fe  Fe165     1.0  0.90647  0.51009  0.34883  1.0000
  C   C984      1.0  0.90201  0.58608  0.39086  1.0000
  S   S328      1.0  0.91549  0.53623  0.35046  1.0000
  C   C985      1.0  0.90256  0.56822  0.39922  1.0000
  H   H981      1.0  0.96730  0.69694  0.35242  1.0000
  H   H982      1.0  0.96432  0.67598  0.38991  1.0000
  H   H983      1.0  0.94649  0.69206  0.38084  1.0000
  N   N84       1.0  0.96174  0.51649  0.33930  1.0000
  H   H984      1.0  0.90991  0.54849  0.42143  1.0000
  H   H985      1.0  0.95418  0.49245  0.33630  1.0000
  H   H986      1.0  0.90307  0.69599  0.41797  1.0000
  H   H987      1.0  0.98073  0.68666  0.32402  1.0000
  Fe  Fe166     1.0  0.96817  0.58104  0.40469  1.0000
  S   S329      1.0  0.96282  0.60459  0.38325  1.0000
  S   S330      1.0  0.95936  0.55452  0.40388  1.0000
  Fe  Fe167     1.0  0.98187  0.60441  0.42615  1.0000
  S   S331      1.0  0.97627  0.62923  0.40613  1.0000
  Fe  Fe168     1.0  0.95111  0.61996  0.40538  1.0000
  H   H988      1.0  0.93552  0.56209  0.43688  1.0000
  H   H989      1.0  0.98026  0.73222  0.46505  1.0000
  Fe  Fe169     1.0  0.99512  0.71780  0.36673  1.0000
  S   S332      1.0  0.95508  0.59635  0.42709  1.0000
  C   C986      1.0  0.91350  0.59196  0.41501  1.0000
  C   C987      1.0  0.97455  0.67758  0.33504  1.0000
  C   C988      1.0  0.99115  0.68296  0.46358  1.0000
  Fe  Fe170     1.0  0.96664  0.71925  0.39971  1.0000
  C   C989      1.0  0.90882  0.56255  0.41537  1.0000
  C   C990      1.0  0.96042  0.65430  0.36414  1.0000
  H   H990      1.0  0.89761  0.59053  0.37812  1.0000
  C   C991      1.0  0.97581  0.51443  0.36443  1.0000
  H   H991      1.0  0.97095  0.53834  0.34519  1.0000
  S   S333      1.0  0.96528  0.72725  0.37074  1.0000
  C   C992      1.0  0.97526  0.65976  0.33362  1.0000
  C   C993      1.0  0.89068  0.63105  0.45223  1.0000
  H   H992      1.0  0.96687  0.52611  0.31158  1.0000
  N   N85       1.0  0.91398  0.57444  0.42315  1.0000
  H   H993      1.0  0.88893  0.63388  0.42462  1.0000
  H   H994      1.0  0.92785  0.63411  0.46753  1.0000
  C   C994      1.0  0.94827  0.70749  0.46568  1.0000
  C   C995      1.0  0.92762  0.54095  0.36558  1.0000
  C   C996      1.0  0.93172  0.52867  0.38072  1.0000
  C   C997      1.0  0.94146  0.53303  0.39217  1.0000
  C   C998      1.0  0.94730  0.54970  0.38875  1.0000
  C   C999      1.0  0.94322  0.56195  0.37360  1.0000
  C   C1000     1.0  0.93344  0.55761  0.36217  1.0000
  H   H995      1.0  0.92739  0.51579  0.38360  1.0000
  H   H996      1.0  0.94449  0.52339  0.40381  1.0000
  H   H997      1.0  0.94754  0.57483  0.37071  1.0000
  H   H998      1.0  0.93038  0.56728  0.35056  1.0000
  C   C1001     1.0  0.90167  0.63101  0.46435  1.0000
  H   H999      1.0  0.89876  0.55869  0.39294  1.0000
  C   C1002     1.0  0.89235  0.69481  0.46858  1.0000
  H   H1000     1.0  0.98441  0.68557  0.47668  1.0000
  H   H1001     1.0  0.90755  0.72101  0.43064  1.0000
  H   H1002     1.0  0.88518  0.66880  0.47062  1.0000
  C   C1003     1.0  0.93846  0.68341  0.44898  1.0000
  C   C1004     1.0  0.89340  0.68093  0.44344  1.0000
  Fe  Fe171     1.0  0.98890  0.61131  0.38603  1.0000
  H   H1003     1.0  0.91961  0.57929  0.44718  1.0000
  C   C1005     1.0  0.90754  0.59806  0.39877  1.0000
  H   H1004     1.0  0.98735  0.66197  0.43091  1.0000
  C   C1006     1.0  0.91927  0.63426  0.45822  1.0000
  C   C1007     1.0  0.96815  0.64802  0.34824  1.0000
  C   C1008     1.0  0.92609  0.63688  0.43997  1.0000
  H   H1005     1.0  0.94279  0.66987  0.39096  1.0000
  H   H1006     1.0  0.95201  0.71686  0.47216  1.0000
  H   H1007     1.0  0.93453  0.67410  0.44258  1.0000
  C   C1009     1.0  0.95122  0.70989  0.44706  1.0000
  S   S334      1.0  0.94708  0.70182  0.41575  1.0000
  S   S335      1.0  0.87818  0.50561  0.34936  1.0000
  H   H1008     1.0  0.95709  0.72116  0.43918  1.0000
  C   C1010     1.0  0.98407  0.67299  0.45470  1.0000
  H   H1009     1.0  0.98160  0.52085  0.37241  1.0000
  C   C1011     1.0  0.89734  0.63415  0.43396  1.0000
  H   H1010     1.0  0.87706  0.62854  0.45699  1.0000
  H   H1011     1.0  0.93993  0.63873  0.43530  1.0000
  N   N86       1.0  0.95988  0.67176  0.36546  1.0000
  H   H1012     1.0  0.90741  0.61196  0.39235  1.0000
  C   C1012     1.0  0.96692  0.68334  0.35121  1.0000
  S   S336      1.0  0.92431  0.63788  0.40538  1.0000
  C   C1013     1.0  0.91512  0.63683  0.42787  1.0000
  C   C1014     1.0  0.95303  0.67770  0.38260  1.0000
  H   H1013     1.0  0.95060  0.54129  0.32447  1.0000
  H   H1014     1.0  0.88943  0.73413  0.46621  1.0000
  H   H1015     1.0  0.98192  0.65489  0.32143  1.0000
  S   S337      1.0  0.91726  0.49627  0.32496  1.0000
  C   C1015     1.0  0.94601  0.69798  0.43874  1.0000
  C   C1016     1.0  0.97390  0.49645  0.36972  1.0000
  H   H1016     1.0  0.91356  0.55785  0.44867  1.0000
  S   S338      1.0  0.99573  0.58643  0.40596  1.0000
  C   C1017     1.0  0.96970  0.52429  0.34904  1.0000
  H   H1017     1.0  0.97208  0.66741  0.46101  1.0000
  C   C1018     1.0  0.89962  0.69572  0.43220  1.0000
  S   S339      1.0  0.99007  0.60826  0.45156  1.0000
  H   H1018     1.0  0.96931  0.63396  0.34750  1.0000
  H   H1019     1.0  0.75702  0.49945  0.43200  1.0000
  N   N87       1.0  0.89884  0.70908  0.45748  1.0000
  C   C1019     1.0  0.93545  0.68108  0.46751  1.0000
  C   C1020     1.0  0.88971  0.68043  0.46176  1.0000
  C   C1021     1.0  0.92099  0.56811  0.43980  1.0000
  H   H1020     1.0  0.91786  0.60132  0.42100  1.0000
  H   H1021     1.0  0.91312  0.73018  0.45635  1.0000
  C   C1022     1.0  0.95566  0.52698  0.32307  1.0000
  H   H1022     1.0  0.94412  0.52207  0.32042  1.0000
  H   H1023     1.0  0.89170  0.66979  0.43797  1.0000
  C   C1023     1.0  0.94023  0.69316  0.47590  1.0000
  C   C1024     1.0  0.99275  0.66982  0.43783  1.0000
  C   C1025     1.0  0.96016  0.49877  0.34419  1.0000
  H   H1024     1.0  0.86605  0.49521  0.27039  1.0000
  S   S340      1.0  0.99618  0.70784  0.39554  1.0000
  H   H1025     1.0  0.92903  0.67014  0.47523  1.0000
  C   C1026     1.0  0.99372  0.73402  0.45839  1.0000
  H   H1026     1.0  0.98789  0.73635  0.43230  1.0000
  H   H1027     1.0  0.75940  0.49991  0.46296  1.0000
  C   C1027     1.0  0.99806  0.73633  0.43984  1.0000
  H   H1028     1.0  0.90589  0.71884  0.47818  1.0000
  N   N88       1.0  0.59453  0.57635  0.64849  1.0000
  H   H1029     1.0  0.56716  0.58867  0.64725  1.0000
  C   C1028     1.0  0.80085  0.60712  0.61593  1.0000
  C   C1029     1.0  0.95763  0.68438  0.53963  1.0000
  H   H1030     1.0  0.62578  0.67285  0.59517  1.0000
  C   C1030     1.0  0.78062  0.55074  0.49826  1.0000
  H   H1031     1.0  0.88099  0.58727  0.58140  1.0000
  C   C1031     1.0  0.78020  0.53445  0.51005  1.0000
  H   H1032     1.0  0.57884  0.58133  0.67364  1.0000
  H   H1033     1.0  0.59894  0.56453  0.67464  1.0000
  Fe  Fe172     1.0  0.92456  0.66527  0.51081  1.0000
  S   S341      1.0  0.93729  0.63942  0.50102  1.0000
  C   C1032     1.0  0.98529  0.69639  0.54863  1.0000
  Fe  Fe173     1.0  0.89652  0.64814  0.53902  1.0000
  S   S342      1.0  0.90742  0.62092  0.53198  1.0000
  S   S343      1.0  0.87071  0.65183  0.55849  1.0000
  S   S344      1.0  0.50815  0.66348  0.70970  1.0000
  Fe  Fe174     1.0  0.90868  0.63535  0.50396  1.0000
  C   C1033     1.0  0.51246  0.61244  0.76903  1.0000
  S   S345      1.0  0.92351  0.65399  0.53974  1.0000
  S   S346      1.0  0.89628  0.66232  0.51108  1.0000
  S   S347      1.0  0.50547  0.51830  0.84469  1.0000
  C   C1034     1.0  0.59822  0.57570  0.61250  1.0000
  S   S348      1.0  0.75646  0.60125  0.60609  1.0000
  H   H1034     1.0  0.83654  0.64093  0.56282  1.0000
  H   H1035     1.0  0.59984  0.57591  0.59834  1.0000
  Fe  Fe175     1.0  0.67855  0.61050  0.56350  1.0000
  S   S349      1.0  0.65831  0.61068  0.54672  1.0000
  S   S350      1.0  0.70177  0.62498  0.55265  1.0000
  Fe  Fe176     1.0  0.66216  0.58438  0.59408  1.0000
  S   S351      1.0  0.64108  0.58158  0.57966  1.0000
  S   S352      1.0  0.66181  0.57225  0.62278  1.0000
  Fe  Fe177     1.0  0.66327  0.58097  0.55603  1.0000
  S   S353      1.0  0.66856  0.56280  0.53606  1.0000
  Fe  Fe178     1.0  0.63812  0.61143  0.57197  1.0000
  S   S354      1.0  0.60985  0.62699  0.57504  1.0000
  S   S355      1.0  0.68493  0.58061  0.57126  1.0000
  S   S356      1.0  0.65797  0.61447  0.58781  1.0000
  Fe  Fe179     1.0  0.54646  0.63228  0.66102  1.0000
  S   S357      1.0  0.52844  0.62748  0.64421  1.0000
  S   S358      1.0  0.57632  0.62297  0.65620  1.0000
  Fe  Fe180     1.0  0.51559  0.65095  0.68525  1.0000
  H   H1036     1.0  0.54729  0.49612  0.81813  1.0000
  C   C1035     1.0  0.59253  0.50777  0.84350  1.0000
  Fe  Fe181     1.0  0.51043  0.62025  0.67000  1.0000
  C   C1036     1.0  0.98376  0.61466  0.55735  1.0000
  Fe  Fe182     1.0  0.51477  0.65582  0.64616  1.0000
  H   H1037     1.0  0.98430  0.71606  0.52476  1.0000
  S   S359      1.0  0.52967  0.62237  0.68682  1.0000
  S   S360      1.0  0.53431  0.66121  0.66102  1.0000
  C   C1037     1.0  0.73087  0.54583  0.59516  1.0000
  C   C1038     1.0  0.78930  0.54715  0.53187  1.0000
  H   H1038     1.0  0.69891  0.60827  0.52403  1.0000
  H   H1039     1.0  0.58432  0.52111  0.84283  1.0000
  C   C1039     1.0  0.59327  0.66663  0.62044  1.0000
  H   H1040     1.0  0.50983  0.61660  0.78186  1.0000
  C   C1040     1.0  0.97782  0.68200  0.55940  1.0000
  C   C1041     1.0  0.78953  0.56351  0.52010  1.0000
  H   H1041     1.0  0.60042  0.58817  0.66811  1.0000
  S   S361      1.0  0.72383  0.51828  0.66115  1.0000
  C   C1042     1.0  0.60009  0.62440  0.59757  1.0000
  C   C1043     1.0  0.58182  0.63118  0.60268  1.0000
  C   C1044     1.0  0.57441  0.63081  0.62070  1.0000
  C   C1045     1.0  0.58526  0.62364  0.63362  1.0000
  C   C1046     1.0  0.60343  0.61655  0.62851  1.0000
  C   C1047     1.0  0.61073  0.61663  0.61055  1.0000
  H   H1042     1.0  0.57350  0.63711  0.59269  1.0000
  H   H1043     1.0  0.56048  0.63664  0.62447  1.0000
  H   H1044     1.0  0.61188  0.61084  0.63843  1.0000
  H   H1045     1.0  0.62464  0.61080  0.60684  1.0000
  C   C1048     1.0  0.74105  0.60927  0.59153  1.0000
  C   C1049     1.0  0.72255  0.61039  0.59790  1.0000
  C   C1050     1.0  0.71040  0.61509  0.58596  1.0000
  C   C1051     1.0  0.71671  0.61945  0.56773  1.0000
  C   C1052     1.0  0.73518  0.61885  0.56143  1.0000
  C   C1053     1.0  0.74736  0.61339  0.57329  1.0000
  H   H1046     1.0  0.71764  0.60712  0.61200  1.0000
  H   H1047     1.0  0.69614  0.61555  0.59088  1.0000
  H   H1048     1.0  0.74010  0.62225  0.54736  1.0000
  H   H1049     1.0  0.76164  0.61251  0.56828  1.0000
  C   C1054     1.0  0.61289  0.56903  0.62123  1.0000
  N   N89       1.0  0.96423  0.67611  0.55479  1.0000
  C   C1055     1.0  0.86409  0.63087  0.56613  1.0000
  C   C1056     1.0  0.87662  0.61570  0.57127  1.0000
  H   H1050     1.0  0.96612  0.65217  0.57429  1.0000
  H   H1051     1.0  0.98156  0.60248  0.56663  1.0000
  H   H1052     1.0  0.89040  0.61696  0.57093  1.0000
  C   C1057     1.0  0.51901  0.61918  0.73758  1.0000
  H   H1053     1.0  0.57023  0.58826  0.61524  1.0000
  H   H1054     1.0  0.78462  0.51995  0.53589  1.0000
  H   H1055     1.0  0.78015  0.64920  0.60180  1.0000
  C   C1058     1.0  0.96484  0.69877  0.52852  1.0000
  C   C1059     1.0  0.70481  0.54844  0.62533  1.0000
  C   C1060     1.0  0.78466  0.53260  0.52683  1.0000
  C   C1061     1.0  0.57996  0.58272  0.64012  1.0000
  H   H1056     1.0  0.62255  0.56502  0.64573  1.0000
  C   C1062     1.0  0.97630  0.63681  0.53196  1.0000
  H   H1057     1.0  0.73954  0.51039  0.59217  1.0000
  H   H1058     1.0  0.56975  0.49462  0.84830  1.0000
  S   S362      1.0  0.68307  0.49436  0.68176  1.0000
  H   H1059     1.0  0.70754  0.50437  0.53401  1.0000
  H   H1060     1.0  0.84092  0.63213  0.60746  1.0000
  N   N90       1.0  0.72130  0.53222  0.60219  1.0000
  N   N91       1.0  0.51598  0.62446  0.75373  1.0000
  C   C1063     1.0  0.51202  0.59461  0.76838  1.0000
  H   H1061     1.0  0.98841  0.59518  0.51911  1.0000
  C   C1064     1.0  0.65593  0.52394  0.65235  1.0000
  C   C1065     1.0  0.57910  0.49269  0.89425  1.0000
  H   H1062     1.0  0.72144  0.52049  0.58002  1.0000
  C   C1066     1.0  0.51526  0.58911  0.75197  1.0000
  H   H1063     1.0  0.99113  0.65854  0.52462  1.0000
  C   C1067     1.0  0.74621  0.50428  0.63324  1.0000
  H   H1064     1.0  0.59168  0.53196  0.89527  1.0000
  H   H1065     1.0  0.84505  0.59944  0.61970  1.0000
  C   C1068     1.0  0.61120  0.50547  0.84193  1.0000
  H   H1066     1.0  0.77968  0.63029  0.59184  1.0000
  H   H1067     1.0  0.74520  0.54496  0.64378  1.0000
  H   H1068     1.0  0.62591  0.56381  0.61401  1.0000
  C   C1069     1.0  0.65537  0.51359  0.63993  1.0000
  H   H1069     1.0  0.70743  0.59966  0.50351  1.0000
  H   H1070     1.0  0.81136  0.64817  0.60017  1.0000
  N   N92       1.0  0.79870  0.62508  0.60908  1.0000
  S   S363      1.0  0.60606  0.49643  0.91068  1.0000
  C   C1070     1.0  0.58428  0.52287  0.89229  1.0000
  H   H1071     1.0  0.68535  0.51721  0.58596  1.0000
  S   S364      1.0  0.93548  0.69073  0.49908  1.0000
  H   H1072     1.0  0.79267  0.54564  0.54486  1.0000
  C   C1071     1.0  0.59309  0.57758  0.66718  1.0000
  C   C1072     1.0  0.78526  0.56526  0.50328  1.0000
  H   H1073     1.0  0.59236  0.67212  0.57688  1.0000
  C   C1073     1.0  0.58876  0.50441  0.89811  1.0000
  C   C1074     1.0  0.76926  0.51932  0.61337  1.0000
  C   C1075     1.0  0.53188  0.50472  0.91899  1.0000
  H   H1074     1.0  0.65933  0.54553  0.60265  1.0000
  H   H1075     1.0  0.62463  0.64969  0.60527  1.0000
  C   C1076     1.0  0.58161  0.58258  0.62199  1.0000
  H   H1076     1.0  0.55971  0.68140  0.58775  1.0000
  C   C1077     1.0  0.67894  0.54169  0.54558  1.0000
  C   C1078     1.0  0.83191  0.60676  0.61718  1.0000
  H   H1077     1.0  0.81935  0.58332  0.62489  1.0000
  C   C1079     1.0  0.51532  0.64334  0.75460  1.0000
  S   S365      1.0  0.50269  0.50374  0.88791  1.0000
  H   H1078     1.0  0.98334  0.67525  0.57120  1.0000
  H   H1079     1.0  0.52148  0.62873  0.72545  1.0000
  C   C1080     1.0  0.65633  0.52143  0.62198  1.0000
  C   C1081     1.0  0.78135  0.63437  0.60411  1.0000
  H   H1080     1.0  0.68950  0.59085  0.51965  1.0000
  H   H1081     1.0  0.96835  0.64183  0.52154  1.0000
  C   C1082     1.0  0.65782  0.54195  0.64691  1.0000
  Fe  Fe183     1.0  0.79491  0.54626  0.58753  1.0000
  H   H1082     1.0  0.52091  0.59734  0.72361  1.0000
  H   H1083     1.0  0.74139  0.54471  0.58360  1.0000
  H   H1084     1.0  0.54401  0.52503  0.92467  1.0000
  N   N93       1.0  0.85702  0.58713  0.53551  1.0000
  C   C1083     1.0  0.84028  0.58977  0.53114  1.0000
  C   C1084     1.0  0.86622  0.60110  0.53226  1.0000
  C   C1085     1.0  0.83208  0.60689  0.52385  1.0000
  C   C1086     1.0  0.85845  0.61838  0.52496  1.0000
  C   C1087     1.0  0.84124  0.62127  0.52079  1.0000
  C   C1088     1.0  0.86563  0.56906  0.54277  1.0000
  H   H1085     1.0  0.83314  0.57864  0.53321  1.0000
  H   H1086     1.0  0.87960  0.59896  0.53545  1.0000
  H   H1087     1.0  0.81874  0.60888  0.52051  1.0000
  H   H1088     1.0  0.76470  0.49325  0.61181  1.0000
  H   H1089     1.0  0.83511  0.63460  0.51508  1.0000
  H   H1090     1.0  0.87459  0.56968  0.55196  1.0000
  H   H1091     1.0  0.85543  0.56100  0.55074  1.0000
  H   H1092     1.0  0.87364  0.56211  0.53182  1.0000
  C   C1089     1.0  0.61086  0.56963  0.63926  1.0000
  C   C1090     1.0  0.74089  0.51873  0.64245  1.0000
  C   C1091     1.0  0.76351  0.53402  0.62219  1.0000
  C   C1092     1.0  0.58758  0.67230  0.59094  1.0000
  C   C1093     1.0  0.74220  0.55683  0.54106  1.0000
  C   C1094     1.0  0.71623  0.56463  0.52664  1.0000
  H   H1093     1.0  0.75247  0.54682  0.54682  1.0000
  H   H1094     1.0  0.56683  0.50281  0.93979  1.0000
  C   C1095     1.0  0.81283  0.63407  0.60610  1.0000
  H   H1095     1.0  0.60254  0.66203  0.62978  1.0000
  C   C1096     1.0  0.99664  0.62421  0.55912  1.0000
  C   C1097     1.0  0.74941  0.53368  0.63679  1.0000
  H   H1096     1.0  0.88971  0.69424  0.48284  1.0000
  Fe  Fe184     1.0  0.93458  0.62790  0.53002  1.0000
  C   C1098     1.0  0.98945  0.64616  0.53353  1.0000
  H   H1097     1.0  0.72952  0.53739  0.53448  1.0000
  C   C1099     1.0  0.87127  0.59892  0.57722  1.0000
  C   C1100     1.0  0.70829  0.53342  0.61703  1.0000
  C   C1101     1.0  0.61869  0.66151  0.59621  1.0000
  H   H1098     1.0  0.62123  0.65742  0.58296  1.0000
  S   S366      1.0  0.81754  0.55343  0.56571  1.0000
  H   H1099     1.0  0.73992  0.49256  0.63769  1.0000
  H   H1100     1.0  0.71719  0.50593  0.60100  1.0000
  H   H1101     1.0  0.95202  0.65297  0.55885  1.0000
  C   C1102     1.0  0.72929  0.55153  0.53419  1.0000
  C   C1103     1.0  0.82958  0.62510  0.61030  1.0000
  C   C1104     1.0  0.72502  0.51649  0.59347  1.0000
  H   H1102     1.0  0.65846  0.54980  0.65661  1.0000
  N   N94       1.0  0.59935  0.66677  0.60267  1.0000
  H   H1103     1.0  0.86581  0.62941  0.52252  1.0000
  C   C1105     1.0  0.97867  0.70485  0.53316  1.0000
  C   C1106     1.0  0.56911  0.67751  0.59698  1.0000
  C   C1107     1.0  0.84624  0.62921  0.56684  1.0000
  C   C1108     1.0  0.97343  0.62106  0.54392  1.0000
  C   C1109     1.0  0.56277  0.67721  0.61510  1.0000
  H   H1104     1.0  0.70067  0.52269  0.62274  1.0000
  C   C1110     1.0  0.84100  0.61236  0.57249  1.0000
  H   H1105     1.0  0.61767  0.51705  0.83999  1.0000
  C   C1111     1.0  0.65831  0.53952  0.61650  1.0000
  S   S367      1.0  0.79467  0.58197  0.52648  1.0000
  C   C1112     1.0  0.85346  0.59720  0.57780  1.0000
  H   H1106     1.0  0.54841  0.68088  0.61998  1.0000
  C   C1113     1.0  0.57492  0.67181  0.62692  1.0000
  S   S368      1.0  0.80035  0.59579  0.56961  1.0000
  C   C1114     1.0  0.76036  0.50460  0.61868  1.0000
  H   H1107     1.0  0.57013  0.67117  0.64108  1.0000
  H   H1108     1.0  0.82722  0.61131  0.57319  1.0000
  Fe  Fe185     1.0  0.77968  0.58462  0.59132  1.0000
  H   H1109     1.0  0.51445  0.57544  0.75126  1.0000
  H   H1110     1.0  0.94687  0.67980  0.53589  1.0000
  H   H1111     1.0  0.94427  0.66681  0.57584  1.0000
  S   S369      1.0  0.95688  0.60936  0.54236  1.0000
  H   H1112     1.0  0.77002  0.63074  0.61481  1.0000
  C   C1115     1.0  0.69922  0.51350  0.54239  1.0000
  H   H1113     1.0  0.75239  0.57940  0.54486  1.0000
  S   S370      1.0  0.50948  0.67504  0.62133  1.0000
  C   C1116     1.0  0.68956  0.52972  0.53476  1.0000
  H   H1114     1.0  0.65608  0.51343  0.61228  1.0000
  C   C1117     1.0  0.74207  0.57507  0.54010  1.0000
  C   C1118     1.0  0.71431  0.56248  0.61811  1.0000
  C   C1119     1.0  0.54413  0.51074  0.92612  1.0000
  C   C1120     1.0  0.81748  0.59769  0.62002  1.0000
  H   H1115     1.0  0.73509  0.57195  0.59743  1.0000
  S   S371      1.0  0.78837  0.51866  0.59666  1.0000
  C   C1121     1.0  0.56477  0.49958  0.88484  1.0000
  H   H1116     1.0  0.99630  0.70077  0.55216  1.0000
  H   H1117     1.0  0.77009  0.54554  0.61806  1.0000
  S   S372      1.0  0.77381  0.51673  0.50358  1.0000
  H   H1118     1.0  0.70641  0.56048  0.52104  1.0000
  C   C1122     1.0  0.72871  0.58778  0.53259  1.0000
  C   C1123     1.0  0.95621  0.66137  0.56657  1.0000
  H   H1119     1.0  0.50882  0.58523  0.78052  1.0000
  C   C1124     1.0  0.57043  0.52966  0.88239  1.0000
  H   H1120     1.0  0.56729  0.54396  0.87764  1.0000
  N   N95       1.0  0.71584  0.58247  0.52625  1.0000
  H   H1121     1.0  0.66915  0.54640  0.57230  1.0000
  H   H1122     1.0  0.72873  0.60194  0.53180  1.0000
  H   H1123     1.0  0.78970  0.59996  0.61806  1.0000
  S   S373      1.0  0.79939  0.56371  0.60511  1.0000
  H   H1124     1.0  0.95975  0.70512  0.51636  1.0000
  C   C1125     1.0  0.65916  0.54973  0.62898  1.0000
  C   C1126     1.0  0.56062  0.51809  0.87868  1.0000
  C   C1127     1.0  0.67745  0.53717  0.56400  1.0000
  Fe  Fe186     1.0  0.79641  0.57527  0.55521  1.0000
  Fe  Fe187     1.0  0.52419  0.51021  0.86461  1.0000
  H   H1125     1.0  0.69062  0.53317  0.52049  1.0000
  H   H1126     1.0  0.52211  0.51434  0.91209  1.0000
  H   H1127     1.0  0.71159  0.57423  0.62439  1.0000
  C   C1128     1.0  0.69776  0.50902  0.56084  1.0000
  Fe  Fe188     1.0  0.81983  0.57324  0.58197  1.0000
  S   S374      1.0  0.84712  0.57606  0.58566  1.0000
  C   C1129     1.0  0.70230  0.59598  0.51790  1.0000
  C   C1130     1.0  0.51884  0.60142  0.73645  1.0000
  H   H1128     1.0  0.69483  0.54917  0.63734  1.0000
  C   C1131     1.0  0.72745  0.56120  0.60293  1.0000
  S   S375      1.0  0.54407  0.52722  0.86539  1.0000
  H   H1129     1.0  0.78338  0.50434  0.65765  1.0000
  S   S376      1.0  0.77355  0.56648  0.57556  1.0000
  C   C1132     1.0  0.68659  0.52069  0.57167  1.0000
  H   H1130     1.0  0.65488  0.51808  0.66624  1.0000
  H   H1131     1.0  0.52425  0.64985  0.74305  1.0000
  H   H1132     1.0  0.98927  0.62763  0.47953  1.0000
  H   H1133     1.0  0.78542  0.57788  0.49416  1.0000
  H   H1134     1.0  0.80344  0.49877  0.62941  1.0000
  S   S377      1.0  0.75931  0.49418  0.55507  1.0000
  Fe  Fe189     1.0  0.71103  0.49393  0.66638  1.0000
  S   S378      1.0  0.89320  0.62665  0.48706  1.0000
  Fe  Fe190     1.0  0.76715  0.49428  0.52574  1.0000
  H   H1135     1.0  0.77722  0.55219  0.48526  1.0000
  C   C1133     1.0  0.58432  0.49267  0.84666  1.0000
  H   H1136     1.0  0.51967  0.64466  0.76685  1.0000
  H   H1137     1.0  0.50130  0.65081  0.75466  1.0000
  C   C1134     1.0  0.78377  0.49223  0.65257  1.0000
  C   C1135     1.0  0.55689  0.49829  0.93464  1.0000
  H   H1138     1.0  0.99425  0.58280  0.49118  1.0000
  H   H1139     1.0  0.96104  0.81116  0.33316  1.0000
  S   S379      1.0  0.95867  0.78005  0.36034  1.0000
  S   S380      1.0  0.98468  0.85980  0.41679  1.0000
  H   H1140     1.0  0.94534  0.91780  0.42201  1.0000
  C   C1136     1.0  0.96285  0.89218  0.42050  1.0000
  H   H1141     1.0  0.95256  0.88449  0.42768  1.0000
  H   H1142     1.0  0.96390  0.92792  0.36862  1.0000
  S   S381      1.0  0.96993  0.74643  0.40307  1.0000
  Fe  Fe191     1.0  0.97145  0.75335  0.37363  1.0000
  C   C1137     1.0  0.95876  0.91101  0.41726  1.0000
  H   H1143     1.0  0.98981  0.78151  0.37450  1.0000
  S   S382      1.0  0.99305  0.97171  0.42127  1.0000
  S   S383      1.0  0.96615  0.94459  0.40305  1.0000
  C   C1138     1.0  0.98440  0.82114  0.33533  1.0000
  H   H1144     1.0  0.96777  0.78918  0.40277  1.0000
  C   C1139     1.0  0.97193  0.92106  0.40783  1.0000
  H   H1145     1.0  0.97110  0.81177  0.39291  1.0000
  N   N96       1.0  0.98421  0.80039  0.41493  1.0000
  C   C1140     1.0  0.98822  0.79261  0.36366  1.0000
  C   C1141     1.0  0.96907  0.80227  0.40568  1.0000
  S   S384      1.0  0.99099  0.98497  0.37878  1.0000
  C   C1142     1.0  0.97396  0.79500  0.35445  1.0000
  H   H1146     1.0  0.97335  0.82445  0.42565  1.0000
  H   H1147     1.0  0.98298  0.83205  0.32424  1.0000
  C   C1143     1.0  0.97200  0.80934  0.34036  1.0000
  H   H1148     1.0  0.95612  0.80746  0.41386  1.0000
  C   C1144     1.0  0.99010  0.91353  0.35874  1.0000
  C   C1145     1.0  0.98001  0.88333  0.41396  1.0000
  C   C1146     1.0  0.98443  0.81317  0.42456  1.0000
  Fe  Fe192     1.0  0.98881  0.95987  0.39898  1.0000
  H   H1149     1.0  0.97393  0.95735  0.36184  1.0000
  C   C1147     1.0  0.97772  0.92890  0.36232  1.0000
  C   C1148     1.0  0.99322  0.89336  0.40459  1.0000
  C   C1149     1.0  0.98338  0.94545  0.35854  1.0000
  C   C1150     1.0  0.98920  0.91218  0.40160  1.0000
  H   H1150     1.0  0.98585  0.90057  0.36204  1.0000
  C   C1151     1.0  0.99840  0.81902  0.34479  1.0000
  H   H1151     1.0  0.99793  0.90640  0.43905  1.0000
  C   C1152     1.0  0.99858  0.78667  0.41288  1.0000
  H   H1152     1.0  0.99861  0.77670  0.40499  1.0000
