data_image0
_chemical_formula_structural       HNHC2HFeS2FeS2FeSFeS3FeS2FeHFeS5NC3H2CFeC2HCHCH3C4H4C7H4CHNC3NCHCHC2SCSH3SHCHCHNC6H8C3H2C6H6CHC2SHCHCHFeC2FeSHFeS3H4SC2HC5H2CH4NCH2CH4CHCHSCHFeS2FeS2FeHFeS3FeSCHSCFeSFeS3CH2FeS2H2FeSHSC3FeC4SCH2SHC4HNH2CHC6H4C6H4C2H3C2H2C2H4C3SCS2HNH2C2FeHCH2CHCH2CHC3H3CNC6H4CHCH4CNHCH2CH2NCNH2CH4CNCH2CH2C2H2C2H3SC2NFeH3CHC2HFeSCFeS2FeSFeS3FeS2FeS2FeS2FeS3CFeS3HC6HCH2SC6H3C3HFeC6H4C6H4CHC3H2CHCHC2H4CH5CH2CHSCNH4CHCH3CHNCH8CNH2C4SC2NC6H8NC3H2CH2C5FeH3CH3SCHFeHSFeCSH2CS2HC6HCH4SFeH3C2H2C2HC2H3CHC2H2C2SCH2CFeSFeS2C2FeS3FeS2FeS2FeHFeS3C2HC4H2SC4H2CHC2H4N2FeHNC6H4CH6SCHC2H4CH2NCHC2H3C2H3FeHC2HCH2CHSCHCNHCHSHC2HFeS2FeSH2C2SCHC2HCS4H3NSCH2CFeH3SFeH2FeC8HFeH4C5H2CHSH4CHCH2SFeSCFeSFeS2FeS2FeS2FeSFeS3FeS2FeS2FeSFeS3HC6H3C6H4C6H4FeC3SH3SC5H3C5H4C3H8C4FeH2NHCNC6HCH6CHC2H2CH2CH2C3NC5HC3H5CH4NCSH5C2FeCHC2HSCH2FeNH2C2H4CS2HCSCHCSC2H2C3H2CH2CHC3HC2HNCNCSH2CSCFeHSC3HCHC2HNH2NHFeNHC2H2C3HC3HSH3CFeCFeH2SCNC6SH4SC2HCSH5CHCHCSC6HNCH2C3HC2S2HC4H3SFeHCHCH2CHCSHCH2CH2CH4FeCHFeS2FeS2FeSFeS3FeS2FeS2FeSFeS3FeSHFeS2FeSFeS2HSC6H2C8H4C2SH2CSH2C6H4C6H4SC4H2C4H3CH3NC6H8SH4C2HCHC2NH2NC6H2C2H3C3HCH2NC5H4SHCHFeC3H2C2H2NH3CHC3HNHC3HSHC2HSC3H2CH2CSCH3CHC3NC2H5SCFeSC2HCNCHFeHNHCHCH3Fe2CH2SHSCH3CSCHSCFeH2FeSFeHCFeCFeCH2CHCNCHC2HSHSHSC3H2C2H2CNSC2HC4FeSC2H6C3HSC2SHCHC
_chemical_formula_sum              "H576 N48 C576 Fe96 S192"
_cell_length_a       48.7981
_cell_length_b       48.6952
_cell_length_c       49.3777
_cell_angle_alpha    89.9155
_cell_angle_beta     90.0794
_cell_angle_gamma    89.6145

_space_group_name_H-M_alt    "P 1"
_space_group_IT_number       1

loop_
  _space_group_symop_operation_xyz
  'x, y, z'

loop_
  _atom_site_type_symbol
  _atom_site_label
  _atom_site_symmetry_multiplicity
  _atom_site_fract_x
  _atom_site_fract_y
  _atom_site_fract_z
  _atom_site_occupancy
  H   H1        1.0  0.26647  0.25334  0.32598  1.0000
  N   N1        1.0  0.45241  0.33509  0.24166  1.0000
  H   H2        1.0  0.30412  0.27743  0.30199  1.0000
  C   C1        1.0  0.24449  0.31937  0.33281  1.0000
  C   C2        1.0  0.26607  0.27556  0.32408  1.0000
  H   H3        1.0  0.45828  0.12309  0.29071  1.0000
  Fe  Fe1       1.0  0.44558  0.23725  0.29739  1.0000
  S   S1        1.0  0.45819  0.27271  0.32373  1.0000
  S   S2        1.0  0.47651  0.21958  0.26800  1.0000
  Fe  Fe2       1.0  0.38593  0.24216  0.31433  1.0000
  S   S3        1.0  0.39342  0.27778  0.34164  1.0000
  S   S4        1.0  0.34415  0.22427  0.30846  1.0000
  Fe  Fe3       1.0  0.42011  0.29328  0.30840  1.0000
  S   S5        1.0  0.42034  0.33830  0.29886  1.0000
  Fe  Fe4       1.0  0.43051  0.25391  0.35469  1.0000
  S   S6        1.0  0.43728  0.25410  0.39958  1.0000
  S   S7        1.0  0.40952  0.25964  0.27943  1.0000
  S   S8        1.0  0.42099  0.21650  0.32993  1.0000
  Fe  Fe5       1.0  0.24837  0.26245  0.42716  1.0000
  S   S9        1.0  0.20393  0.27451  0.42998  1.0000
  S   S10       1.0  0.26162  0.22320  0.40713  1.0000
  Fe  Fe6       1.0  0.26786  0.31279  0.45645  1.0000
  H   H4        1.0  0.42961  0.30472  0.22039  1.0000
  Fe  Fe7       1.0  0.21388  0.28654  0.47272  1.0000
  S   S11       1.0  0.08867  0.19610  0.50604  1.0000
  S   S12       1.0  0.50911  0.04666  0.19262  1.0000
  S   S13       1.0  0.25720  0.27061  0.47102  1.0000
  S   S14       1.0  0.26221  0.30339  0.41242  1.0000
  S   S15       1.0  0.49229  0.09106  0.25554  1.0000
  N   N2        1.0  0.26509  0.33247  0.31932  1.0000
  C   C3        1.0  0.41991  0.12133  0.23368  1.0000
  C   C4        1.0  0.48606  0.29205  0.25864  1.0000
  C   C5        1.0  0.43436  0.16703  0.22174  1.0000
  H   H5        1.0  0.16972  0.24077  0.46868  1.0000
  H   H6        1.0  0.22772  0.33102  0.34153  1.0000
  C   C6        1.0  0.45389  0.15561  0.20426  1.0000
  Fe  Fe8       1.0  0.21880  0.31657  0.41918  1.0000
  C   C7        1.0  0.46924  0.26773  0.40831  1.0000
  C   C8        1.0  0.47206  0.28238  0.43251  1.0000
  H   H7        1.0  0.45946  0.26617  0.23523  1.0000
  C   C9        1.0  0.47442  0.34029  0.25805  1.0000
  H   H8        1.0  0.40750  0.10765  0.24585  1.0000
  C   C10       1.0  0.49176  0.26468  0.39106  1.0000
  H   H9        1.0  0.45464  0.28487  0.44584  1.0000
  H   H10       1.0  0.15530  0.30384  0.46313  1.0000
  H   H11       1.0  0.48982  0.25304  0.37253  1.0000
  C   C11       1.0  0.16187  0.25429  0.50943  1.0000
  C   C12       1.0  0.37010  0.32921  0.27573  1.0000
  C   C13       1.0  0.34527  0.33771  0.26399  1.0000
  C   C14       1.0  0.28718  0.28910  0.31060  1.0000
  H   H12       1.0  0.47828  0.32375  0.38982  1.0000
  H   H13       1.0  0.13110  0.20789  0.46800  1.0000
  H   H14       1.0  0.37437  0.30758  0.27817  1.0000
  H   H15       1.0  0.33060  0.32257  0.25732  1.0000
  C   C15       1.0  0.43965  0.11061  0.21601  1.0000
  C   C16       1.0  0.32210  0.22475  0.33655  1.0000
  C   C17       1.0  0.32115  0.24703  0.35450  1.0000
  C   C18       1.0  0.30207  0.24728  0.37590  1.0000
  C   C19       1.0  0.28460  0.22487  0.37980  1.0000
  C   C20       1.0  0.28599  0.20257  0.36207  1.0000
  C   C21       1.0  0.30429  0.20273  0.34028  1.0000
  H   H16       1.0  0.33452  0.26435  0.35149  1.0000
  H   H17       1.0  0.30131  0.26449  0.38963  1.0000
  H   H18       1.0  0.27260  0.18518  0.36500  1.0000
  H   H19       1.0  0.30482  0.18554  0.32640  1.0000
  C   C22       1.0  0.49054  0.12679  0.26120  1.0000
  H   H20       1.0  0.30302  0.32827  0.29845  1.0000
  N   N3        1.0  0.45610  0.12773  0.20134  1.0000
  C   C23       1.0  0.48282  0.18390  0.26716  1.0000
  C   C24       1.0  0.46707  0.16563  0.28236  1.0000
  C   C25       1.0  0.47091  0.13716  0.27932  1.0000
  N   N4        1.0  0.11480  0.28891  0.46943  1.0000
  C   C26       1.0  0.41724  0.14973  0.23647  1.0000
  H   H21       1.0  0.45156  0.17337  0.29600  1.0000
  C   C27       1.0  0.44712  0.30889  0.23325  1.0000
  H   H22       1.0  0.43337  0.18909  0.22480  1.0000
  C   C28       1.0  0.50692  0.14509  0.24669  1.0000
  C   C29       1.0  0.13650  0.29878  0.45143  1.0000
  S   S16       1.0  0.30718  0.33400  0.46696  1.0000
  C   C30       1.0  0.46388  0.28702  0.24156  1.0000
  S   S17       1.0  0.22551  0.32993  0.46202  1.0000
  H   H23       1.0  0.12948  0.31738  0.44032  1.0000
  H   H24       1.0  0.40265  0.15833  0.25077  1.0000
  H   H25       1.0  0.14257  0.28273  0.43658  1.0000
  S   S18       1.0  0.19679  0.34258  0.38851  1.0000
  H   H26       1.0  0.09830  0.26146  0.44005  1.0000
  C   C31       1.0  0.09641  0.26995  0.46025  1.0000
  H   H27       1.0  0.22847  0.28051  0.34655  1.0000
  C   C32       1.0  0.49723  0.29433  0.43926  1.0000
  H   H28       1.0  0.46791  0.16916  0.19381  1.0000
  N   N5        1.0  0.35707  0.23111  0.41111  1.0000
  C   C33       1.0  0.33603  0.21960  0.42539  1.0000
  C   C34       1.0  0.36421  0.25788  0.41544  1.0000
  C   C35       1.0  0.32129  0.23513  0.44430  1.0000
  C   C36       1.0  0.34990  0.27399  0.43420  1.0000
  C   C37       1.0  0.32837  0.26246  0.44872  1.0000
  C   C38       1.0  0.37250  0.21472  0.39137  1.0000
  H   H29       1.0  0.32986  0.19858  0.42161  1.0000
  H   H30       1.0  0.38093  0.26697  0.40419  1.0000
  H   H31       1.0  0.30400  0.22618  0.45486  1.0000
  H   H32       1.0  0.35528  0.29535  0.43735  1.0000
  H   H33       1.0  0.31707  0.27482  0.46321  1.0000
  H   H34       1.0  0.39301  0.20930  0.39973  1.0000
  H   H35       1.0  0.36153  0.19563  0.38572  1.0000
  H   H36       1.0  0.37540  0.22655  0.37237  1.0000
  C   C39       1.0  0.24470  0.29076  0.33552  1.0000
  C   C40       1.0  0.28646  0.31778  0.30862  1.0000
  C   C41       1.0  0.49141  0.31883  0.26700  1.0000
  H   H37       1.0  0.49885  0.27511  0.26565  1.0000
  H   H38       1.0  0.44471  0.33241  0.35291  1.0000
  C   C42       1.0  0.15703  0.23835  0.48643  1.0000
  C   C43       1.0  0.13518  0.21968  0.48610  1.0000
  C   C44       1.0  0.50296  0.17356  0.24958  1.0000
  C   C45       1.0  0.47765  0.11599  0.18414  1.0000
  C   C46       1.0  0.11815  0.21669  0.50880  1.0000
  C   C47       1.0  0.47086  0.34441  0.38599  1.0000
  H   H39       1.0  0.44256  0.08852  0.21497  1.0000
  H   H40       1.0  0.48416  0.13054  0.16806  1.0000
  H   H41       1.0  0.49902  0.30596  0.45770  1.0000
  H   H42       1.0  0.47050  0.09702  0.17392  1.0000
  H   H43       1.0  0.49575  0.11072  0.19680  1.0000
  H   H44       1.0  0.12764  0.31374  0.50260  1.0000
  C   C48       1.0  0.11265  0.29922  0.49511  1.0000
  H   H45       1.0  0.06210  0.24404  0.47047  1.0000
  C   C49       1.0  0.07566  0.26025  0.47721  1.0000
  C   C50       1.0  0.38909  0.34870  0.28441  1.0000
  S   S19       1.0  0.18637  0.28079  0.50915  1.0000
  H   H46       1.0  0.50838  0.32287  0.28060  1.0000
  C   C51       1.0  0.45207  0.34930  0.36520  1.0000
  H   H47       1.0  0.51537  0.18761  0.23793  1.0000
  C   C52       1.0  0.07359  0.27031  0.50356  1.0000
  H   H48       1.0  0.41336  0.35107  0.22973  1.0000
  Fe  Fe9       1.0  0.06126  0.18783  0.54203  1.0000
  C   C53       1.0  0.03584  0.05347  0.66047  1.0000
  C   C54       1.0  0.04446  0.17804  0.69006  1.0000
  Fe  Fe10      1.0  0.04265  0.14237  0.58048  1.0000
  S   S20       1.0  0.04880  0.09811  0.59265  1.0000
  H   H49       1.0  0.14921  0.26278  0.55041  1.0000
  Fe  Fe11      1.0  0.04094  0.20171  0.59806  1.0000
  S   S21       1.0  0.04489  0.22606  0.63640  1.0000
  S   S22       1.0  0.03166  0.15286  0.53767  1.0000
  S   S23       1.0  0.07525  0.17456  0.58341  1.0000
  H   H50       1.0  0.11071  0.22956  0.54983  1.0000
  H   H51       1.0  0.05283  0.13073  0.71721  1.0000
  H   H52       1.0  0.07927  0.09036  0.70191  1.0000
  H   H53       1.0  0.26843  0.33805  0.51135  1.0000
  S   S24       1.0  0.02929  0.21778  0.55694  1.0000
  C   C55       1.0  0.03771  0.08825  0.62510  1.0000
  C   C56       1.0  0.14547  0.25059  0.53249  1.0000
  H   H54       1.0  0.09784  0.13247  0.62764  1.0000
  C   C57       1.0  0.04352  0.06160  0.63430  1.0000
  C   C58       1.0  0.12369  0.23178  0.53223  1.0000
  C   C59       1.0  0.07385  0.15506  0.65700  1.0000
  C   C60       1.0  0.09205  0.29007  0.51257  1.0000
  C   C61       1.0  0.09114  0.10907  0.66410  1.0000
  H   H55       1.0  0.02616  0.24974  0.68651  1.0000
  H   H56       1.0  0.41449  0.34682  0.52925  1.0000
  C   C62       1.0  0.08886  0.13237  0.64775  1.0000
  H   H57       1.0  0.07179  0.17299  0.64406  1.0000
  H   H58       1.0  0.05663  0.19725  0.68892  1.0000
  H   H59       1.0  0.05439  0.04733  0.62134  1.0000
  H   H60       1.0  0.03667  0.17588  0.71107  1.0000
  N   N6        1.0  0.06128  0.15447  0.68173  1.0000
  C   C63       1.0  0.06355  0.13175  0.69799  1.0000
  H   H61       1.0  0.01880  0.29393  0.82039  1.0000
  H   H62       1.0  0.10180  0.09095  0.65671  1.0000
  C   C64       1.0  0.07861  0.10878  0.68948  1.0000
  H   H63       1.0  0.04097  0.03308  0.66770  1.0000
  H   H64       1.0  0.35121  0.34621  0.54175  1.0000
  H   H65       1.0  0.01892  0.12699  0.63515  1.0000
  H   H66       1.0  0.02659  0.18030  0.67621  1.0000
  C   C65       1.0  0.02267  0.07212  0.67766  1.0000
  H   H67       1.0  0.09115  0.29736  0.53329  1.0000
  C   C66       1.0  0.02356  0.10650  0.64196  1.0000
  H   H68       1.0  0.05835  0.26199  0.51724  1.0000
  S   S25       1.0  0.01683  0.06352  0.71163  1.0000
  C   C67       1.0  0.33897  0.36571  0.26175  1.0000
  H   H69       1.0  0.29858  0.65882  0.05301  1.0000
  Fe  Fe12      1.0  0.32254  0.47300  0.27851  1.0000
  S   S26       1.0  0.30440  0.45688  0.24002  1.0000
  S   S27       1.0  0.35928  0.50056  0.27700  1.0000
  Fe  Fe13      1.0  0.27657  0.45023  0.31367  1.0000
  S   S28       1.0  0.25430  0.43210  0.27822  1.0000
  S   S29       1.0  0.26746  0.44636  0.35813  1.0000
  Fe  Fe14      1.0  0.29643  0.41893  0.26462  1.0000
  H   H70       1.0  0.27843  0.37008  0.30117  1.0000
  Fe  Fe15      1.0  0.26428  0.47180  0.25680  1.0000
  S   S30       1.0  0.23541  0.50079  0.23482  1.0000
  S   S31       1.0  0.31772  0.43400  0.30187  1.0000
  S   S32       1.0  0.28321  0.49089  0.29372  1.0000
  Fe  Fe16      1.0  0.22524  0.58618  0.05822  1.0000
  S   S33       1.0  0.20286  0.57785  0.09705  1.0000
  C   C68       1.0  0.30403  0.35709  0.49387  1.0000
  H   H71       1.0  0.06877  0.57767  0.05937  1.0000
  S   S34       1.0  0.16511  0.53488  0.06160  1.0000
  C   C69       1.0  0.29901  0.42160  0.44866  1.0000
  Fe  Fe17      1.0  0.16518  0.58009  0.07065  1.0000
  S   S35       1.0  0.12586  0.60151  0.08265  1.0000
  Fe  Fe18      1.0  0.20507  0.53361  0.08425  1.0000
  S   S36       1.0  0.21889  0.49593  0.10746  1.0000
  S   S37       1.0  0.18764  0.59171  0.03291  1.0000
  S   S38       1.0  0.23031  0.54192  0.04720  1.0000
  C   C70       1.0  0.44281  0.37602  0.36030  1.0000
  H   H72       1.0  0.19139  0.65398  0.11381  1.0000
  H   H73       1.0  0.30164  0.56727  0.24526  1.0000
  Fe  Fe19      1.0  0.47709  0.51180  0.37194  1.0000
  S   S39       1.0  0.45803  0.55383  0.37285  1.0000
  S   S40       1.0  0.45316  0.47397  0.36130  1.0000
  H   H74       1.0  0.13645  0.52537  0.01477  1.0000
  H   H75       1.0  0.17855  0.63995  0.08245  1.0000
  Fe  Fe20      1.0  0.47870  0.55704  0.41321  1.0000
  S   S41       1.0  0.45755  0.57322  0.45012  1.0000
  H   H76       1.0  0.24597  0.36501  0.41166  1.0000
  S   S42       1.0  0.49481  0.51395  0.41383  1.0000
  C   C71       1.0  0.17476  0.65553  0.09847  1.0000
  C   C72       1.0  0.09205  0.67094  0.02943  1.0000
  C   C73       1.0  0.32257  0.49586  0.36600  1.0000
  Fe  Fe21      1.0  0.49826  0.56823  0.35590  1.0000
  C   C74       1.0  0.42827  0.55404  0.45751  1.0000
  C   C75       1.0  0.42147  0.53114  0.44185  1.0000
  C   C76       1.0  0.39813  0.51577  0.44817  1.0000
  C   C77       1.0  0.38166  0.52323  0.47020  1.0000
  S   S43       1.0  0.50153  0.59668  0.31980  1.0000
  C   C78       1.0  0.41194  0.56131  0.47966  1.0000
  H   H77       1.0  0.43418  0.52526  0.42488  1.0000
  H   H78       1.0  0.39287  0.49810  0.43601  1.0000
  S   S44       1.0  0.35164  0.50497  0.47702  1.0000
  H   H79       1.0  0.17947  0.46659  0.07348  1.0000
  C   C79       1.0  0.12821  0.63808  0.03989  1.0000
  C   C80       1.0  0.11318  0.62817  0.06187  1.0000
  C   C81       1.0  0.08759  0.63997  0.06774  1.0000
  C   C82       1.0  0.07694  0.66116  0.05142  1.0000
  H   H80       1.0  0.14811  0.62983  0.03546  1.0000
  N   N7        1.0  0.26221  0.42156  0.48098  1.0000
  H   H81       1.0  0.40263  0.51911  0.38006  1.0000
  H   H82       1.0  0.22511  0.47386  0.05332  1.0000
  C   C83       1.0  0.27876  0.66559  0.04562  1.0000
  H   H83       1.0  0.31343  0.53491  0.25872  1.0000
  C   C84       1.0  0.23023  0.49844  0.19956  1.0000
  C   C85       1.0  0.21495  0.51906  0.18641  1.0000
  C   C86       1.0  0.21151  0.51865  0.15814  1.0000
  C   C87       1.0  0.22298  0.49731  0.14291  1.0000
  C   C88       1.0  0.23805  0.47655  0.15608  1.0000
  C   C89       1.0  0.24189  0.47722  0.18432  1.0000
  H   H84       1.0  0.20584  0.53549  0.19814  1.0000
  H   H85       1.0  0.19971  0.53463  0.14820  1.0000
  H   H86       1.0  0.24689  0.45993  0.14441  1.0000
  H   H87       1.0  0.25370  0.46126  0.19429  1.0000
  C   C90       1.0  0.38682  0.49164  0.29828  1.0000
  C   C91       1.0  0.40722  0.51104  0.30336  1.0000
  C   C92       1.0  0.42802  0.50545  0.32225  1.0000
  C   C93       1.0  0.42844  0.48044  0.33618  1.0000
  C   C94       1.0  0.40846  0.46071  0.33060  1.0000
  C   C95       1.0  0.38770  0.46629  0.31164  1.0000
  H   H88       1.0  0.40675  0.53064  0.29298  1.0000
  H   H89       1.0  0.44373  0.52053  0.32595  1.0000
  H   H90       1.0  0.40878  0.44125  0.34116  1.0000
  H   H91       1.0  0.37237  0.45102  0.30752  1.0000
  C   C96       1.0  0.38694  0.53553  0.37708  1.0000
  C   C97       1.0  0.20818  0.38844  0.35841  1.0000
  H   H92       1.0  0.47301  0.43542  0.40678  1.0000
  H   H93       1.0  0.27188  0.37145  0.33705  1.0000
  H   H94       1.0  0.31000  0.41159  0.43230  1.0000
  C   C98       1.0  0.24752  0.41766  0.36617  1.0000
  C   C99       1.0  0.22410  0.41124  0.35116  1.0000
  H   H95       1.0  0.39821  0.39188  0.28721  1.0000
  H   H96       1.0  0.26080  0.45543  0.50840  1.0000
  C   C100      1.0  0.23966  0.37798  0.39498  1.0000
  C   C101      1.0  0.25522  0.40104  0.38806  1.0000
  H   H97       1.0  0.38898  0.54372  0.35614  1.0000
  H   H98       1.0  0.38545  0.35461  0.50753  1.0000
  H   H99       1.0  0.27359  0.40571  0.39921  1.0000
  H   H100      1.0  0.35424  0.40679  0.26672  1.0000
  C   C102      1.0  0.38871  0.54585  0.48607  1.0000
  C   C103      1.0  0.45249  0.39752  0.37641  1.0000
  C   C104      1.0  0.32272  0.37859  0.49595  1.0000
  S   S45       1.0  0.30624  0.37600  0.25072  1.0000
  C   C105      1.0  0.34802  0.50818  0.36186  1.0000
  S   S46       1.0  0.26209  0.61340  0.05622  1.0000
  S   S47       1.0  0.51558  0.52558  0.35135  1.0000
  H   H101      1.0  0.27755  0.54014  0.25280  1.0000
  N   N8        1.0  0.47091  0.39253  0.39681  1.0000
  H   H102      1.0  0.30651  0.50719  0.14377  1.0000
  H   H103      1.0  0.11559  0.46150  0.03273  1.0000
  C   C106      1.0  0.29430  0.45875  0.48051  1.0000
  C   C107      1.0  0.35841  0.38517  0.26955  1.0000
  Fe  Fe22      1.0  0.19030  0.54667  0.02553  1.0000
  H   H104      1.0  0.44517  0.41820  0.37242  1.0000
  C   C108      1.0  0.21597  0.37180  0.38032  1.0000
  H   H105      1.0  0.31360  0.48306  0.35039  1.0000
  H   H106      1.0  0.18990  0.38365  0.34697  1.0000
  C   C109      1.0  0.02436  0.60543  0.04333  1.0000
  H   H107      1.0  0.07601  0.63277  0.08500  1.0000
  C   C110      1.0  0.22771  0.68330  0.02650  1.0000
  H   H108      1.0  0.44267  0.36589  0.21267  1.0000
  H   H109      1.0  0.21800  0.42411  0.33427  1.0000
  C   C111      1.0  0.48003  0.36635  0.40179  1.0000
  H   H110      1.0  0.13049  0.43651  0.05562  1.0000
  C   C112      1.0  0.34614  0.52856  0.40545  1.0000
  C   C113      1.0  0.32071  0.51642  0.41036  1.0000
  C   C114      1.0  0.30887  0.49997  0.39044  1.0000
  H   H111      1.0  0.35515  0.54129  0.42108  1.0000
  H   H112      1.0  0.31048  0.51961  0.42962  1.0000
  H   H113      1.0  0.28913  0.49036  0.39384  1.0000
  C   C115      1.0  0.48094  0.41510  0.41372  1.0000
  N   N9        1.0  0.30098  0.53450  0.21704  1.0000
  C   C116      1.0  0.32279  0.51827  0.20986  1.0000
  C   C117      1.0  0.28163  0.54177  0.19825  1.0000
  C   C118      1.0  0.32512  0.50815  0.18345  1.0000
  C   C119      1.0  0.28357  0.53238  0.17155  1.0000
  C   C120      1.0  0.30528  0.51520  0.16423  1.0000
  C   C121      1.0  0.29834  0.54476  0.24482  1.0000
  H   H114      1.0  0.33829  0.51264  0.22466  1.0000
  H   H115      1.0  0.26408  0.55421  0.20408  1.0000
  H   H116      1.0  0.34208  0.49472  0.17807  1.0000
  H   H117      1.0  0.26785  0.53771  0.15684  1.0000
  C   C122      1.0  0.38344  0.37669  0.28089  1.0000
  H   H118      1.0  0.12929  0.47258  0.06449  1.0000
  C   C123      1.0  0.13235  0.45775  0.04763  1.0000
  H   H119      1.0  0.39150  0.55261  0.39130  1.0000
  H   H120      1.0  0.24391  0.37032  0.31296  1.0000
  H   H121      1.0  0.21402  0.64244  0.03562  1.0000
  H   H122      1.0  0.35852  0.50482  0.34287  1.0000
  C   C124      1.0  0.30839  0.44638  0.45919  1.0000
  N   N10       1.0  0.35951  0.52426  0.38145  1.0000
  H   H123      1.0  0.32666  0.45594  0.45105  1.0000
  C   C125      1.0  0.25671  0.64736  0.04538  1.0000
  H   H124      1.0  0.42828  0.38001  0.34405  1.0000
  H   H125      1.0  0.30139  0.47804  0.48874  1.0000
  C   C126      1.0  0.23741  0.40897  0.49204  1.0000
  H   H126      1.0  0.26851  0.39016  0.45146  1.0000
  H   H127      1.0  0.01907  0.58911  0.05813  1.0000
  N   N11       1.0  0.04769  0.59705  0.02651  1.0000
  C   C127      1.0  0.23112  0.65628  0.03589  1.0000
  N   N12       1.0  0.49240  0.50891  0.50146  1.0000
  H   H128      1.0  0.21899  0.41790  0.48205  1.0000
  H   H129      1.0  0.33907  0.38047  0.48130  1.0000
  C   C128      1.0  0.27553  0.40956  0.45964  1.0000
  H   H130      1.0  0.45030  0.50606  0.49123  1.0000
  H   H131      1.0  0.02935  0.62453  0.05447  1.0000
  H   H132      1.0  0.50368  0.41592  0.41296  1.0000
  H   H133      1.0  0.47842  0.36100  0.26498  1.0000
  C   C129      1.0  0.11779  0.65952  0.02384  1.0000
  N   N13       1.0  0.15941  0.46140  0.03533  1.0000
  C   C130      1.0  0.26485  0.36252  0.31758  1.0000
  H   H134      1.0  0.43400  0.43599  0.49043  1.0000
  H   H135      1.0  0.15520  0.65034  0.10879  1.0000
  C   C131      1.0  0.18170  0.46570  0.05161  1.0000
  H   H136      1.0  0.13044  0.68134  0.07908  1.0000
  H   H137      1.0  0.47442  0.41203  0.43509  1.0000
  C   C132      1.0  0.50781  0.52541  0.48506  1.0000
  C   C133      1.0  0.06890  0.58260  0.03792  1.0000
  H   H138      1.0  0.43441  0.37474  0.24737  1.0000
  H   H139      1.0  0.41715  0.57904  0.49178  1.0000
  C   C134      1.0  0.43496  0.35783  0.23224  1.0000
  C   C135      1.0  0.27121  0.44594  0.49136  1.0000
  H   H140      1.0  0.37582  0.55197  0.50283  1.0000
  H   H141      1.0  0.23752  0.38638  0.48885  1.0000
  H   H142      1.0  0.05740  0.67049  0.05634  1.0000
  S   S48       1.0  0.47317  0.39248  0.49334  1.0000
  C   C136      1.0  0.21071  0.46917  0.01226  1.0000
  C   C137      1.0  0.20763  0.46978  0.04032  1.0000
  N   N14       1.0  0.17353  0.68299  0.08628  1.0000
  Fe  Fe23      1.0  0.51585  0.37522  0.49679  1.0000
  H   H143      1.0  0.49451  0.36228  0.41804  1.0000
  H   H144      1.0  0.10847  0.56372  0.03170  1.0000
  H   H145      1.0  0.49898  0.54379  0.47611  1.0000
  C   C138      1.0  0.09150  0.57465  0.02233  1.0000
  H   H146      1.0  0.46018  0.53845  0.50589  1.0000
  C   C139      1.0  0.46361  0.51585  0.50668  1.0000
  C   C140      1.0  0.44232  0.43556  0.51076  1.0000
  H   H147      1.0  0.31107  0.64083  0.65378  1.0000
  Fe  Fe24      1.0  0.25482  0.62781  0.77681  1.0000
  S   S49       1.0  0.24519  0.62097  0.73285  1.0000
  C   C141      1.0  0.33358  0.60265  0.65476  1.0000
  Fe  Fe25      1.0  0.21806  0.58140  0.79606  1.0000
  S   S50       1.0  0.20549  0.57057  0.75379  1.0000
  S   S51       1.0  0.20298  0.56092  0.83411  1.0000
  Fe  Fe26      1.0  0.24979  0.57619  0.74328  1.0000
  S   S52       1.0  0.27439  0.54260  0.72318  1.0000
  Fe  Fe27      1.0  0.20195  0.61604  0.74781  1.0000
  S   S53       1.0  0.16307  0.63549  0.73290  1.0000
  S   S54       1.0  0.26278  0.58357  0.78629  1.0000
  S   S55       1.0  0.21143  0.62654  0.79088  1.0000
  Fe  Fe28      1.0  0.07100  0.48482  0.85414  1.0000
  S   S56       1.0  0.05666  0.45070  0.88129  1.0000
  S   S57       1.0  0.10260  0.48129  0.82144  1.0000
  Fe  Fe29      1.0  0.05662  0.48362  0.91326  1.0000
  S   S58       1.0  0.07047  0.47949  0.95652  1.0000
  S   S59       1.0  0.07447  0.51635  0.88688  1.0000
  Fe  Fe30      1.0  0.32998  0.51612  0.57878  1.0000
  S   S60       1.0  0.30729  0.49693  0.54402  1.0000
  S   S61       1.0  0.30984  0.55190  0.60046  1.0000
  Fe  Fe31      1.0  0.38034  0.48029  0.57055  1.0000
  S   S62       1.0  0.36155  0.45775  0.53594  1.0000
  S   S63       1.0  0.42363  0.46942  0.58292  1.0000
  S   S64       1.0  0.28234  0.66209  0.78963  1.0000
  C   C142      1.0  0.26651  0.60112  0.98785  1.0000
  Fe  Fe32      1.0  0.32323  0.45703  0.56044  1.0000
  S   S65       1.0  0.29507  0.42040  0.56150  1.0000
  S   S66       1.0  0.36891  0.52202  0.55495  1.0000
  S   S67       1.0  0.34311  0.47579  0.59712  1.0000
  H   H148      1.0  0.26494  0.62501  0.83203  1.0000
  C   C143      1.0  0.44119  0.45193  0.55710  1.0000
  C   C144      1.0  0.43169  0.45334  0.53043  1.0000
  C   C145      1.0  0.16359  0.67001  0.74299  1.0000
  C   C146      1.0  0.16243  0.45977  0.00782  1.0000
  C   C147      1.0  0.47430  0.41692  0.54359  1.0000
  C   C148      1.0  0.46320  0.43440  0.56348  1.0000
  H   H149      1.0  0.41583  0.46790  0.52497  1.0000
  C   C149      1.0  0.38226  0.40477  0.58418  1.0000
  H   H150      1.0  0.49047  0.40254  0.54885  1.0000
  H   H151      1.0  0.47076  0.43338  0.58408  1.0000
  S   S68       1.0  0.02889  0.49797  0.84123  1.0000
  C   C150      1.0  0.10169  0.49589  0.96287  1.0000
  C   C151      1.0  0.12155  0.49835  0.94260  1.0000
  C   C152      1.0  0.14701  0.51024  0.94855  1.0000
  C   C153      1.0  0.36028  0.36245  0.55377  1.0000
  C   C154      1.0  0.22147  0.49954  0.75382  1.0000
  C   C155      1.0  0.10715  0.50580  0.98889  1.0000
  H   H152      1.0  0.11758  0.49039  0.92255  1.0000
  H   H153      1.0  0.18720  0.47618  0.73912  1.0000
  H   H154      1.0  0.26413  0.37224  0.54846  1.0000
  C   C156      1.0  0.29056  0.66599  0.88179  1.0000
  C   C157      1.0  0.28037  0.37419  0.53368  1.0000
  C   C158      1.0  0.29860  0.39625  0.53527  1.0000
  H   H155      1.0  0.23836  0.56701  0.98826  1.0000
  Fe  Fe33      1.0  0.03107  0.52654  0.87659  1.0000
  C   C159      1.0  0.17366  0.54059  0.83064  1.0000
  C   C160      1.0  0.16316  0.53437  0.80506  1.0000
  C   C161      1.0  0.14102  0.51646  0.80243  1.0000
  C   C162      1.0  0.12895  0.50507  0.82544  1.0000
  C   C163      1.0  0.13879  0.51190  0.85116  1.0000
  C   C164      1.0  0.16123  0.52959  0.85375  1.0000
  H   H156      1.0  0.17236  0.54276  0.78720  1.0000
  H   H157      1.0  0.13337  0.51128  0.78250  1.0000
  H   H158      1.0  0.12989  0.50269  0.86901  1.0000
  H   H159      1.0  0.16928  0.53430  0.87364  1.0000
  C   C165      1.0  0.28147  0.54403  0.68828  1.0000
  C   C166      1.0  0.29817  0.52359  0.67683  1.0000
  C   C167      1.0  0.30597  0.52512  0.64950  1.0000
  C   C168      1.0  0.29712  0.54716  0.63350  1.0000
  C   C169      1.0  0.27970  0.56717  0.64476  1.0000
  C   C170      1.0  0.27193  0.56568  0.67214  1.0000
  H   H160      1.0  0.30557  0.50678  0.68924  1.0000
  H   H161      1.0  0.31949  0.50971  0.64109  1.0000
  H   H162      1.0  0.27275  0.58424  0.63242  1.0000
  H   H163      1.0  0.25893  0.58146  0.68078  1.0000
  C   C171      1.0  0.09225  0.58141  0.99488  1.0000
  H   H164      1.0  0.16251  0.51161  0.93296  1.0000
  C   C172      1.0  0.31495  0.62476  0.69449  1.0000
  C   C173      1.0  0.27771  0.64355  0.86954  1.0000
  C   C174      1.0  0.34329  0.58133  0.67111  1.0000
  H   H165      1.0  0.33626  0.60161  0.63292  1.0000
  H   H166      1.0  0.10953  0.57504  0.98251  1.0000
  C   C175      1.0  0.18806  0.46385  0.99587  1.0000
  H   H167      1.0  0.39105  0.42150  0.59576  1.0000
  C   C176      1.0  0.27522  0.64222  0.84124  1.0000
  H   H168      1.0  0.20928  0.45325  0.83673  1.0000
  C   C177      1.0  0.19875  0.48255  0.75679  1.0000
  C   C178      1.0  0.32042  0.60420  0.73978  1.0000
  H   H169      1.0  0.45713  0.50888  0.52715  1.0000
  H   H170      1.0  0.07112  0.60221  0.96225  1.0000
  H   H171      1.0  0.35354  0.56378  0.66199  1.0000
  H   H172      1.0  0.23846  0.50637  0.82006  1.0000
  C   C179      1.0  0.13242  0.51798  0.99470  1.0000
  H   H173      1.0  0.31063  0.58482  0.74652  1.0000
  H   H174      1.0  0.34040  0.60643  0.75031  1.0000
  H   H175      1.0  0.14483  0.45626  0.99482  1.0000
  H   H176      1.0  0.26938  0.62730  0.88196  1.0000
  H   H177      1.0  0.12975  0.66730  0.00709  1.0000
  C   C180      1.0  0.07078  0.59664  0.98354  1.0000
  H   H178      1.0  0.22778  0.50643  0.73385  1.0000
  H   H179      1.0  0.34528  0.56503  0.71149  1.0000
  C   C181      1.0  0.24156  0.58823  0.98243  1.0000
  H   H180      1.0  0.31068  0.63690  0.96718  1.0000
  S   S69       1.0  0.18524  0.53257  0.98250  1.0000
  C   C182      1.0  0.15254  0.51988  0.97469  1.0000
  N   N15       1.0  0.32453  0.60370  0.71037  1.0000
  H   H181      1.0  0.21258  0.66928  0.84042  1.0000
  H   H182      1.0  0.32567  0.36472  0.58102  1.0000
  H   H183      1.0  0.29519  0.66307  0.98791  1.0000
  H   H184      1.0  0.25349  0.52130  0.77458  1.0000
  C   C183      1.0  0.39627  0.39391  0.56190  1.0000
  H   H185      1.0  0.20699  0.67401  0.73653  1.0000
  C   C184      1.0  0.19758  0.47227  0.83197  1.0000
  H   H186      1.0  0.30365  0.64175  0.70340  1.0000
  H   H187      1.0  0.08703  0.68057  0.90231  1.0000
  H   H188      1.0  0.17527  0.46779  0.83304  1.0000
  C   C185      1.0  0.22494  0.63029  0.96222  1.0000
  H   H189      1.0  0.20894  0.64196  0.95211  1.0000
  N   N16       1.0  0.27052  0.62792  0.98060  1.0000
  C   C186      1.0  0.25019  0.64249  0.96786  1.0000
  H   H190      1.0  0.49097  0.47183  0.52442  1.0000
  H   H191      1.0  0.20130  0.59302  0.96517  1.0000
  H   H192      1.0  0.23052  0.47320  0.00320  1.0000
  H   H193      1.0  0.17322  0.46082  0.78491  1.0000
  H   H194      1.0  0.01885  0.42581  0.82627  1.0000
  H   H195      1.0  0.12027  0.67248  0.75132  1.0000
  H   H196      1.0  0.30698  0.62152  0.74629  1.0000
  H   H197      1.0  0.34508  0.40316  0.60766  1.0000
  C   C187      1.0  0.28606  0.66309  0.82504  1.0000
  N   N17       1.0  0.38489  0.37360  0.54655  1.0000
  H   H198      1.0  0.20185  0.48793  0.84778  1.0000
  H   H199      1.0  0.41144  0.37976  0.51276  1.0000
  C   C188      1.0  0.33844  0.58211  0.69903  1.0000
  C   C189      1.0  0.13955  0.68328  0.75162  1.0000
  C   C190      1.0  0.22069  0.60293  0.96948  1.0000
  C   C191      1.0  0.31923  0.62449  0.66645  1.0000
  S   S70       1.0  0.29237  0.66769  0.91733  1.0000
  C   C192      1.0  0.04877  0.60474  0.99987  1.0000
  C   C193      1.0  0.29731  0.64055  0.98505  1.0000
  N   N18       1.0  0.09313  0.57713  0.81098  1.0000
  C   C194      1.0  0.09163  0.58998  0.78634  1.0000
  C   C195      1.0  0.11516  0.58123  0.82763  1.0000
  C   C196      1.0  0.11213  0.60816  0.77821  1.0000
  C   C197      1.0  0.13609  0.59918  0.82007  1.0000
  C   C198      1.0  0.13437  0.61287  0.79529  1.0000
  C   C199      1.0  0.07178  0.55770  0.81893  1.0000
  H   H200      1.0  0.07453  0.58623  0.77282  1.0000
  H   H201      1.0  0.11680  0.57034  0.84676  1.0000
  H   H202      1.0  0.11103  0.61840  0.75866  1.0000
  H   H203      1.0  0.15380  0.60204  0.83309  1.0000
  H   H204      1.0  0.15035  0.62692  0.78913  1.0000
  H   H205      1.0  0.05139  0.56408  0.81096  1.0000
  H   H206      1.0  0.07693  0.53683  0.81128  1.0000
  H   H207      1.0  0.06967  0.55676  0.84131  1.0000
  N   N19       1.0  0.20523  0.48242  0.80507  1.0000
  C   C200      1.0  0.22743  0.49923  0.80234  1.0000
  C   C201      1.0  0.19100  0.47393  0.78272  1.0000
  C   C202      1.0  0.23592  0.50793  0.77671  1.0000
  H   H208      1.0  0.28253  0.58969  0.99823  1.0000
  H   H209      1.0  0.03253  0.61715  0.99108  1.0000
  C   C203      1.0  0.28281  0.35482  0.51274  1.0000
  H   H210      1.0  0.41613  0.40205  0.55670  1.0000
  H   H211      1.0  0.25352  0.66368  0.96191  1.0000
  C   C204      1.0  0.34579  0.37267  0.57607  1.0000
  C   C205      1.0  0.18844  0.68407  0.74340  1.0000
  C   C206      1.0  0.35667  0.39429  0.59104  1.0000
  C   C207      1.0  0.31964  0.39840  0.51623  1.0000
  C   C208      1.0  0.39975  0.36308  0.52290  1.0000
  Fe  Fe34      1.0  0.34732  0.49906  0.52199  1.0000
  H   H212      1.0  0.09176  0.50404  0.00455  1.0000
  H   H213      1.0  0.19009  0.46395  0.97399  1.0000
  H   H214      1.0  0.33364  0.41520  0.51702  1.0000
  C   C209      1.0  0.46320  0.41692  0.51744  1.0000
  H   H215      1.0  0.01709  0.54939  0.92661  1.0000
  H   H216      1.0  0.01922  0.39248  0.78831  1.0000
  H   H217      1.0  0.30734  0.63224  0.00358  1.0000
  S   S71       1.0  0.01841  0.57072  0.87194  1.0000
  C   C210      1.0  0.50336  0.48524  0.51198  1.0000
  H   H218      1.0  0.23609  0.41234  0.51429  1.0000
  Fe  Fe35      1.0  0.48026  0.89081  0.09122  1.0000
  H   H219      1.0  0.46042  0.97478  0.14732  1.0000
  S   S72       1.0  0.46450  0.92854  0.11209  1.0000
  Fe  Fe36      1.0  0.46422  0.83479  0.06987  1.0000
  C   C211      1.0  0.37542  0.77463  0.01543  1.0000
  S   S73       1.0  0.42797  0.80611  0.07074  1.0000
  H   H220      1.0  0.17151  0.75235  0.04804  1.0000
  H   H221      1.0  0.35129  0.84070  0.06297  1.0000
  C   C212      1.0  0.38414  0.85621  0.03840  1.0000
  S   S74       1.0  0.48140  0.84890  0.10987  1.0000
  S   S75       1.0  0.45990  0.87730  0.05288  1.0000
  H   H222      1.0  0.50908  0.76114  0.15913  1.0000
  C   C213      1.0  0.41389  0.79475  0.03988  1.0000
  C   C214      1.0  0.48483  0.93862  0.13959  1.0000
  C   C215      1.0  0.17190  0.73311  0.05919  1.0000
  C   C216      1.0  0.47842  0.96305  0.15312  1.0000
  C   C217      1.0  0.27537  0.69257  0.03621  1.0000
  C   C218      1.0  0.49538  0.97257  0.17394  1.0000
  H   H223      1.0  0.35543  0.76516  0.01560  1.0000
  C   C219      1.0  0.24980  0.70150  0.02681  1.0000
  H   H224      1.0  0.51301  0.90453  0.13679  1.0000
  H   H225      1.0  0.12867  0.72524  0.05410  1.0000
  H   H226      1.0  0.49023  0.99138  0.18434  1.0000
  H   H227      1.0  0.48206  0.96620  0.05168  1.0000
  S   S76       1.0  0.50548  0.82715  0.05098  1.0000
  Fe  Fe37      1.0  0.50275  0.87121  0.03762  1.0000
  H   H228      1.0  0.44654  0.81022  0.01503  1.0000
  H   H229      1.0  0.21535  0.73461  0.06690  1.0000
  H   H230      1.0  0.37847  0.77700  0.05899  1.0000
  C   C220      1.0  0.34333  0.83538  0.02030  1.0000
  C   C221      1.0  0.50795  0.92335  0.14731  1.0000
  H   H231      1.0  0.51486  0.79598  0.12282  1.0000
  H   H232      1.0  0.39663  0.86216  0.05563  1.0000
  C   C222      1.0  0.19654  0.72317  0.06983  1.0000
  C   C223      1.0  0.50076  0.97678  0.05719  1.0000
  H   H233      1.0  0.29248  0.70660  0.03657  1.0000
  C   C224      1.0  0.38846  0.78140  0.03994  1.0000
  C   C225      1.0  0.14797  0.71795  0.06257  1.0000
  H   H234      1.0  0.50117  0.82735  0.17902  1.0000
  H   H235      1.0  0.20795  0.69013  0.01900  1.0000
  H   H236      1.0  0.49039  0.97902  0.09927  1.0000
  C   C226      1.0  0.35868  0.84408  0.04253  1.0000
  H   H237      1.0  0.32383  0.82525  0.02327  1.0000
  C   C227      1.0  0.42683  0.80019  0.01524  1.0000
  C   C228      1.0  0.50703  0.79811  0.22435  1.0000
  H   H238      1.0  0.49727  0.78585  0.20802  1.0000
  H   H239      1.0  0.49101  0.80926  0.23597  1.0000
  C   C229      1.0  0.50573  0.98377  0.08421  1.0000
  C   C230      1.0  0.19709  0.69772  0.08301  1.0000
  S   S77       1.0  0.24528  0.73556  0.01612  1.0000
  C   C231      1.0  0.14914  0.69293  0.07650  1.0000
  H   H240      1.0  0.51617  0.01220  0.12944  1.0000
  H   H241      1.0  0.21663  0.68953  0.08994  1.0000
  C   C232      1.0  0.39413  0.85913  0.01202  1.0000
  Fe  Fe38      1.0  0.27359  0.74317  0.98120  1.0000
  S   S78       1.0  0.31280  0.71953  0.97549  1.0000
  Fe  Fe39      1.0  0.27556  0.76903  0.92548  1.0000
  S   S79       1.0  0.31473  0.74744  0.91495  1.0000
  S   S80       1.0  0.25623  0.79382  0.89201  1.0000
  C   C233      1.0  0.07613  0.74913  0.89491  1.0000
  C   C234      1.0  0.11904  0.87481  0.85868  1.0000
  Fe  Fe40      1.0  0.32815  0.75883  0.95704  1.0000
  S   S81       1.0  0.37078  0.77670  0.95966  1.0000
  S   S82       1.0  0.25566  0.73114  0.94137  1.0000
  S   S83       1.0  0.29006  0.78353  0.96617  1.0000
  Fe  Fe41      1.0  0.11341  0.80068  0.84653  1.0000
  S   S84       1.0  0.11313  0.75780  0.83094  1.0000
  S   S85       1.0  0.12751  0.80602  0.88951  1.0000
  Fe  Fe42      1.0  0.09048  0.82449  0.79375  1.0000
  S   S86       1.0  0.08797  0.78284  0.77409  1.0000
  S   S87       1.0  0.08585  0.86418  0.77009  1.0000
  Fe  Fe43      1.0  0.07174  0.76928  0.81471  1.0000
  H   H242      1.0  0.41309  0.85179  0.96304  1.0000
  Fe  Fe44      1.0  0.12947  0.77531  0.79250  1.0000
  S   S88       1.0  0.16778  0.75837  0.77331  1.0000
  S   S89       1.0  0.07089  0.81157  0.83295  1.0000
  S   S90       1.0  0.13319  0.81771  0.80936  1.0000
  C   C235      1.0  0.13579  0.88824  0.81473  1.0000
  C   C236      1.0  0.07246  0.73634  0.94116  1.0000
  H   H243      1.0  0.19583  0.85355  0.87680  1.0000
  C   C237      1.0  0.05617  0.88489  0.77138  1.0000
  C   C238      1.0  0.05535  0.90909  0.75593  1.0000
  C   C239      1.0  0.23084  0.70067  0.86518  1.0000
  C   C240      1.0  0.24777  0.74108  0.79094  1.0000
  H   H244      1.0  0.07311  0.91511  0.74430  1.0000
  H   H245      1.0  0.38361  0.83501  0.94999  1.0000
  S   S91       1.0  0.03971  0.73740  0.82326  1.0000
  C   C241      1.0  0.19503  0.86301  0.85626  1.0000
  C   C242      1.0  0.16547  0.72456  0.76127  1.0000
  C   C243      1.0  0.18924  0.71145  0.75193  1.0000
  C   C244      1.0  0.16235  0.88104  0.82297  1.0000
  H   H246      1.0  0.20859  0.88123  0.85626  1.0000
  H   H247      1.0  0.42394  0.79761  0.97174  1.0000
  C   C245      1.0  0.14056  0.71046  0.76116  1.0000
  H   H248      1.0  0.20832  0.72248  0.75117  1.0000
  C   C246      1.0  0.07862  0.70903  0.93470  1.0000
  C   C247      1.0  0.08183  0.72193  0.88767  1.0000
  H   H249      1.0  0.12209  0.72057  0.76819  1.0000
  H   H250      1.0  0.20323  0.84745  0.84188  1.0000
  H   H251      1.0  0.06874  0.74173  0.96218  1.0000
  H   H252      1.0  0.22931  0.75289  0.78441  1.0000
  N   N20       1.0  0.16707  0.87096  0.84845  1.0000
  N   N21       1.0  0.02424  0.87751  0.69907  1.0000
  Fe  Fe45      1.0  0.29595  0.71048  0.93412  1.0000
  H   H253      1.0  0.17905  0.88292  0.80863  1.0000
  N   N22       1.0  0.07088  0.75589  0.92128  1.0000
  C   C248      1.0  0.16296  0.79958  0.89104  1.0000
  C   C249      1.0  0.17759  0.79486  0.86716  1.0000
  C   C250      1.0  0.20619  0.79278  0.86774  1.0000
  C   C251      1.0  0.22031  0.79423  0.89235  1.0000
  C   C252      1.0  0.20568  0.79756  0.91650  1.0000
  C   C253      1.0  0.17699  0.80066  0.91579  1.0000
  H   H254      1.0  0.16700  0.79323  0.84809  1.0000
  H   H255      1.0  0.21735  0.79017  0.84900  1.0000
  H   H256      1.0  0.21655  0.79872  0.93558  1.0000
  H   H257      1.0  0.16578  0.80417  0.93437  1.0000
  C   C254      1.0  0.22831  0.70272  0.81643  1.0000
  H   H258      1.0  0.13189  0.89543  0.79424  1.0000
  H   H259      1.0  0.38324  0.87205  0.95363  1.0000
  H   H260      1.0  0.22228  0.69337  0.79743  1.0000
  H   H261      1.0  0.14954  0.86016  0.88658  1.0000
  H   H262      1.0  0.08468  0.71654  0.86652  1.0000
  H   H263      1.0  0.07524  0.76466  0.87919  1.0000
  S   S92       1.0  0.51375  0.88427  0.99542  1.0000
  C   C255      1.0  0.35396  0.83856  0.99419  1.0000
  H   H264      1.0  0.03362  0.85861  0.79833  1.0000
  C   C256      1.0  0.24967  0.73891  0.84054  1.0000
  C   C257      1.0  0.11400  0.88487  0.83266  1.0000
  H   H265      1.0  0.34241  0.83076  0.97706  1.0000
  H   H266      1.0  0.08311  0.79441  0.93673  1.0000
  H   H267      1.0  0.25335  0.72589  0.77504  1.0000
  H   H268      1.0  0.06581  0.87063  0.71025  1.0000
  C   C258      1.0  0.14590  0.86820  0.86638  1.0000
  H   H269      1.0  0.26023  0.75845  0.84086  1.0000
  H   H270      1.0  0.10221  0.87151  0.87264  1.0000
  N   N23       1.0  0.24209  0.72709  0.81658  1.0000
  C   C259      1.0  0.06449  0.78439  0.92850  1.0000
  H   H271      1.0  0.09319  0.88949  0.82612  1.0000
  C   C260      1.0  0.39030  0.85248  0.96289  1.0000
  C   C261      1.0  0.41399  0.79305  0.99078  1.0000
  H   H272      1.0  0.41432  0.86781  0.00908  1.0000
  H   H273      1.0  0.02103  0.69977  0.86417  1.0000
  H   H274      1.0  0.04219  0.84818  0.72658  1.0000
  C   C262      1.0  0.38798  0.78091  0.99078  1.0000
  C   C263      1.0  0.08295  0.70177  0.90772  1.0000
  H   H275      1.0  0.26531  0.75536  0.79289  1.0000
  H   H276      1.0  0.04547  0.89144  0.66395  1.0000
  H   H277      1.0  0.05000  0.84301  0.69140  1.0000
  Fe  Fe46      1.0  0.03397  0.69973  0.00518  1.0000
  H   H278      1.0  0.07968  0.69360  0.95054  1.0000
  C   C264      1.0  0.02690  0.89278  0.67593  1.0000
  C   C265      1.0  0.03320  0.87729  0.78643  1.0000
  H   H279      1.0  0.05739  0.79633  0.91057  1.0000
  C   C266      1.0  0.03153  0.92540  0.75506  1.0000
  H   H280      1.0  0.04762  0.78514  0.94363  1.0000
  H   H281      1.0  0.03102  0.94386  0.74289  1.0000
  C   C267      1.0  0.24424  0.72585  0.86511  1.0000
  H   H282      1.0  0.25087  0.73509  0.88389  1.0000
  S   S93       1.0  0.07987  0.69827  0.00950  1.0000
  C   C268      1.0  0.22262  0.68905  0.84070  1.0000
  H   H283      1.0  0.31159  0.70406  0.87482  1.0000
  C   C269      1.0  0.04658  0.85890  0.70715  1.0000
  N   N24       1.0  0.37928  0.84984  0.99038  1.0000
  H   H284      1.0  0.30770  0.70150  0.82482  1.0000
  C   C270      1.0  0.02267  0.74282  0.85416  1.0000
  H   H285      1.0  0.22737  0.69000  0.88415  1.0000
  S   S94       1.0  0.01784  0.68710  0.96463  1.0000
  H   H286      1.0  0.02039  0.78673  0.84972  1.0000
  C   C271      1.0  0.30133  0.68688  0.86558  1.0000
  C   C272      1.0  0.29925  0.68534  0.83725  1.0000
  H   H287      1.0  0.63645  0.08494  0.12340  1.0000
  Fe  Fe47      1.0  0.58365  0.06034  0.21535  1.0000
  S   S95       1.0  0.55570  0.09519  0.20304  1.0000
  S   S96       1.0  0.62702  0.06340  0.23040  1.0000
  Fe  Fe48      1.0  0.54292  0.06684  0.16952  1.0000
  S   S97       1.0  0.53666  0.07729  0.12578  1.0000
  H   H288      1.0  0.97095  0.10566  0.48423  1.0000
  H   H289      1.0  0.59822  0.05758  0.04992  1.0000
  C   C273      1.0  0.90141  0.04392  0.42738  1.0000
  C   C274      1.0  0.64232  0.03089  0.23423  1.0000
  S   S98       1.0  0.55173  0.30530  0.43055  1.0000
  C   C275      1.0  0.86968  0.07604  0.40692  1.0000
  H   H290      1.0  0.66919  0.06027  0.15108  1.0000
  C   C276      1.0  0.96399  0.14084  0.50976  1.0000
  C   C277      1.0  0.61958  0.24396  0.47670  1.0000
  H   H291      1.0  0.64130  0.22350  0.50919  1.0000
  C   C278      1.0  0.93026  0.10549  0.50111  1.0000
  S   S99       1.0  0.65297  0.06496  0.07142  1.0000
  S   S100      1.0  0.84481  0.06053  0.47270  1.0000
  S   S101      1.0  0.57393  0.03445  0.17930  1.0000
  S   S102      1.0  0.92263  0.07300  0.48784  1.0000
  H   H292      1.0  0.53460  0.27336  0.38493  1.0000
  H   H293      1.0  0.67755  0.04611  0.25573  1.0000
  H   H294      1.0  0.79310  0.02568  0.43508  1.0000
  N   N25       1.0  0.88706  0.02244  0.41678  1.0000
  S   S103      1.0  0.52538  0.33032  0.50204  1.0000
  C   C279      1.0  0.89302  0.07103  0.42257  1.0000
  H   H295      1.0  0.70246  0.07105  0.03494  1.0000
  H   H296      1.0  0.59317  0.26606  0.44898  1.0000
  C   C280      1.0  0.51988  0.29099  0.42222  1.0000
  Fe  Fe49      1.0  0.55052  0.33577  0.46455  1.0000
  H   H297      1.0  0.90415  0.08793  0.43166  1.0000
  H   H298      1.0  0.67022  0.04742  0.18512  1.0000
  H   H299      1.0  0.63837  0.04746  0.16705  1.0000
  S   S104      1.0  0.55299  0.04036  0.24243  1.0000
  Fe  Fe50      1.0  0.52386  0.07274  0.22722  1.0000
  H   H300      1.0  0.86257  0.09695  0.40362  1.0000
  H   H301      1.0  0.74226  0.04461  0.01817  1.0000
  Fe  Fe51      1.0  0.65298  0.03065  0.04126  1.0000
  C   C281      1.0  0.62276  0.23443  0.50320  1.0000
  C   C282      1.0  0.66774  0.02818  0.24727  1.0000
  C   C283      1.0  0.62038  0.07037  0.08547  1.0000
  C   C284      1.0  0.59665  0.06454  0.07067  1.0000
  C   C285      1.0  0.57077  0.06818  0.08264  1.0000
  C   C286      1.0  0.56871  0.07624  0.10978  1.0000
  C   C287      1.0  0.59246  0.08203  0.12452  1.0000
  C   C288      1.0  0.61820  0.07978  0.11214  1.0000
  H   H302      1.0  0.63544  0.24013  0.46177  1.0000
  Fe  Fe52      1.0  0.88154  0.05629  0.49977  1.0000
  H   H303      1.0  0.59097  0.08862  0.14539  1.0000
  H   H304      1.0  0.55238  0.06405  0.07112  1.0000
  H   H305      1.0  0.52234  0.13738  0.23294  1.0000
  H   H306      1.0  0.76137  0.02979  0.39573  1.0000
  C   C289      1.0  0.95636  0.11639  0.49694  1.0000
  C   C290      1.0  0.51713  0.27605  0.39816  1.0000
  C   C291      1.0  0.66086  0.04431  0.16481  1.0000
  C   C292      1.0  0.57587  0.26367  0.48913  1.0000
  C   C293      1.0  0.59596  0.25858  0.46955  1.0000
  H   H307      1.0  0.55756  0.27503  0.48331  1.0000
  H   H308      1.0  0.91922  0.04016  0.44009  1.0000
  C   C294      1.0  0.85523  0.05400  0.39604  1.0000
  H   H309      1.0  0.76242  0.07571  0.02109  1.0000
  S   S105      1.0  0.58898  0.34644  0.48672  1.0000
  H   H310      1.0  0.66225  0.09884  0.02136  1.0000
  H   H311      1.0  0.83682  0.05756  0.38413  1.0000
  H   H312      1.0  0.58657  0.01899  0.28636  1.0000
  H   H313      1.0  0.98409  0.14920  0.50626  1.0000
  C   C295      1.0  0.86439  0.02718  0.40105  1.0000
  H   H314      1.0  0.64799  0.02596  0.11583  1.0000
  C   C296      1.0  0.70291  0.08204  0.01581  1.0000
  H   H315      1.0  0.76122  0.07034  0.89458  1.0000
  H   H316      1.0  0.77159  0.07675  0.56876  1.0000
  S   S106      1.0  0.95307  0.28481  0.74924  1.0000
  Fe  Fe53      1.0  0.88229  0.32022  0.74629  1.0000
  S   S107      1.0  0.88744  0.27551  0.73733  1.0000
  C   C297      1.0  0.74898  0.06358  0.00756  1.0000
  Fe  Fe54      1.0  0.91535  0.27571  0.77331  1.0000
  S   S108      1.0  0.91668  0.24044  0.80240  1.0000
  Fe  Fe55      1.0  0.92443  0.28872  0.71395  1.0000
  S   S109      1.0  0.92914  0.27292  0.67128  1.0000
  S   S110      1.0  0.90699  0.31951  0.78484  1.0000
  Fe  Fe56      1.0  0.75428  0.11383  0.84937  1.0000
  S   S111      1.0  0.77309  0.08622  0.81798  1.0000
  S   S112      1.0  0.71600  0.10283  0.87271  1.0000
  Fe  Fe57      1.0  0.78987  0.16247  0.83312  1.0000
  S   S113      1.0  0.81141  0.13904  0.80041  1.0000
  S   S114      1.0  0.79722  0.20769  0.83847  1.0000
  Fe  Fe58      1.0  0.77005  0.12265  0.79020  1.0000
  S   S115      1.0  0.75739  0.11805  0.74657  1.0000
  Fe  Fe59      1.0  0.81282  0.10506  0.83101  1.0000
  S   S116      1.0  0.85178  0.08067  0.83519  1.0000
  S   S117      1.0  0.74807  0.14887  0.82041  1.0000
  S   S118      1.0  0.79444  0.12982  0.86502  1.0000
  Fe  Fe60      1.0  0.76801  0.21936  0.61200  1.0000
  S   S119      1.0  0.72342  0.20869  0.61488  1.0000
  S   S120      1.0  0.80327  0.19023  0.60525  1.0000
  Fe  Fe61      1.0  0.75869  0.27913  0.62697  1.0000
  S   S121      1.0  0.71329  0.27410  0.63117  1.0000
  S   S122      1.0  0.77730  0.32065  0.63317  1.0000
  Fe  Fe62      1.0  0.72424  0.23470  0.65241  1.0000
  S   S123      1.0  0.70636  0.22440  0.69298  1.0000
  Fe  Fe63      1.0  0.71639  0.24901  0.59328  1.0000
  S   S124      1.0  0.68947  0.25530  0.55648  1.0000
  S   S125      1.0  0.76943  0.24203  0.65141  1.0000
  S   S126      1.0  0.76125  0.25736  0.58720  1.0000
  H   H317      1.0  0.80442  0.03959  0.58122  1.0000
  C   C298      1.0  0.65927  0.27495  0.55911  1.0000
  C   C299      1.0  0.64832  0.28663  0.53553  1.0000
  C   C300      1.0  0.62374  0.30161  0.53641  1.0000
  C   C301      1.0  0.60986  0.30521  0.56087  1.0000
  C   C302      1.0  0.62096  0.29376  0.58462  1.0000
  C   C303      1.0  0.64573  0.27876  0.58378  1.0000
  H   H318      1.0  0.94895  0.32814  0.66498  1.0000
  H   H319      1.0  0.92411  0.30816  0.62028  1.0000
  H   H320      1.0  0.65402  0.26970  0.60210  1.0000
  C   C304      1.0  0.74562  0.14861  0.73147  1.0000
  C   C305      1.0  0.73890  0.17146  0.74731  1.0000
  C   C306      1.0  0.72646  0.19454  0.73541  1.0000
  C   C307      1.0  0.72212  0.19546  0.70740  1.0000
  C   C308      1.0  0.73009  0.17319  0.69132  1.0000
  C   C309      1.0  0.74130  0.14955  0.70343  1.0000
  H   H321      1.0  0.74236  0.17108  0.76884  1.0000
  H   H322      1.0  0.72049  0.21183  0.74788  1.0000
  H   H323      1.0  0.72669  0.17382  0.66967  1.0000
  H   H324      1.0  0.74633  0.13187  0.69113  1.0000
  C   C310      1.0  0.88391  0.23165  0.81394  1.0000
  C   C311      1.0  0.86358  0.25181  0.81693  1.0000
  C   C312      1.0  0.83731  0.24445  0.82583  1.0000
  C   C313      1.0  0.83106  0.21687  0.83080  1.0000
  C   C314      1.0  0.85150  0.19680  0.82810  1.0000
  C   C315      1.0  0.87799  0.20424  0.82000  1.0000
  H   H325      1.0  0.86815  0.27306  0.81257  1.0000
  H   H326      1.0  0.82159  0.26004  0.82826  1.0000
  H   H327      1.0  0.84699  0.17553  0.83241  1.0000
  H   H328      1.0  0.89372  0.18862  0.81789  1.0000
  Fe  Fe64      1.0  0.85151  0.02167  0.54116  1.0000
  C   C316      1.0  0.82733  0.31008  0.69808  1.0000
  C   C317      1.0  0.81194  0.30483  0.67455  1.0000
  C   C318      1.0  0.79380  0.32482  0.66449  1.0000
  S   S127      1.0  0.84188  0.34192  0.74205  1.0000
  H   H329      1.0  0.75223  0.14207  0.53414  1.0000
  H   H330      1.0  0.84161  0.29483  0.70551  1.0000
  H   H331      1.0  0.81484  0.28577  0.66367  1.0000
  S   S128      1.0  0.91721  0.33372  0.72031  1.0000
  C   C319      1.0  0.79945  0.16691  0.57851  1.0000
  C   C320      1.0  0.82142  0.14955  0.57196  1.0000
  C   C321      1.0  0.81847  0.12953  0.55182  1.0000
  C   C322      1.0  0.77162  0.14424  0.54458  1.0000
  C   C323      1.0  0.77464  0.16456  0.56453  1.0000
  H   H332      1.0  0.84073  0.15143  0.58257  1.0000
  H   H333      1.0  0.95289  0.18662  0.63373  1.0000
  H   H334      1.0  0.75764  0.17805  0.56937  1.0000
  C   C324      1.0  0.87888  0.04510  0.75416  1.0000
  C   C325      1.0  0.98368  0.26064  0.68017  1.0000
  C   C326      1.0  0.96189  0.26127  0.66175  1.0000
  C   C327      1.0  0.96597  0.25196  0.63523  1.0000
  C   C328      1.0  0.99150  0.24128  0.62736  1.0000
  H   H335      1.0  0.98080  0.26798  0.70058  1.0000
  H   H336      1.0  0.94935  0.25285  0.62075  1.0000
  H   H337      1.0  0.54231  0.24366  0.53458  1.0000
  H   H338      1.0  0.70365  0.12054  0.94745  1.0000
  C   C329      1.0  0.88974  0.05969  0.79991  1.0000
  C   C330      1.0  0.86291  0.06948  0.80324  1.0000
  C   C331      1.0  0.84443  0.06816  0.78161  1.0000
  H   H339      1.0  0.84214  0.23232  0.62349  1.0000
  H   H340      1.0  0.90413  0.06093  0.81654  1.0000
  H   H341      1.0  0.82372  0.07576  0.78398  1.0000
  H   H342      1.0  0.92108  0.21390  0.65757  1.0000
  H   H343      1.0  0.83767  0.05391  0.74087  1.0000
  H   H344      1.0  0.76272  0.03557  0.93149  1.0000
  H   H345      1.0  0.92207  0.27972  0.84585  1.0000
  H   H346      1.0  0.77584  0.14063  0.63901  1.0000
  C   C332      1.0  0.69453  0.05024  0.93257  1.0000
  C   C333      1.0  0.69370  0.06983  0.91164  1.0000
  C   C334      1.0  0.71774  0.07727  0.89796  1.0000
  C   C335      1.0  0.74260  0.06476  0.90506  1.0000
  Fe  Fe65      1.0  0.99019  0.02618  0.71334  1.0000
  H   H347      1.0  0.91609  0.32236  0.87296  1.0000
  H   H348      1.0  0.67438  0.07935  0.90614  1.0000
  N   N26       1.0  0.97255  0.06465  0.56722  1.0000
  H   H349      1.0  0.60519  0.23291  0.54297  1.0000
  C   C336      1.0  0.79343  0.12640  0.53843  1.0000
  N   N27       1.0  0.80228  0.23926  0.75088  1.0000
  C   C337      1.0  0.78208  0.23688  0.73180  1.0000
  C   C338      1.0  0.80822  0.26435  0.76176  1.0000
  C   C339      1.0  0.76739  0.26004  0.72303  1.0000
  C   C340      1.0  0.79378  0.28786  0.75362  1.0000
  C   C341      1.0  0.77337  0.28567  0.73398  1.0000
  C   C342      1.0  0.81636  0.21458  0.76097  1.0000
  H   H350      1.0  0.77719  0.21700  0.72325  1.0000
  C   C343      1.0  0.67235  0.15642  0.80058  1.0000
  H   H351      1.0  0.75136  0.25813  0.70792  1.0000
  H   H352      1.0  0.67809  0.15155  0.73216  1.0000
  H   H353      1.0  0.76242  0.30386  0.72707  1.0000
  H   H354      1.0  0.99450  0.23401  0.60690  1.0000
  H   H355      1.0  0.83757  0.21927  0.76779  1.0000
  H   H356      1.0  0.80490  0.20602  0.77848  1.0000
  C   C344      1.0  0.88041  0.31393  0.61941  1.0000
  H   H357      1.0  0.79302  0.12247  0.66585  1.0000
  C   C345      1.0  0.82373  0.33484  0.71213  1.0000
  C   C346      1.0  0.93427  0.31951  0.86063  1.0000
  H   H358      1.0  0.79867  0.30772  0.76226  1.0000
  H   H359      1.0  0.99824  0.30110  0.79052  1.0000
  C   C347      1.0  0.91130  0.11985  0.51700  1.0000
  H   H360      1.0  0.61036  0.29640  0.60369  1.0000
  H   H361      1.0  0.89084  0.11204  0.51965  1.0000
  C   C348      1.0  0.68928  0.11989  0.76090  1.0000
  H   H362      1.0  0.66245  0.12354  0.97712  1.0000
  H   H363      1.0  0.65649  0.34619  0.59411  1.0000
  C   C349      1.0  0.94554  0.15455  0.52671  1.0000
  C   C350      1.0  0.85235  0.05578  0.75720  1.0000
  C   C351      1.0  0.88091  0.22470  0.64328  1.0000
  N   N28       1.0  0.79631  0.10337  0.62716  1.0000
  C   C352      1.0  0.78086  0.10116  0.60412  1.0000
  C   C353      1.0  0.81465  0.08313  0.63403  1.0000
  C   C354      1.0  0.78348  0.07818  0.58732  1.0000
  C   C355      1.0  0.81772  0.05982  0.61772  1.0000
  C   C356      1.0  0.80204  0.05743  0.59420  1.0000
  H   H364      1.0  0.81253  0.14119  0.64070  1.0000
  C   C357      1.0  0.68009  0.09783  0.00825  1.0000
  C   C358      1.0  0.00440  0.30878  0.81082  1.0000
  C   C359      1.0  0.98563  0.05406  0.58945  1.0000
  H   H365      1.0  0.98047  0.06985  0.52517  1.0000
  H   H366      1.0  0.87698  0.29766  0.60485  1.0000
  H   H367      1.0  0.00566  0.11282  0.68143  1.0000
  H   H368      1.0  0.83229  0.04373  0.62312  1.0000
  H   H369      1.0  0.54799  0.28027  0.53176  1.0000
  C   C360      1.0  0.67878  0.14559  0.75336  1.0000
  H   H370      1.0  0.94107  0.16786  0.60463  1.0000
  H   H371      1.0  0.82427  0.26642  0.77673  1.0000
  H   H372      1.0  0.74357  0.09291  0.96201  1.0000
  H   H373      1.0  0.76671  0.11740  0.59830  1.0000
  N   N29       1.0  0.72523  0.08011  0.99915  1.0000
  C   C361      1.0  0.95439  0.33973  0.85979  1.0000
  S   S129      1.0  0.64785  0.03559  0.99645  1.0000
  H   H374      1.0  0.65878  0.28384  0.51640  1.0000
  H   H375      1.0  0.96309  0.27398  0.81705  1.0000
  H   H376      1.0  0.70911  0.08489  0.81649  1.0000
  H   H377      1.0  0.68414  0.12470  0.82861  1.0000
  H   H378      1.0  0.90427  0.15516  0.54230  1.0000
  C   C362      1.0  0.70258  0.08570  0.79490  1.0000
  C   C363      1.0  0.94206  0.04452  0.61030  1.0000
  Fe  Fe66      1.0  0.94269  0.32898  0.75787  1.0000
  C   C364      1.0  0.74340  0.04508  0.92595  1.0000
  H   H379      1.0  0.70752  0.31502  0.55037  1.0000
  C   C365      1.0  0.67058  0.16407  0.77337  1.0000
  C   C366      1.0  0.72589  0.09437  0.97525  1.0000
  H   H380      1.0  0.61542  0.30982  0.51797  1.0000
  S   S130      1.0  0.00958  0.16854  0.59825  1.0000
  C   C367      1.0  0.93758  0.29563  0.84539  1.0000
  H   H381      1.0  0.82708  0.08493  0.65217  1.0000
  H   H382      1.0  0.87513  0.23476  0.66206  1.0000
  Fe  Fe67      1.0  0.56316  0.34435  0.52402  1.0000
  N   N30       1.0  0.91457  0.20041  0.61691  1.0000
  H   H383      1.0  0.83560  0.11657  0.54676  1.0000
  H   H384      1.0  0.95452  0.20190  0.60055  1.0000
  C   C368      1.0  0.97062  0.04383  0.61131  1.0000
  C   C369      1.0  0.94453  0.06503  0.56588  1.0000
  H   H385      1.0  0.67592  0.04475  0.94305  1.0000
  H   H386      1.0  0.76096  0.05644  0.98971  1.0000
  H   H387      1.0  0.81789  0.19850  0.74510  1.0000
  H   H388      1.0  0.90665  0.05463  0.58605  1.0000
  C   C370      1.0  0.89779  0.04769  0.77531  1.0000
  S   S131      1.0  0.95587  0.18368  0.54494  1.0000
  S   S132      1.0  0.85933  0.06667  0.53805  1.0000
  H   H389      1.0  0.90335  0.19060  0.57633  1.0000
  C   C371      1.0  0.55801  0.26002  0.53538  1.0000
  S   S133      1.0  0.81216  0.02299  0.51763  1.0000
  C   C372      1.0  0.87066  0.21117  0.59741  1.0000
  H   H390      1.0  0.66624  0.17066  0.81637  1.0000
  C   C373      1.0  0.94209  0.18859  0.61398  1.0000
  S   S134      1.0  0.57872  0.32379  0.56228  1.0000
  C   C374      1.0  0.92886  0.05484  0.58733  1.0000
  C   C375      1.0  0.70335  0.11016  0.96694  1.0000
  H   H391      1.0  0.91831  0.03973  0.77311  1.0000
  H   H392      1.0  0.93018  0.03657  0.62708  1.0000
  C   C376      1.0  0.79430  0.12806  0.64405  1.0000
  C   C377      1.0  0.60225  0.23987  0.52227  1.0000
  C   C378      1.0  0.89699  0.19984  0.59532  1.0000
  H   H393      1.0  0.69662  0.10604  0.74526  1.0000
  H   H394      1.0  0.68689  0.06967  0.79156  1.0000
  C   C379      1.0  0.68260  0.13039  0.80738  1.0000
  H   H395      1.0  0.56678  0.26105  0.55617  1.0000
  H   H396      1.0  0.00779  0.05341  0.59034  1.0000
  C   C380      1.0  0.68025  0.11173  0.98351  1.0000
  H   H397      1.0  0.72102  0.08094  0.78247  1.0000
  C   C381      1.0  0.91891  0.14440  0.52975  1.0000
  C   C382      1.0  0.96082  0.29251  0.82907  1.0000
  C   C383      1.0  0.97749  0.33582  0.84344  1.0000
  H   H398      1.0  0.93417  0.07312  0.54813  1.0000
  C   C384      1.0  0.70053  0.32991  0.56602  1.0000
  C   C385      1.0  0.90694  0.21280  0.64062  1.0000
  H   H399      1.0  0.98723  0.09950  0.54627  1.0000
  N   N31       1.0  0.69145  0.11276  0.78763  1.0000
  C   C386      1.0  0.71942  0.03794  0.93990  1.0000
  N   N32       1.0  0.98020  0.31266  0.82798  1.0000
  C   C387      1.0  0.86261  0.22365  0.62158  1.0000
  S   S135      1.0  0.95469  0.02719  0.68473  1.0000
  H   H400      1.0  0.85643  0.21006  0.58050  1.0000
  H   H401      1.0  0.66325  0.18439  0.76776  1.0000
  C   C388      1.0  0.98848  0.07673  0.54512  1.0000
  S   S136      1.0  0.88676  0.02611  0.72494  1.0000
  C   C389      1.0  0.90699  0.32008  0.62808  1.0000
  Fe  Fe68      1.0  0.00078  0.18171  0.55572  1.0000
  H   H402      1.0  0.69483  0.31743  0.58402  1.0000
  S   S137      1.0  0.78829  0.09937  0.51534  1.0000
  C   C390      1.0  0.01607  0.09846  0.66822  1.0000
  C   C391      1.0  0.01320  0.24032  0.64586  1.0000
  C   C392      1.0  0.00936  0.25027  0.67219  1.0000
  H   H403      1.0  0.98110  0.03522  0.62882  1.0000
  C   C393      1.0  0.79045  0.34957  0.67844  1.0000
  H   H404      1.0  0.83752  0.32424  0.62334  1.0000
  C   C394      1.0  0.93957  0.34645  0.65505  1.0000
  C   C395      1.0  0.85828  0.32875  0.62987  1.0000
  H   H405      1.0  0.71782  0.34347  0.57168  1.0000
  N   N33       1.0  0.67727  0.34635  0.55609  1.0000
  H   H406      1.0  0.82493  0.02000  0.83404  1.0000
  H   H407      1.0  0.01520  0.32851  0.80718  1.0000
  N   N34       1.0  0.91137  0.34033  0.64674  1.0000
  H   H408      1.0  0.01052  0.07082  0.54626  1.0000
  Fe  Fe69      1.0  0.82195  0.06762  0.51162  1.0000
  N   N35       1.0  0.57939  0.25470  0.51521  1.0000
  H   H409      1.0  0.69359  0.34991  0.51619  1.0000
  C   C396      1.0  0.86291  0.34915  0.64911  1.0000
  C   C397      1.0  0.54664  0.66341  0.29989  1.0000
  H   H410      1.0  0.55889  0.66356  0.36766  1.0000
  H   H411      1.0  0.55585  0.43561  0.44803  1.0000
  C   C398      1.0  0.61610  0.47004  0.45155  1.0000
  C   C399      1.0  0.55790  0.67136  0.32471  1.0000
  C   C400      1.0  0.58325  0.49495  0.42376  1.0000
  H   H412      1.0  0.62429  0.50861  0.43196  1.0000
  C   C401      1.0  0.57083  0.45137  0.44438  1.0000
  C   C402      1.0  0.56396  0.47422  0.42816  1.0000
  C   C403      1.0  0.60932  0.49267  0.43534  1.0000
  H   H413      1.0  0.58214  0.56031  0.29245  1.0000
  S   S138      1.0  0.00324  0.67598  0.02909  1.0000
  H   H414      1.0  0.61745  0.64540  0.33799  1.0000
  H   H415      1.0  0.59428  0.62119  0.30061  1.0000
  H   H416      1.0  0.54384  0.47579  0.41910  1.0000
  C   C404      1.0  0.56723  0.57379  0.30306  1.0000
  Fe  Fe70      1.0  0.57429  0.38989  0.48402  1.0000
  C   C405      1.0  0.59344  0.59009  0.37247  1.0000
  Fe  Fe71      1.0  0.53155  0.53167  0.39344  1.0000
  H   H417      1.0  0.59272  0.58127  0.39267  1.0000
  H   H418      1.0  0.57010  0.55760  0.35471  1.0000
  S   S139      1.0  0.57550  0.52438  0.40460  1.0000
  C   C406      1.0  0.55038  0.65737  0.34839  1.0000
  N   N36       1.0  0.58072  0.58806  0.32548  1.0000
  C   C407      1.0  0.58053  0.57681  0.35089  1.0000
  C   C408      1.0  0.59440  0.61201  0.32064  1.0000
  C   C409      1.0  0.54679  0.49528  0.49101  1.0000
  C   C410      1.0  0.60769  0.62576  0.34172  1.0000
  C   C411      1.0  0.60696  0.61481  0.36783  1.0000
  C   C412      1.0  0.59693  0.44938  0.45620  1.0000
  S   S140      1.0  0.60598  0.42224  0.47799  1.0000
  H   H419      1.0  0.55818  0.58875  0.28848  1.0000
  H   H420      1.0  0.63626  0.46863  0.46064  1.0000
  H   H421      1.0  0.00572  0.60928  0.03083  1.0000
  H   H422      1.0  0.54984  0.56119  0.31045  1.0000
  S   S141      1.0  0.53862  0.37959  0.45763  1.0000
  C   C413      1.0  0.52859  0.64102  0.29875  1.0000
  C   C414      1.0  0.53255  0.63488  0.34720  1.0000
  H   H423      1.0  0.61655  0.62566  0.38447  1.0000
  C   C415      1.0  0.53072  0.47810  0.50700  1.0000
  S   S142      1.0  0.51720  0.57532  0.39663  1.0000
  H   H424      1.0  0.52019  0.63470  0.27946  1.0000
  H   H425      1.0  0.56810  0.49016  0.48714  1.0000
  H   H426      1.0  0.55225  0.67415  0.28154  1.0000
  H   H427      1.0  0.52721  0.62411  0.36553  1.0000
  H   H428      1.0  0.54732  0.53185  0.46633  1.0000
  C   C416      1.0  0.52187  0.62640  0.32234  1.0000
  H   H429      1.0  0.65492  0.37869  0.49919  1.0000
  C   C417      1.0  0.53521  0.51887  0.47958  1.0000
  H   H430      1.0  0.94013  0.52462  0.83669  1.0000
  C   C418      1.0  0.93945  0.51650  0.92337  1.0000
  S   S143      1.0  0.97563  0.62156  0.98148  1.0000
  C   C419      1.0  0.00035  0.41486  0.82108  1.0000
  C   C420      1.0  0.63441  0.36954  0.56423  1.0000
  C   C421      1.0  0.00973  0.57030  0.92682  1.0000
  C   C422      1.0  0.93859  0.54417  0.93069  1.0000
  C   C423      1.0  0.00051  0.39599  0.79957  1.0000
  C   C424      1.0  0.65533  0.37162  0.52008  1.0000
  H   H431      1.0  0.93567  0.50065  0.93834  1.0000
  N   N37       1.0  0.95150  0.52919  0.87787  1.0000
  C   C425      1.0  0.94368  0.56427  0.91123  1.0000
  H   H432      1.0  0.93380  0.40858  0.84021  1.0000
  H   H433      1.0  0.80198  0.37343  0.71331  1.0000
  C   C426      1.0  0.00969  0.58592  0.90303  1.0000
  C   C427      1.0  0.97673  0.38152  0.79270  1.0000
  C   C428      1.0  0.95261  0.38624  0.80730  1.0000
  H   H434      1.0  0.97551  0.53422  0.84234  1.0000
  C   C429      1.0  0.94568  0.50933  0.89661  1.0000
  C   C430      1.0  0.67703  0.35539  0.52981  1.0000
  S   S144      1.0  0.01307  0.49634  0.90558  1.0000
  S   S145      1.0  0.55082  0.38901  0.52294  1.0000
  H   H435      1.0  0.61744  0.37429  0.57766  1.0000
  C   C431      1.0  0.63390  0.37866  0.53744  1.0000
  C   C432      1.0  0.95022  0.55637  0.88478  1.0000
  C   C433      1.0  0.98994  0.60865  0.95152  1.0000
  C   C434      1.0  0.99128  0.62483  0.92813  1.0000
  H   H436      1.0  0.94344  0.58584  0.91681  1.0000
  H   H437      1.0  0.77657  0.36514  0.67067  1.0000
  H   H438      1.0  0.99862  0.56896  0.96901  1.0000
  S   S146      1.0  0.97849  0.35667  0.76683  1.0000
  Fe  Fe72      1.0  0.98515  0.66603  0.98851  1.0000
  H   H439      1.0  0.94654  0.48774  0.89111  1.0000
  C   C435      1.0  0.97635  0.41936  0.83589  1.0000
  H   H440      1.0  0.95509  0.57212  0.87000  1.0000
  C   C436      1.0  0.95247  0.40508  0.82889  1.0000
  H   H441      1.0  0.96488  0.49967  0.84850  1.0000
  H   H442      1.0  0.93429  0.55011  0.95145  1.0000
  C   C437      1.0  0.95827  0.52154  0.84996  1.0000
  H   H443      1.0  0.84576  0.36040  0.65777  1.0000
  C   C438      1.0  0.88972  0.35465  0.65747  1.0000
  S   S147      1.0  0.97585  0.44221  0.86355  1.0000
  H   H444      1.0  0.93415  0.37525  0.80210  1.0000
  C   C439      1.0  0.99940  0.58147  0.95089  1.0000
  H   H445      1.0  0.00087  0.62558  0.88548  1.0000
  H   H446      1.0  0.98393  0.64584  0.92851  1.0000
  C   C440      1.0  0.00085  0.61335  0.90380  1.0000
  H   H447      1.0  0.53940  0.45932  0.51535  1.0000
  H   H448      1.0  0.89298  0.37027  0.67276  1.0000
  C   C441      1.0  0.65648  0.35348  0.57334  1.0000
  H   H449      1.0  0.94048  0.36371  0.66973  1.0000
  H   H450      1.0  0.95200  0.35855  0.87134  1.0000
  H   H451      1.0  0.99285  0.35182  0.84269  1.0000
  H   H452      1.0  0.61686  0.39103  0.53003  1.0000
  Fe  Fe73      1.0  0.01445  0.46650  0.87102  1.0000
  C   C442      1.0  0.80493  0.35432  0.70248  1.0000
  H   H453      1.0  0.95211  0.35200  0.63714  1.0000
  Fe  Fe74      1.0  0.77557  0.92328  0.27854  1.0000
  S   S148      1.0  0.77069  0.91941  0.32360  1.0000
  S   S149      1.0  0.81627  0.91379  0.25960  1.0000
  Fe  Fe75      1.0  0.71702  0.94129  0.26965  1.0000
  S   S150      1.0  0.70704  0.93977  0.31386  1.0000
  S   S151      1.0  0.68394  0.94700  0.23842  1.0000
  Fe  Fe76      1.0  0.74803  0.95951  0.32024  1.0000
  S   S152      1.0  0.75065  0.99426  0.35057  1.0000
  Fe  Fe77      1.0  0.73046  0.90017  0.31342  1.0000
  S   S153      1.0  0.71449  0.86272  0.33431  1.0000
  S   S154      1.0  0.75586  0.96500  0.27559  1.0000
  S   S155      1.0  0.73753  0.89999  0.26879  1.0000
  Fe  Fe78      1.0  0.78768  0.84393  0.10027  1.0000
  S   S156      1.0  0.82739  0.82227  0.10942  1.0000
  S   S157      1.0  0.78725  0.88795  0.08655  1.0000
  Fe  Fe79      1.0  0.75320  0.79520  0.11663  1.0000
  S   S158      1.0  0.78973  0.76908  0.12726  1.0000
  S   S159      1.0  0.70891  0.78363  0.12136  1.0000
  Fe  Fe80      1.0  0.80546  0.80763  0.14667  1.0000
  S   S160      1.0  0.82645  0.80761  0.18719  1.0000
  Fe  Fe81      1.0  0.80831  0.78596  0.08906  1.0000
  S   S161      1.0  0.82920  0.76006  0.05698  1.0000
  S   S162      1.0  0.76746  0.83230  0.13918  1.0000
  S   S163      1.0  0.77012  0.80903  0.07670  1.0000
  Fe  Fe82      1.0  0.57558  0.74531  0.23532  1.0000
  S   S164      1.0  0.60182  0.70974  0.24873  1.0000
  H   H454      1.0  0.68007  0.94422  0.12491  1.0000
  Fe  Fe83      1.0  0.59934  0.78445  0.27701  1.0000
  S   S165      1.0  0.62796  0.75242  0.29360  1.0000
  S   S166      1.0  0.59992  0.82992  0.28457  1.0000
  Fe  Fe84      1.0  0.63542  0.74098  0.25031  1.0000
  S   S167      1.0  0.67812  0.73278  0.23487  1.0000
  Fe  Fe85      1.0  0.59163  0.72420  0.29074  1.0000
  S   S168      1.0  0.60985  0.77541  0.23413  1.0000
  S   S169      1.0  0.56230  0.75737  0.27719  1.0000
  H   H455      1.0  0.76432  0.79953  0.20761  1.0000
  S   S170      1.0  0.95616  0.73299  0.06317  1.0000
  C   C443      1.0  0.86375  0.75011  0.06094  1.0000
  C   C444      1.0  0.87977  0.75999  0.08227  1.0000
  C   C445      1.0  0.90796  0.75379  0.08327  1.0000
  C   C446      1.0  0.92029  0.73790  0.06288  1.0000
  C   C447      1.0  0.90408  0.72739  0.04201  1.0000
  C   C448      1.0  0.87590  0.73341  0.04111  1.0000
  H   H456      1.0  0.87053  0.77273  0.09774  1.0000
  H   H457      1.0  0.59754  0.73521  0.13703  1.0000
  C   C449      1.0  0.53870  0.85003  0.17825  1.0000
  C   C450      1.0  0.56969  0.84120  0.21542  1.0000
  C   C451      1.0  0.70129  0.77140  0.15382  1.0000
  C   C452      1.0  0.72099  0.75737  0.16921  1.0000
  C   C453      1.0  0.71374  0.74559  0.19415  1.0000
  C   C454      1.0  0.68690  0.74816  0.20390  1.0000
  C   C455      1.0  0.66741  0.76259  0.18861  1.0000
  C   C456      1.0  0.67459  0.77425  0.16370  1.0000
  H   H458      1.0  0.74161  0.75490  0.16158  1.0000
  H   H459      1.0  0.72893  0.73438  0.20583  1.0000
  H   H460      1.0  0.64656  0.76392  0.19532  1.0000
  H   H461      1.0  0.65928  0.78503  0.15181  1.0000
  C   C457      1.0  0.77485  0.99206  0.37703  1.0000
  C   C458      1.0  0.79314  0.01009  0.41946  1.0000
  S   S171      1.0  0.69142  0.00559  0.03845  1.0000
  H   H462      1.0  0.63277  0.92900  0.27655  1.0000
  H   H463      1.0  0.79565  0.93178  0.44982  1.0000
  C   C459      1.0  0.79285  0.96972  0.37902  1.0000
  S   S172      1.0  0.54065  0.97024  0.20659  1.0000
  H   H464      1.0  0.68241  0.71484  0.13142  1.0000
  H   H465      1.0  0.79298  0.95412  0.36356  1.0000
  C   C460      1.0  0.81696  0.88288  0.24144  1.0000
  C   C461      1.0  0.84030  0.86616  0.24300  1.0000
  C   C462      1.0  0.84263  0.84280  0.22666  1.0000
  C   C463      1.0  0.82212  0.83660  0.20788  1.0000
  C   C464      1.0  0.79862  0.85324  0.20635  1.0000
  C   C465      1.0  0.79581  0.87612  0.22348  1.0000
  H   H466      1.0  0.85672  0.87138  0.25679  1.0000
  H   H467      1.0  0.86071  0.82988  0.22808  1.0000
  H   H468      1.0  0.78248  0.84837  0.19226  1.0000
  H   H469      1.0  0.77785  0.88916  0.22199  1.0000
  C   C466      1.0  0.68210  0.85427  0.32130  1.0000
  C   C467      1.0  0.66954  0.82982  0.32930  1.0000
  C   C468      1.0  0.64415  0.82237  0.31823  1.0000
  C   C469      1.0  0.63109  0.83954  0.29942  1.0000
  C   C470      1.0  0.64347  0.86417  0.29168  1.0000
  C   C471      1.0  0.66911  0.87137  0.30234  1.0000
  H   H470      1.0  0.67947  0.81652  0.34395  1.0000
  H   H471      1.0  0.63446  0.80355  0.32463  1.0000
  H   H472      1.0  0.63361  0.87726  0.27685  1.0000
  H   H473      1.0  0.67885  0.89004  0.29568  1.0000
  S   S173      1.0  0.66695  0.93108  0.06323  1.0000
  C   C472      1.0  0.59642  0.99902  0.28483  1.0000
  C   C473      1.0  0.62973  0.00766  0.22342  1.0000
  C   C474      1.0  0.66813  0.97931  0.23775  1.0000
  C   C475      1.0  0.64281  0.98206  0.22471  1.0000
  H   H474      1.0  0.60996  0.00929  0.21390  1.0000
  H   H475      1.0  0.63319  0.96431  0.21571  1.0000
  C   C476      1.0  0.73113  0.88410  0.08732  1.0000
  C   C477      1.0  0.75382  0.89980  0.07990  1.0000
  C   C478      1.0  0.74981  0.92533  0.06735  1.0000
  C   C479      1.0  0.72319  0.93498  0.06188  1.0000
  H   H476      1.0  0.76732  0.93746  0.06145  1.0000
  H   H477      1.0  0.72031  0.95445  0.05175  1.0000
  H   H478      1.0  0.53397  0.86015  0.15918  1.0000
  C   C480      1.0  0.68372  0.80768  0.25603  1.0000
  H   H479      1.0  0.71372  0.80079  0.21118  1.0000
  H   H480      1.0  0.67409  0.79649  0.23893  1.0000
  H   H481      1.0  0.67719  0.79700  0.27485  1.0000
  N   N38       1.0  0.81115  0.90810  0.16284  1.0000
  C   C481      1.0  0.82265  0.92272  0.18355  1.0000
  C   C482      1.0  0.82512  0.88667  0.15133  1.0000
  C   C483      1.0  0.84847  0.91545  0.19374  1.0000
  C   C484      1.0  0.85080  0.87861  0.16122  1.0000
  C   C485      1.0  0.86248  0.89309  0.18262  1.0000
  C   C486      1.0  0.78409  0.91582  0.15225  1.0000
  H   H482      1.0  0.81153  0.93948  0.19304  1.0000
  H   H483      1.0  0.81613  0.87532  0.13478  1.0000
  H   H484      1.0  0.85688  0.92625  0.21105  1.0000
  H   H485      1.0  0.86114  0.86073  0.15285  1.0000
  H   H486      1.0  0.88196  0.88649  0.19110  1.0000
  H   H487      1.0  0.77174  0.92708  0.16756  1.0000
  H   H488      1.0  0.78646  0.92872  0.13381  1.0000
  H   H489      1.0  0.77229  0.89724  0.14646  1.0000
  S   S174      1.0  0.87737  0.01085  0.50532  1.0000
  H   H490      1.0  0.82423  0.94977  0.40277  1.0000
  H   H491      1.0  0.56981  0.82477  0.05068  1.0000
  H   H492      1.0  0.66336  0.74944  0.10279  1.0000
  H   H493      1.0  0.63502  0.72990  0.08938  1.0000
  C   C487      1.0  0.91709  0.80368  0.03754  1.0000
  C   C488      1.0  0.58403  0.97771  0.27038  1.0000
  H   H494      1.0  0.58896  0.84472  0.22583  1.0000
  C   C489      1.0  0.55191  0.92290  0.01151  1.0000
  H   H495      1.0  0.91322  0.71473  0.02653  1.0000
  C   C490      1.0  0.52012  0.98340  0.03750  1.0000
  C   C491      1.0  0.51859  0.95749  0.18159  1.0000
  N   N39       1.0  0.61330  0.88205  0.01819  1.0000
  H   H496      1.0  0.55391  0.91156  0.03022  1.0000
  H   H497      1.0  0.68631  0.00242  0.18987  1.0000
  N   N40       1.0  0.75725  0.93086  0.42942  1.0000
  C   C492      1.0  0.75837  0.90495  0.41875  1.0000
  C   C493      1.0  0.74050  0.95044  0.41812  1.0000
  C   C494      1.0  0.74236  0.89804  0.39626  1.0000
  C   C495      1.0  0.72439  0.94427  0.39549  1.0000
  C   C496      1.0  0.72520  0.91784  0.38470  1.0000
  C   C497      1.0  0.77378  0.93724  0.45341  1.0000
  H   H498      1.0  0.77173  0.88947  0.42762  1.0000
  H   H499      1.0  0.73996  0.97117  0.42612  1.0000
  C   C498      1.0  0.93976  0.79208  0.02459  1.0000
  C   C499      1.0  0.61566  0.72510  0.14517  1.0000
  H   H500      1.0  0.71181  0.96009  0.38605  1.0000
  H   H501      1.0  0.76616  0.92568  0.47124  1.0000
  H   H502      1.0  0.86352  0.72551  0.02471  1.0000
  C   C500      1.0  0.89105  0.80069  0.02626  1.0000
  C   C501      1.0  0.72597  0.80379  0.22924  1.0000
  C   C502      1.0  0.70051  0.91931  0.06936  1.0000
  H   H503      1.0  0.73404  0.86430  0.09689  1.0000
  C   C503      1.0  0.70452  0.89395  0.08225  1.0000
  H   H504      1.0  0.92036  0.76180  0.09960  1.0000
  H   H505      1.0  0.60925  0.84442  0.07571  1.0000
  N   N41       1.0  0.71367  0.80770  0.25385  1.0000
  C   C504      1.0  0.75456  0.80333  0.22704  1.0000
  C   C505      1.0  0.77051  0.80797  0.25003  1.0000
  C   C506      1.0  0.61366  0.71092  0.16976  1.0000
  C   C507      1.0  0.54903  0.00218  0.07248  1.0000
  C   C508      1.0  0.60434  0.85169  0.05547  1.0000
  H   H506      1.0  0.67580  0.82909  0.25634  1.0000
  H   H507      1.0  0.67987  0.68945  0.17478  1.0000
  H   H508      1.0  0.68707  0.88170  0.08808  1.0000
  H   H509      1.0  0.57831  0.86878  0.18229  1.0000
  S   S175      1.0  0.62537  0.99436  0.04471  1.0000
  H   H510      1.0  0.59315  0.77154  0.18228  1.0000
  C   C509      1.0  0.62207  0.99472  0.29657  1.0000
  H   H511      1.0  0.88274  0.97877  0.41301  1.0000
  Fe  Fe86      1.0  0.66347  0.96937  0.03788  1.0000
  C   C510      1.0  0.63687  0.69797  0.18045  1.0000
  C   C511      1.0  0.57925  0.79664  0.14930  1.0000
  C   C512      1.0  0.57589  0.77720  0.16991  1.0000
  H   H512      1.0  0.74323  0.87752  0.38764  1.0000
  H   H513      1.0  0.56140  0.93239  0.25259  1.0000
  C   C513      1.0  0.72916  0.81280  0.27638  1.0000
  C   C514      1.0  0.75778  0.81313  0.27481  1.0000
  H   H514      1.0  0.71942  0.81659  0.29575  1.0000
  H   H515      1.0  0.79271  0.80781  0.24854  1.0000
  N   N42       1.0  0.64021  0.72678  0.13193  1.0000
  H   H516      1.0  0.70012  0.00026  0.25946  1.0000
  H   H517      1.0  0.76995  0.81735  0.29271  1.0000
  H   H518      1.0  0.91952  0.81395  0.05686  1.0000
  C   C515      1.0  0.55074  0.82273  0.22617  1.0000
  H   H519      1.0  0.59887  0.80650  0.14661  1.0000
  C   C516      1.0  0.67631  0.96459  0.13317  1.0000
  C   C517      1.0  0.63489  0.96920  0.29404  1.0000
  C   C518      1.0  0.55713  0.80386  0.13266  1.0000
  H   H520      1.0  0.62923  0.76156  0.10790  1.0000
  N   N43       1.0  0.52666  0.81760  0.21293  1.0000
  H   H521      1.0  0.87309  0.80848  0.03682  1.0000
  C   C519      1.0  0.52868  0.77108  0.15645  1.0000
  C   C520      1.0  0.81060  0.96733  0.40128  1.0000
  C   C521      1.0  0.66156  0.69886  0.16626  1.0000
  H   H522      1.0  0.77325  0.95952  0.45837  1.0000
  S   S176      1.0  0.83252  0.98264  0.44960  1.0000
  H   H523      1.0  0.65696  0.97971  0.09684  1.0000
  C   C522      1.0  0.52029  0.83134  0.18953  1.0000
  C   C523      1.0  0.81061  0.98733  0.42165  1.0000
  H   H524      1.0  0.91743  0.99097  0.41598  1.0000
  S   S177      1.0  0.54543  0.74189  0.20095  1.0000
  C   C524      1.0  0.68442  0.97102  0.15952  1.0000
  C   C525      1.0  0.66286  0.71334  0.14179  1.0000
  C   C526      1.0  0.64199  0.74258  0.10669  1.0000
  H   H525      1.0  0.56438  0.98142  0.26065  1.0000
  H   H526      1.0  0.58299  0.95246  0.02208  1.0000
  C   C527      1.0  0.67962  0.99750  0.16952  1.0000
  H   H527      1.0  0.89480  0.99061  0.44509  1.0000
  H   H528      1.0  0.69425  0.95563  0.17227  1.0000
  C   C528      1.0  0.55049  0.76477  0.17391  1.0000
  S   S178      1.0  0.56128  0.83018  0.10891  1.0000
  C   C529      1.0  0.58416  0.93118  0.25153  1.0000
  H   H529      1.0  0.55559  0.81236  0.24506  1.0000
  H   H530      1.0  0.54271  0.92100  0.17435  1.0000
  H   H531      1.0  0.71270  0.91266  0.36729  1.0000
  C   C530      1.0  0.66325  0.98453  0.11736  1.0000
  H   H532      1.0  0.59040  0.91037  0.25861  1.0000
  C   C531      1.0  0.77525  0.01240  0.39717  1.0000
  C   C532      1.0  0.58217  0.84067  0.04142  1.0000
  C   C533      1.0  0.56365  0.85478  0.19119  1.0000
  N   N44       1.0  0.59676  0.95270  0.26802  1.0000
  C   C534      1.0  0.65833  0.01064  0.12819  1.0000
  C   C535      1.0  0.62200  0.94834  0.27943  1.0000
  H   H533      1.0  0.65519  0.96597  0.30234  1.0000
  H   H534      1.0  0.63592  0.68765  0.19993  1.0000
  H   H535      1.0  0.59024  0.93388  0.23001  1.0000
  H   H536      1.0  0.59431  0.71038  0.18062  1.0000
  H   H537      1.0  0.85298  0.01020  0.39257  1.0000
  S   S179      1.0  0.58348  0.69665  0.32667  1.0000
  C   C536      1.0  0.68050  0.00229  0.24938  1.0000
  Fe  Fe87      1.0  0.97679  0.71390  0.02679  1.0000
  S   S180      1.0  0.52275  0.88845  0.07449  1.0000
  C   C537      1.0  0.53192  0.79078  0.13593  1.0000
  C   C538      1.0  0.54433  0.99639  0.04514  1.0000
  H   H538      1.0  0.63676  0.88128  0.05469  1.0000
  C   C539      1.0  0.89603  0.99431  0.42289  1.0000
  N   N45       1.0  0.66655  0.01684  0.15395  1.0000
  C   C540      1.0  0.53460  0.00252  0.12016  1.0000
  H   H539      1.0  0.55953  0.00162  0.02997  1.0000
  Fe  Fe88      1.0  0.83857  0.01574  0.48111  1.0000
  H   H540      1.0  0.55166  0.01729  0.12276  1.0000
  N   N46       1.0  0.52958  0.99635  0.09154  1.0000
  H   H541      1.0  0.56826  0.01148  0.07831  1.0000
  C   C541      1.0  0.61975  0.87254  0.04350  1.0000
  H   H542      1.0  0.53966  0.98334  0.13136  1.0000
  C   C542      1.0  0.52470  0.93266  0.16853  1.0000
  H   H543      1.0  0.63230  0.01137  0.30702  1.0000
  H   H544      1.0  0.62560  0.92357  0.01887  1.0000
  H   H545      1.0  0.95991  0.79316  0.03383  1.0000
  Fe  Fe89      1.0  0.52224  0.84496  0.08944  1.0000
  Fe  Fe90      1.0  0.54145  0.01643  0.20560  1.0000
  C   C543      1.0  0.57571  0.85051  0.01565  1.0000
  H   H546      1.0  0.51735  0.78298  0.23791  1.0000
  H   H547      1.0  0.51655  0.97821  0.01640  1.0000
  S   S181      1.0  0.00323  0.98300  0.70325  1.0000
  H   H548      1.0  0.99158  0.88777  0.79729  1.0000
  S   S182      1.0  0.58423  0.99124  0.97689  1.0000
  C   C544      1.0  0.93103  0.97909  0.59131  1.0000
  H   H549      1.0  0.86874  0.99489  0.63754  1.0000
  H   H550      1.0  0.88954  0.76588  0.95259  1.0000
  H   H551      1.0  0.85963  0.98185  0.76359  1.0000
  C   C545      1.0  0.99877  0.75146  0.90527  1.0000
  S   S183      1.0  0.65972  0.96867  0.99260  1.0000
  C   C546      1.0  0.90988  0.97400  0.78322  1.0000
  H   H552      1.0  0.91298  0.98115  0.65780  1.0000
  S   S184      1.0  0.93785  0.96747  0.70975  1.0000
  C   C547      1.0  0.00942  0.89380  0.78578  1.0000
  Fe  Fe91      1.0  0.68435  0.00752  0.99346  1.0000
  H   H553      1.0  0.90881  0.99329  0.83393  1.0000
  H   H554      1.0  0.94845  0.97474  0.57845  1.0000
  Fe  Fe92      1.0  0.96548  0.98326  0.67726  1.0000
  S   S185      1.0  0.96542  0.96838  0.63428  1.0000
  Fe  Fe93      1.0  0.97456  0.97093  0.73690  1.0000
  H   H555      1.0  0.62339  0.90927  0.98541  1.0000
  C   C548      1.0  0.00845  0.91774  0.76990  1.0000
  Fe  Fe94      1.0  0.93031  0.01169  0.71976  1.0000
  C   C549      1.0  0.00422  0.77373  0.88819  1.0000
  Fe  Fe95      1.0  0.99065  0.72416  0.96796  1.0000
  C   C550      1.0  0.59164  0.87129  0.00421  1.0000
  H   H556      1.0  0.86755  0.78244  0.99443  1.0000
  H   H557      1.0  0.92970  0.98080  0.79202  1.0000
  C   C551      1.0  0.56860  0.94590  0.00679  1.0000
  H   H558      1.0  0.81986  0.00287  0.78688  1.0000
  C   C552      1.0  0.53341  0.91418  0.99159  1.0000
  N   N47       1.0  0.91044  0.77477  0.98950  1.0000
  C   C553      1.0  0.93367  0.97681  0.61951  1.0000
  H   H559      1.0  0.65146  0.89979  0.00737  1.0000
  C   C554      1.0  0.88805  0.78586  0.00222  1.0000
  C   C555      1.0  0.53123  0.92888  0.96735  1.0000
  H   H560      1.0  0.55806  0.84260  0.00481  1.0000
  S   S186      1.0  0.85176  0.00387  0.58308  1.0000
  H   H561      1.0  0.96527  0.92563  0.67615  1.0000
  S   S187      1.0  0.97775  0.93686  0.76791  1.0000
  H   H562      1.0  0.99897  0.86788  0.73304  1.0000
  S   S188      1.0  0.95596  0.70199  0.98805  1.0000
  C   C556      1.0  0.98184  0.91221  0.68272  1.0000
  C   C557      1.0  0.97949  0.89698  0.70653  1.0000
  C   C558      1.0  0.88916  0.99473  0.82373  1.0000
  H   H563      1.0  0.90986  0.98066  0.76169  1.0000
  H   H564      1.0  0.54469  0.96398  0.94451  1.0000
  C   C559      1.0  0.56582  0.96091  0.98268  1.0000
  C   C560      1.0  0.62917  0.90470  0.00675  1.0000
  H   H565      1.0  0.90406  0.98957  0.55805  1.0000
  H   H566      1.0  0.58596  0.87928  0.98443  1.0000
  C   C561      1.0  0.54696  0.95244  0.96314  1.0000
  N   N48       1.0  0.88639  0.98601  0.79753  1.0000
  S   S189      1.0  0.98454  0.75771  0.93735  1.0000
  C   C562      1.0  0.91117  0.98268  0.63606  1.0000
  C   C563      1.0  0.00094  0.87947  0.71437  1.0000
  H   H567      1.0  0.96135  0.89904  0.71911  1.0000
  C   C564      1.0  0.86700  0.00676  0.83735  1.0000
  C   C565      1.0  0.90669  0.75791  0.96523  1.0000
  C   C566      1.0  0.88346  0.99327  0.59646  1.0000
  C   C567      1.0  0.88609  0.99059  0.62455  1.0000
  Fe  Fe96      1.0  0.62367  0.99652  0.99953  1.0000
  S   S190      1.0  0.72165  0.01499  0.96746  1.0000
  C   C568      1.0  0.00484  0.72475  0.89660  1.0000
  C   C569      1.0  0.90599  0.98765  0.57978  1.0000
  H   H568      1.0  0.90227  0.73641  0.97129  1.0000
  H   H569      1.0  0.00771  0.92251  0.64904  1.0000
  H   H570      1.0  0.92540  0.75796  0.95234  1.0000
  H   H571      1.0  0.99919  0.79437  0.89465  1.0000
  H   H572      1.0  0.86955  0.01510  0.85756  1.0000
  H   H573      1.0  0.90911  0.95123  0.78408  1.0000
  C   C570      1.0  0.83904  0.99995  0.79765  1.0000
  C   C571      1.0  0.86164  0.98813  0.78459  1.0000
  C   C572      1.0  0.84184  0.00946  0.82414  1.0000
  H   H574      1.0  0.00026  0.70743  0.90948  1.0000
  S   S191      1.0  0.96493  0.01431  0.74949  1.0000
  C   C573      1.0  0.01639  0.76945  0.86282  1.0000
  C   C574      1.0  0.00573  0.91031  0.66738  1.0000
  S   S192      1.0  0.00955  0.73870  0.00659  1.0000
  H   H575      1.0  0.95370  0.76812  0.99081  1.0000
  C   C575      1.0  0.93605  0.77760  0.00043  1.0000
  H   H576      1.0  0.51709  0.92221  0.95182  1.0000
  C   C576      1.0  0.01638  0.72043  0.87088  1.0000
