data_image0
_chemical_formula_structural       FeS2FeCSFeHFeHS2FeS2FeCFeCFeCS2C3H3NC2H2C6H4CH3C2HC3H2SCH2CNH2C2SNC2HCHSCH3CH2SC2HNCH4NHC2SHSHCH3C2HCH2C3H2C3HCSCH2S2CH2CFeH7C5H2C2SFeHCHCHCS3C2FeCH2CSHCH3C5FeHC2HC3HFeS2FeH2FeHFeCS2FeS2FeHFeHFeS3HCH2C2H2SC8H4CH2SHSH2CSCSCH2CNC5HSH6CHCH3C2HNC3NC3HCH3CHCHCH4S2HC3S2CNCHC2HFeCHCH4CH6C5SCH4FeCHC4FeC2HC2HCNC2H2CH3CHC2H2C2HC2HSC2SNH2CSHCSHFeCH4FeSC3HCHC2H2CNH3CH2CSCHSHCSCHNC3SCHSCHFeS2FeHCSCFeSH2CHSHC2H3C2HFeC3H2C6HCH2NH3CSC2HC2NHSHSHNH6CH2S2FeC2HSHFeSC2H4C4HN2C6H7SCS2C5H2CSHFeHSC2HFeCSCFeS3HFeSCHCHS2HFeHC2H3CHCHFeCHC2HCNCHCH3CH2CH2NC2HC3SHSC2HCSFeHFeC2FeS2CFeCFeHSCHNCHFeCHFeCSH7CH2CHCHCH3CSHCSCHC4HSHC3HCHNH2C2HSCHC3H2CFeHFeS2FeHFeHS2FeSCFeSHFeHFeSCSH2NC2HSCHC2SH2C7H4C4HCHC2NSCNH3C2SHS2CSH3CH2CHC2H3CH2CH2CHC2HCHC2SC2HNCH2CSH3CFeCSFeHSCHCFeHSC2NHCSH2CH2CHCH4NHCH2CHC2HCH2SC2H3C2H2FeHC3HCHC4HCHC2HSHNHCFeHFeS2FeHFeS3FeSCFeS2FeNFeSCSCHCHCHCH2C4SHC6H4CHC2SHSCHSHCH2CHNHC5H2CH2C2NH2CH2CH4CH2C6HCSH3CHC2HCS2
_chemical_formula_sum              "Fe64 S128 C384 H384 N32"
_cell_length_a       42.4156
_cell_length_b       42.517
_cell_length_c       36.0509
_cell_angle_alpha    89.8785
_cell_angle_beta     90.2212
_cell_angle_gamma    111.707

_space_group_name_H-M_alt    "P 1"
_space_group_IT_number       1

loop_
  _space_group_symop_operation_xyz
  'x, y, z'

loop_
  _atom_site_type_symbol
  _atom_site_label
  _atom_site_symmetry_multiplicity
  _atom_site_fract_x
  _atom_site_fract_y
  _atom_site_fract_z
  _atom_site_occupancy
  Fe  Fe1       1.0  0.17632  0.35318  0.38119  1.0000
  S   S1        1.0  0.14355  0.36606  0.42288  1.0000
  S   S2        1.0  0.18063  0.37784  0.32394  1.0000
  Fe  Fe2       1.0  0.19867  0.31201  0.43899  1.0000
  C   C1        1.0  0.07857  0.35279  0.15448  1.0000
  S   S3        1.0  0.22558  0.27425  0.43881  1.0000
  Fe  Fe3       1.0  0.12581  0.31169  0.44156  1.0000
  H   H1        1.0  0.15947  0.22640  0.44438  1.0000
  Fe  Fe4       1.0  0.18753  0.37604  0.46249  1.0000
  H   H2        1.0  0.24260  0.03116  0.05250  1.0000
  S   S4        1.0  0.15607  0.29842  0.39713  1.0000
  S   S5        1.0  0.22144  0.36641  0.41974  1.0000
  Fe  Fe5       1.0  0.16966  0.33057  0.10751  1.0000
  S   S6        1.0  0.14847  0.36963  0.09037  1.0000
  S   S7        1.0  0.16639  0.30701  0.16507  1.0000
  Fe  Fe6       1.0  0.19124  0.32238  0.02827  1.0000
  C   C2        1.0  0.23963  0.25905  0.02962  1.0000
  Fe  Fe7       1.0  0.19578  0.39235  0.05546  1.0000
  C   C3        1.0  0.00636  0.23438  0.46570  1.0000
  Fe  Fe8       1.0  0.12561  0.33506  0.04163  1.0000
  C   C4        1.0  0.03645  0.25594  0.02209  1.0000
  S   S8        1.0  0.21840  0.35507  0.07608  1.0000
  S   S9        1.0  0.14392  0.29452  0.06088  1.0000
  C   C5        1.0  0.06678  0.30194  0.11844  1.0000
  C   C6        1.0  0.08926  0.30493  0.17930  1.0000
  C   C7        1.0  0.24720  0.48147  0.02650  1.0000
  H   H3        1.0  0.07964  0.37858  0.15698  1.0000
  H   H4        1.0  0.31791  0.34922  0.05937  1.0000
  H   H5        1.0  0.09912  0.29389  0.20152  1.0000
  N   N1        1.0  0.10792  0.21452  0.46008  1.0000
  C   C8        1.0  0.20028  0.47627  0.42582  1.0000
  C   C9        1.0  0.15509  0.23614  0.50215  1.0000
  H   H6        1.0  0.29589  0.05046  0.08869  1.0000
  H   H7        1.0  0.22647  0.26519  0.05247  1.0000
  C   C10       1.0  0.17681  0.35766  0.28003  1.0000
  C   C11       1.0  0.17977  0.37693  0.24750  1.0000
  C   C12       1.0  0.17705  0.36201  0.21209  1.0000
  C   C13       1.0  0.17136  0.32755  0.20885  1.0000
  C   C14       1.0  0.16813  0.30823  0.24135  1.0000
  C   C15       1.0  0.17085  0.32315  0.27674  1.0000
  H   H8        1.0  0.18442  0.40365  0.24969  1.0000
  H   H9        1.0  0.17951  0.37719  0.18736  1.0000
  H   H10       1.0  0.16368  0.28155  0.23919  1.0000
  H   H11       1.0  0.16856  0.30800  0.30146  1.0000
  C   C16       1.0  0.26789  0.11463  0.03572  1.0000
  H   H12       1.0  0.29919  0.45111  0.04109  1.0000
  H   H13       1.0  0.07590  0.24008  0.16895  1.0000
  H   H14       1.0  0.26056  0.13274  0.02016  1.0000
  C   C17       1.0  0.29926  0.40031  0.04095  1.0000
  C   C18       1.0  0.26514  0.46783  0.47904  1.0000
  H   H15       1.0  0.10932  0.19160  0.40786  1.0000
  C   C19       1.0  0.29670  0.00632  0.01725  1.0000
  C   C20       1.0  0.24796  0.26231  0.47447  1.0000
  C   C21       1.0  0.25772  0.05803  0.05393  1.0000
  H   H16       1.0  0.20117  0.08315  0.01788  1.0000
  H   H17       1.0  0.26615  0.44822  0.46058  1.0000
  S   S10       1.0  0.07122  0.32610  0.02218  1.0000
  C   C22       1.0  0.03716  0.26041  0.47553  1.0000
  H   H18       1.0  0.17850  0.45298  0.42987  1.0000
  H   H19       1.0  0.06778  0.18879  0.42211  1.0000
  C   C23       1.0  0.23687  0.46154  0.50192  1.0000
  N   N2        1.0  0.07782  0.28743  0.14706  1.0000
  H   H20       1.0  0.30235  0.32490  0.01809  1.0000
  H   H21       1.0  0.30448  0.40070  0.07046  1.0000
  C   C24       1.0  0.06666  0.33465  0.12181  1.0000
  C   C25       1.0  0.22299  0.44738  0.38010  1.0000
  S   S11       1.0  0.20061  0.42299  0.49980  1.0000
  N   N3        1.0  0.22546  0.47741  0.40161  1.0000
  C   C26       1.0  0.08999  0.33789  0.18346  1.0000
  C   C27       1.0  0.25904  0.23544  0.46789  1.0000
  H   H22       1.0  0.25924  0.22809  0.06290  1.0000
  C   C28       1.0  0.30810  0.10314  0.07567  1.0000
  H   H23       1.0  0.31348  0.50446  0.46148  1.0000
  S   S12       1.0  0.16727  0.32202  0.48454  1.0000
  C   C29       1.0  0.27637  0.22460  0.49553  1.0000
  H   H24       1.0  0.28437  0.20366  0.49018  1.0000
  H   H25       1.0  0.25400  0.22281  0.44128  1.0000
  H   H26       1.0  0.05853  0.28848  0.09254  1.0000
  C   C30       1.0  0.09511  0.20529  0.42223  1.0000
  H   H27       1.0  0.24428  0.43919  0.38732  1.0000
  H   H28       1.0  0.26770  0.06442  0.48746  1.0000
  S   S13       1.0  0.23077  0.44839  0.05985  1.0000
  C   C31       1.0  0.25820  0.23799  0.03544  1.0000
  C   C32       1.0  0.14206  0.22547  0.46670  1.0000
  H   H29       1.0  0.19901  0.42566  0.38570  1.0000
  N   N4        1.0  0.24839  0.08086  0.03440  1.0000
  C   C33       1.0  0.29786  0.12629  0.05658  1.0000
  H   H30       1.0  0.06005  0.23821  0.12240  1.0000
  H   H31       1.0  0.05847  0.34617  0.09863  1.0000
  H   H32       1.0  0.10519  0.25693  0.13137  1.0000
  H   H33       1.0  0.10026  0.35199  0.20864  1.0000
  N   N5        1.0  0.29491  0.37203  0.02032  1.0000
  H   H34       1.0  0.05907  0.20613  0.48266  1.0000
  C   C34       1.0  0.07971  0.25395  0.14217  1.0000
  C   C35       1.0  0.28782  0.06878  0.07463  1.0000
  S   S14       1.0  0.29847  0.20314  0.01505  1.0000
  H   H35       1.0  0.09803  0.22864  0.40631  1.0000
  S   S15       1.0  0.07011  0.27470  0.44191  1.0000
  H   H36       1.0  0.20329  0.04176  0.01391  1.0000
  C   C36       1.0  0.26346  0.03811  0.49273  1.0000
  H   H37       1.0  0.27275  0.32762  0.05235  1.0000
  H   H38       1.0  0.05977  0.25387  0.03180  1.0000
  H   H39       1.0  0.23036  0.01966  0.44540  1.0000
  C   C37       1.0  0.21804  0.06935  0.01077  1.0000
  C   C38       1.0  0.29718  0.34203  0.03844  1.0000
  H   H40       1.0  0.22359  0.45269  0.34986  1.0000
  C   C39       1.0  0.08606  0.21409  0.48806  1.0000
  H   H41       1.0  0.31340  0.15310  0.05724  1.0000
  H   H42       1.0  0.00843  0.20190  0.02198  1.0000
  C   C40       1.0  0.24225  0.01260  0.46891  1.0000
  C   C41       1.0  0.29619  0.42888  0.02454  1.0000
  C   C42       1.0  0.29200  0.49979  0.47969  1.0000
  H   H43       1.0  0.33197  0.11178  0.09074  1.0000
  H   H44       1.0  0.31894  0.00919  0.03378  1.0000
  C   C43       1.0  0.03533  0.28792  0.01519  1.0000
  C   C44       1.0  0.00728  0.22646  0.01636  1.0000
  C   C45       1.0  0.27534  0.22959  0.00604  1.0000
  H   H45       1.0  0.18387  0.50298  0.46772  1.0000
  C   C46       1.0  0.20312  0.50456  0.44732  1.0000
  S   S16       1.0  0.17142  0.36110  0.00553  1.0000
  C   C47       1.0  0.28298  0.24071  0.53007  1.0000
  H   H46       1.0  0.02100  0.30529  0.91071  1.0000
  H   H47       1.0  0.21589  0.45490  0.98090  1.0000
  S   S17       1.0  0.31626  0.14647  0.60540  1.0000
  S   S18       1.0  0.30122  0.13582  0.94034  1.0000
  C   C48       1.0  0.28784  0.42812  0.98701  1.0000
  H   H48       1.0  0.27683  0.28017  0.56328  1.0000
  H   H49       1.0  0.26900  0.07900  0.69791  1.0000
  C   C49       1.0  0.02435  0.25704  0.92290  1.0000
  Fe  Fe9       1.0  0.33187  0.19075  0.56565  1.0000
  H   H50       1.0  0.27534  0.39770  0.93740  1.0000
  H   H51       1.0  0.22567  0.07423  0.98119  1.0000
  H   H52       1.0  0.01703  0.27153  0.56478  1.0000
  H   H53       1.0  0.32858  0.17288  0.69937  1.0000
  H   H54       1.0  0.24616  0.29908  0.51449  1.0000
  H   H55       1.0  0.04778  0.26788  0.93864  1.0000
  H   H56       1.0  0.26902  0.04788  0.95187  1.0000
  C   C50       1.0  0.23634  0.48738  0.52606  1.0000
  C   C51       1.0  0.32435  0.16811  0.75916  1.0000
  C   C52       1.0  0.00826  0.22191  0.91958  1.0000
  C   C53       1.0  0.25534  0.26369  0.96488  1.0000
  C   C54       1.0  0.27378  0.24250  0.97067  1.0000
  H   H57       1.0  0.25430  0.27358  0.93742  1.0000
  H   H58       1.0  0.28678  0.23616  0.94780  1.0000
  C   C55       1.0  0.26865  0.02829  0.97128  1.0000
  C   C56       1.0  0.25441  0.27831  0.50906  1.0000
  S   S19       1.0  0.30380  0.06002  0.55633  1.0000
  Fe  Fe10      1.0  0.33760  0.16202  0.89413  1.0000
  H   H59       1.0  0.01942  0.20568  0.93310  1.0000
  C   C57       1.0  0.28275  0.39893  0.96635  1.0000
  H   H60       1.0  0.14300  0.24519  0.55810  1.0000
  C   C58       1.0  0.29365  0.07783  0.69229  1.0000
  H   H61       1.0  0.28475  0.44993  0.97419  1.0000
  C   C59       1.0  0.30227  0.07225  0.65626  1.0000
  S   S20       1.0  0.33505  0.06935  0.98974  1.0000
  S   S21       1.0  0.30535  0.22875  0.56574  1.0000
  S   S22       1.0  0.31844  0.16348  0.83499  1.0000
  C   C60       1.0  0.27184  0.26753  0.53666  1.0000
  C   C61       1.0  0.23822  0.27210  0.99429  1.0000
  Fe  Fe11      1.0  0.33043  0.11806  0.55945  1.0000
  C   C62       1.0  0.29762  0.03225  0.99237  1.0000
  H   H62       1.0  0.30061  0.17213  0.76004  1.0000
  H   H63       1.0  0.08082  0.22563  0.54546  1.0000
  C   C63       1.0  0.27863  0.02943  0.52362  1.0000
  S   S23       1.0  0.21679  0.30016  0.98573  1.0000
  H   H64       1.0  0.21471  0.48281  0.54401  1.0000
  C   C64       1.0  0.23574  0.47814  0.98975  1.0000
  H   H65       1.0  0.28439  0.06883  0.63356  1.0000
  H   H66       1.0  0.24057  0.50223  0.93611  1.0000
  H   H67       1.0  0.06446  0.29333  0.51964  1.0000
  C   C65       1.0  0.28650  0.37098  0.98353  1.0000
  C   C66       1.0  0.31722  0.08267  0.72091  1.0000
  C   C67       1.0  0.01396  0.26095  0.53712  1.0000
  C   C68       1.0  0.04091  0.27345  0.51155  1.0000
  C   C69       1.0  0.13304  0.23617  0.53074  1.0000
  Fe  Fe12      1.0  0.32684  0.18370  0.97284  1.0000
  H   H68       1.0  0.28193  0.34817  0.96741  1.0000
  C   C70       1.0  0.24983  0.50508  0.96439  1.0000
  C   C71       1.0  0.09825  0.22510  0.52371  1.0000
  H   H69       1.0  0.31117  0.08803  0.74887  1.0000
  C   C72       1.0  0.33465  0.07218  0.64926  1.0000
  C   C73       1.0  0.00924  0.27805  0.90727  1.0000
  C   C74       1.0  0.00473  0.28989  0.00223  1.0000
  H   H70       1.0  0.18222  0.24508  0.50712  1.0000
  Fe  Fe13      1.0  0.16341  0.82977  0.38967  1.0000
  S   S24       1.0  0.13868  0.85831  0.42443  1.0000
  S   S25       1.0  0.14632  0.80933  0.33106  1.0000
  Fe  Fe14      1.0  0.20948  0.82576  0.45371  1.0000
  H   H71       1.0  0.04884  0.77053  0.45116  1.0000
  H   H72       1.0  0.17509  0.76046  0.35568  1.0000
  Fe  Fe15      1.0  0.13707  0.82159  0.47014  1.0000
  H   H73       1.0  0.25352  0.68317  0.04977  1.0000
  Fe  Fe16      1.0  0.19170  0.88918  0.44485  1.0000
  C   C75       1.0  0.12037  0.93035  0.47400  1.0000
  S   S26       1.0  0.15812  0.79067  0.43432  1.0000
  S   S27       1.0  0.21612  0.86291  0.40675  1.0000
  Fe  Fe17      1.0  0.18576  0.85145  0.11209  1.0000
  S   S28       1.0  0.15218  0.87648  0.08735  1.0000
  S   S29       1.0  0.20516  0.86714  0.17129  1.0000
  Fe  Fe18      1.0  0.18836  0.81593  0.03904  1.0000
  H   H74       1.0  0.10738  0.90750  0.45681  1.0000
  Fe  Fe19      1.0  0.18680  0.88758  0.03785  1.0000
  H   H75       1.0  0.22295  0.71627  0.43435  1.0000
  Fe  Fe20      1.0  0.12297  0.82559  0.06151  1.0000
  S   S30       1.0  0.06507  0.80364  0.06693  1.0000
  S   S31       1.0  0.22249  0.86568  0.06358  1.0000
  S   S32       1.0  0.15462  0.79982  0.08942  1.0000
  H   H76       1.0  0.25388  0.78845  0.05674  1.0000
  C   C76       1.0  0.19525  0.73526  0.39566  1.0000
  H   H77       1.0  0.30770  0.63140  0.05740  1.0000
  H   H78       1.0  0.30963  0.67388  0.06276  1.0000
  C   C77       1.0  0.19804  0.75889  0.36755  1.0000
  C   C78       1.0  0.27304  0.51199  0.03739  1.0000
  H   H79       1.0  0.08727  0.84689  0.13447  1.0000
  H   H80       1.0  0.28285  0.79741  0.36388  1.0000
  S   S33       1.0  0.32377  0.56693  0.49938  1.0000
  C   C79       1.0  0.22463  0.73364  0.41164  1.0000
  C   C80       1.0  0.28518  0.76250  0.03497  1.0000
  C   C81       1.0  0.16430  0.82510  0.28709  1.0000
  C   C82       1.0  0.19151  0.85600  0.28321  1.0000
  C   C83       1.0  0.20416  0.86794  0.24762  1.0000
  C   C84       1.0  0.18962  0.84943  0.21545  1.0000
  C   C85       1.0  0.16274  0.81828  0.21938  1.0000
  C   C86       1.0  0.15032  0.80615  0.25500  1.0000
  H   H81       1.0  0.20257  0.87094  0.30753  1.0000
  H   H82       1.0  0.22502  0.89204  0.24494  1.0000
  H   H83       1.0  0.15147  0.80360  0.19498  1.0000
  H   H84       1.0  0.12940  0.78211  0.25766  1.0000
  C   C87       1.0  0.25630  0.75560  0.39945  1.0000
  H   H85       1.0  0.06347  0.80797  0.15689  1.0000
  H   H86       1.0  0.17050  0.71897  0.40566  1.0000
  S   S34       1.0  0.15462  0.83869  0.01012  1.0000
  H   H87       1.0  0.10744  0.81746  0.14604  1.0000
  S   S35       1.0  0.18867  0.85444  0.49290  1.0000
  H   H88       1.0  0.10165  0.94144  0.48272  1.0000
  H   H89       1.0  0.06430  0.80481  0.22264  1.0000
  C   C88       1.0  0.03446  0.76424  0.47665  1.0000
  S   S36       1.0  0.20704  0.94694  0.44597  1.0000
  C   C89       1.0  0.26712  0.97701  0.02138  1.0000
  S   S37       1.0  0.32370  0.72764  0.00954  1.0000
  C   C90       1.0  0.08895  0.82854  0.15569  1.0000
  H   H90       1.0  0.28224  0.51481  0.06569  1.0000
  H   H91       1.0  0.27922  0.75547  0.41281  1.0000
  C   C91       1.0  0.25829  0.77438  0.03367  1.0000
  N   N6        1.0  0.09969  0.84523  0.19160  1.0000
  C   C92       1.0  0.08456  0.82952  0.22360  1.0000
  C   C93       1.0  0.12626  0.87571  0.19298  1.0000
  C   C94       1.0  0.09567  0.84467  0.25813  1.0000
  C   C95       1.0  0.13794  0.89160  0.22699  1.0000
  C   C96       1.0  0.12253  0.87590  0.25974  1.0000
  H   H92       1.0  0.08450  0.83168  0.28359  1.0000
  S   S38       1.0  0.25531  0.81100  0.46370  1.0000
  H   H93       1.0  0.21281  0.79412  0.30451  1.0000
  H   H94       1.0  0.25694  0.81627  0.31451  1.0000
  H   H95       1.0  0.15979  0.91517  0.22796  1.0000
  H   H96       1.0  0.13224  0.88726  0.28641  1.0000
  H   H97       1.0  0.13935  0.88738  0.16779  1.0000
  H   H98       1.0  0.27402  0.50683  0.37952  1.0000
  C   C97       1.0  0.25760  0.77686  0.49061  1.0000
  H   H99       1.0  0.30133  0.76742  0.05928  1.0000
  C   C98       1.0  0.23133  0.80560  0.32720  1.0000
  H   H100      1.0  0.22537  0.82664  0.33953  1.0000
  H   H101      1.0  0.31040  0.78901  0.47770  1.0000
  H   H102      1.0  0.26669  0.95753  0.04095  1.0000
  C   C99       1.0  0.03492  0.77877  0.03363  1.0000
  C   C100      1.0  0.25815  0.77935  0.37180  1.0000
  H   H103      1.0  0.30740  0.56188  0.02079  1.0000
  N   N7        1.0  0.22922  0.78036  0.35580  1.0000
  C   C101      1.0  0.24900  0.66291  0.02977  1.0000
  C   C102      1.0  0.28727  0.53884  0.01199  1.0000
  C   C103      1.0  0.25743  0.53499  0.41919  1.0000
  N   N8        1.0  0.26728  0.64234  0.03147  1.0000
  C   C104      1.0  0.23623  0.97815  0.47527  1.0000
  C   C105      1.0  0.23198  0.53402  0.44406  1.0000
  C   C106      1.0  0.29195  0.64698  0.06157  1.0000
  H   H104      1.0  0.23536  0.55557  0.46190  1.0000
  C   C107      1.0  0.28847  0.77166  0.49204  1.0000
  H   H105      1.0  0.13974  0.94869  0.45584  1.0000
  H   H106      1.0  0.28063  0.55729  0.41779  1.0000
  H   H107      1.0  0.27856  0.63985  0.08849  1.0000
  C   C108      1.0  0.29102  0.52595  0.50305  1.0000
  H   H108      1.0  0.33367  0.88775  0.01284  1.0000
  C   C109      1.0  0.25370  0.50629  0.39798  1.0000
  H   H109      1.0  0.30900  0.93246  0.00702  1.0000
  C   C110      1.0  0.26205  0.61720  0.00586  1.0000
  H   H110      1.0  0.27647  0.60088  0.00708  1.0000
  H   H111      1.0  0.25499  0.64494  0.62950  1.0000
  H   H112      1.0  0.20439  0.87907  0.94876  1.0000
  H   H113      1.0  0.28215  0.58041  0.72218  1.0000
  S   S39       1.0  0.30339  0.62071  0.58213  1.0000
  S   S40       1.0  0.30838  0.66255  0.92161  1.0000
  H   H114      1.0  0.23488  0.59278  0.95671  1.0000
  C   C111      1.0  0.27010  0.73775  0.97403  1.0000
  C   C112      1.0  0.27443  0.61850  0.68762  1.0000
  C   C113      1.0  0.21787  0.86265  0.93881  1.0000
  S   S41       1.0  0.26598  0.68758  0.55738  1.0000
  S   S42       1.0  0.20056  0.93608  0.00302  1.0000
  C   C114      1.0  0.27657  0.62063  0.75452  1.0000
  N   N9        1.0  0.26998  0.64877  0.68656  1.0000
  C   C115      1.0  0.27754  0.60386  0.72157  1.0000
  H   H115      1.0  0.29437  0.67897  0.64047  1.0000
  C   C116      1.0  0.04456  0.77182  0.99843  1.0000
  C   C117      1.0  0.27558  0.53565  0.97530  1.0000
  H   H116      1.0  0.28419  0.98787  0.55369  1.0000
  Fe  Fe21      1.0  0.32936  0.62421  0.94300  1.0000
  C   C118      1.0  0.26410  0.84568  0.96036  1.0000
  H   H117      1.0  0.27661  0.60593  0.66214  1.0000
  C   C119      1.0  0.24303  0.74936  0.97286  1.0000
  H   H118      1.0  0.22665  0.74411  0.94872  1.0000
  H   H119      1.0  0.04374  0.77625  0.56973  1.0000
  H   H120      1.0  0.27442  0.72354  0.95102  1.0000
  H   H121      1.0  0.20146  0.95885  0.56634  1.0000
  C   C120      1.0  0.26335  0.72192  0.53108  1.0000
  H   H122      1.0  0.27317  0.66555  0.77867  1.0000
  H   H123      1.0  0.25552  0.92034  0.97212  1.0000
  H   H124      1.0  0.25425  0.68176  0.65243  1.0000
  H   H125      1.0  0.21708  0.99585  0.95829  1.0000
  H   H126      1.0  0.21065  0.70995  0.54437  1.0000
  H   H127      1.0  0.30464  0.83186  0.98231  1.0000
  C   C121      1.0  0.26618  0.90088  0.97450  1.0000
  C   C122      1.0  0.17927  0.93944  0.55432  1.0000
  C   C123      1.0  0.23243  0.72708  0.52964  1.0000
  C   C124      1.0  0.29424  0.85162  0.98005  1.0000
  C   C125      1.0  0.16345  0.94677  0.52315  1.0000
  S   S43       1.0  0.29174  0.56891  0.94203  1.0000
  C   C126      1.0  0.29110  0.74401  0.00528  1.0000
  H   H128      1.0  0.17931  0.90049  0.59270  1.0000
  H   H129      1.0  0.20047  0.83599  0.94359  1.0000
  H   H130      1.0  0.02758  0.74737  0.94564  1.0000
  H   H131      1.0  0.28031  0.61025  0.78099  1.0000
  Fe  Fe22      1.0  0.31216  0.67234  0.55803  1.0000
  C   C127      1.0  0.23838  0.61246  0.97726  1.0000
  H   H132      1.0  0.26194  0.53910  0.54479  1.0000
  C   C128      1.0  0.27246  0.65168  0.75319  1.0000
  C   C129      1.0  0.31042  0.88290  0.99722  1.0000
  C   C130      1.0  0.03147  0.76740  0.54333  1.0000
  C   C131      1.0  0.13866  0.88205  0.55282  1.0000
  Fe  Fe23      1.0  0.33512  0.61472  0.53505  1.0000
  C   C132      1.0  0.21990  0.63358  0.97505  1.0000
  C   C133      1.0  0.22949  0.75431  0.50938  1.0000
  H   H133      1.0  0.25162  0.82131  0.94710  1.0000
  C   C134      1.0  0.25179  0.96951  0.50585  1.0000
  C   C135      1.0  0.16689  0.90676  0.56902  1.0000
  H   H134      1.0  0.26719  0.69018  0.71792  1.0000
  C   C136      1.0  0.22510  0.65891  0.00154  1.0000
  N   N10       1.0  0.24993  0.86979  0.95879  1.0000
  C   C137      1.0  0.26934  0.66555  0.71874  1.0000
  C   C138      1.0  0.26835  0.66438  0.65065  1.0000
  H   H135      1.0  0.12885  0.85645  0.56384  1.0000
  H   H136      1.0  0.20557  0.75797  0.50850  1.0000
  C   C139      1.0  0.01975  0.75244  0.97276  1.0000
  H   H137      1.0  0.07111  0.78149  0.99093  1.0000
  H   H138      1.0  0.22273  0.86690  0.90865  1.0000
  H   H139      1.0  0.21121  0.67582  0.99991  1.0000
  C   C140      1.0  0.26316  0.51937  0.52663  1.0000
  H   H140      1.0  0.17368  0.97206  0.51139  1.0000
  C   C141      1.0  0.27257  0.99496  0.52998  1.0000
  C   C142      1.0  0.23921  0.99878  0.97506  1.0000
  H   H141      1.0  0.20180  0.63048  0.95270  1.0000
  H   H142      1.0  0.10186  0.87071  0.50890  1.0000
  C   C143      1.0  0.23821  0.97298  0.00012  1.0000
  C   C144      1.0  0.29654  0.90788  0.99413  1.0000
  H   H143      1.0  0.24749  0.94319  0.51117  1.0000
  C   C145      1.0  0.23690  0.76756  0.00270  1.0000
  C   C146      1.0  0.12359  0.89023  0.52155  1.0000
  H   H144      1.0  0.31529  0.74072  0.51291  1.0000
  S   S44       1.0  0.09491  0.80124  0.51367  1.0000
  C   C147      1.0  0.05077  0.77591  0.51053  1.0000
  C   C148      1.0  0.29133  0.74428  0.51197  1.0000
  S   S45       1.0  0.20256  0.78157  0.99947  1.0000
  N   N11       1.0  0.13646  0.92209  0.50671  1.0000
  H   H145      1.0  0.60220  0.23137  0.18104  1.0000
  H   H146      1.0  0.65200  0.18882  0.47553  1.0000
  C   C149      1.0  0.51024  0.24049  0.03588  1.0000
  S   S46       1.0  0.64243  0.37013  0.07840  1.0000
  H   H147      1.0  0.66057  0.37378  0.31736  1.0000
  C   C150      1.0  0.50380  0.23295  0.47246  1.0000
  S   S47       1.0  0.64838  0.36836  0.41869  1.0000
  H   H148      1.0  0.62971  0.23340  0.49093  1.0000
  Fe  Fe24      1.0  0.63473  0.33288  0.46812  1.0000
  C   C151      1.0  0.58421  0.26983  0.16161  1.0000
  H   H149      1.0  0.55300  0.26234  0.44912  1.0000
  H   H150      1.0  0.50666  0.23049  0.06381  1.0000
  H   H151      1.0  0.65704  0.39770  0.25511  1.0000
  H   H152      1.0  0.60489  0.30818  0.25970  1.0000
  Fe  Fe25      1.0  0.63025  0.31622  0.06049  1.0000
  S   S48       1.0  0.57537  0.27772  0.05919  1.0000
  C   C152      1.0  0.59729  0.25389  0.18822  1.0000
  C   C153      1.0  0.58631  0.31266  0.20481  1.0000
  C   C154      1.0  0.60436  0.26750  0.22386  1.0000
  H   H153      1.0  0.44610  0.26254  0.45572  1.0000
  C   C155      1.0  0.54201  0.26460  0.02555  1.0000
  H   H154      1.0  0.58354  0.33642  0.21114  1.0000
  C   C156      1.0  0.66466  0.37613  0.25743  1.0000
  C   C157      1.0  0.53625  0.25908  0.47258  1.0000
  H   H155      1.0  0.55528  0.33347  0.15356  1.0000
  H   H156      1.0  0.57896  0.25925  0.13386  1.0000
  C   C158      1.0  0.56550  0.31516  0.14160  1.0000
  N   N12       1.0  0.57856  0.29863  0.17022  1.0000
  H   H157      1.0  0.58615  0.32887  0.12206  1.0000
  H   H158      1.0  0.54477  0.29611  0.12546  1.0000
  H   H159      1.0  0.61494  0.25574  0.24473  1.0000
  C   C159      1.0  0.59864  0.29693  0.23233  1.0000
  H   H160      1.0  0.38795  0.20219  0.45170  1.0000
  H   H161      1.0  0.49591  0.21625  0.44876  1.0000
  C   C160      1.0  0.48143  0.22835  0.50256  1.0000
  S   S49       1.0  0.44004  0.19623  0.49971  1.0000
  C   C161      1.0  0.38109  0.22448  0.44532  1.0000
  H   H162      1.0  0.35296  0.21574  0.44374  1.0000
  S   S50       1.0  0.66009  0.30562  0.10773  1.0000
  H   H163      1.0  0.39139  0.23454  0.41765  1.0000
  C   C162      1.0  0.66661  0.36261  0.29275  1.0000
  S   S51       1.0  0.66044  0.29912  0.44573  1.0000
  C   C163      1.0  0.66141  0.20466  0.49976  1.0000
  H   H164      1.0  0.45884  0.21032  0.01876  1.0000
  N   N13       1.0  0.39518  0.25045  0.47391  1.0000
  C   C164      1.0  0.48300  0.22895  0.01035  1.0000
  C   C165      1.0  0.54667  0.28120  0.50277  1.0000
  C   C166      1.0  0.42946  0.26799  0.47535  1.0000
  S   S52       1.0  0.66789  0.37907  0.18131  1.0000
  C   C167      1.0  0.37436  0.25620  0.49970  1.0000
  H   H165      1.0  0.34729  0.24192  0.49909  1.0000
  S   S53       1.0  0.58674  0.31550  0.50418  1.0000
  C   C168      1.0  0.44372  0.29220  0.50300  1.0000
  H   H166      1.0  0.47103  0.30549  0.50443  1.0000
  Fe  Fe26      1.0  0.37109  0.16549  0.62229  1.0000
  S   S54       1.0  0.38482  0.13486  0.57879  1.0000
  S   S55       1.0  0.39200  0.16400  0.68072  1.0000
  Fe  Fe27      1.0  0.39592  0.17991  0.54118  1.0000
  H   H167      1.0  0.38116  0.15312  0.81632  1.0000
  C   C169      1.0  0.44009  0.24931  0.84750  1.0000
  S   S56       1.0  0.38619  0.21184  0.58587  1.0000
  C   C170      1.0  0.49200  0.25022  0.53293  1.0000
  Fe  Fe28      1.0  0.39853  0.19086  0.94658  1.0000
  S   S57       1.0  0.35957  0.21112  0.92549  1.0000
  H   H168      1.0  0.48184  0.24161  0.79570  1.0000
  H   H169      1.0  0.39737  0.23027  0.76671  1.0000
  C   C171      1.0  0.39211  0.07909  0.66883  1.0000
  H   H170      1.0  0.34153  0.06874  0.62105  1.0000
  S   S58       1.0  0.37788  0.14280  0.91263  1.0000
  H   H171      1.0  0.40756  0.10521  0.65948  1.0000
  C   C172      1.0  0.54617  0.27715  0.98924  1.0000
  C   C173      1.0  0.52432  0.27653  0.53291  1.0000
  H   H172      1.0  0.44940  0.22263  0.76160  1.0000
  H   H173      1.0  0.36790  0.08727  0.73504  1.0000
  H   H174      1.0  0.45093  0.19934  0.80301  1.0000
  C   C174      1.0  0.38558  0.15809  0.75648  1.0000
  C   C175      1.0  0.51895  0.26549  0.96364  1.0000
  H   H175      1.0  0.37194  0.27037  0.86626  1.0000
  Fe  Fe29      1.0  0.34312  0.12009  0.96130  1.0000
  C   C176      1.0  0.34017  0.16861  0.72472  1.0000
  C   C177      1.0  0.42263  0.29827  0.52936  1.0000
  C   C178      1.0  0.33906  0.16275  0.79245  1.0000
  H   H176      1.0  0.42472  0.26950  0.89604  1.0000
  H   H177      1.0  0.57037  0.29566  0.98079  1.0000
  C   C179      1.0  0.38769  0.28026  0.52768  1.0000
  C   C180      1.0  0.45480  0.22491  0.79192  1.0000
  C   C181      1.0  0.36969  0.15746  0.79093  1.0000
  C   C182      1.0  0.41887  0.26165  0.86735  1.0000
  C   C183      1.0  0.40386  0.23944  0.79486  1.0000
  C   C184      1.0  0.64909  0.23008  0.50849  1.0000
  H   H178      1.0  0.52259  0.27526  0.93562  1.0000
  C   C185      1.0  0.37099  0.16377  0.72323  1.0000
  H   H179      1.0  0.53207  0.29345  0.55644  1.0000
  H   H180      1.0  0.35804  0.24981  0.80146  1.0000
  N   N14       1.0  0.43263  0.23874  0.81160  1.0000
  H   H181      1.0  0.63602  0.27282  0.57435  1.0000
  H   H182      1.0  0.40926  0.15398  0.75555  1.0000
  H   H183      1.0  0.46226  0.24773  0.86134  1.0000
  C   C186      1.0  0.48721  0.24130  0.97397  1.0000
  S   S59       1.0  0.45395  0.22722  0.94025  1.0000
  C   C187      1.0  0.64918  0.27778  0.54718  1.0000
  C   C188      1.0  0.38160  0.25079  0.81424  1.0000
  H   H184      1.0  0.47515  0.24710  0.55628  1.0000
  C   C189      1.0  0.34931  0.08219  0.71291  1.0000
  C   C190      1.0  0.38932  0.26215  0.85064  1.0000
  N   N15       1.0  0.35763  0.07702  0.67741  1.0000
  H   H185      1.0  0.43337  0.31655  0.55132  1.0000
  S   S60       1.0  0.36729  0.16681  0.99651  1.0000
  H   H186      1.0  0.37094  0.28431  0.54827  1.0000
  S   S61       1.0  0.34220  0.16123  0.51840  1.0000
  H   H187      1.0  0.39179  0.06111  0.64634  1.0000
  N   N16       1.0  0.66170  0.25081  0.53838  1.0000
  H   H188      1.0  0.63094  0.27994  0.52602  1.0000
  H   H189      1.0  0.40460  0.07294  0.69343  1.0000
  H   H190      1.0  0.67072  0.30260  0.54828  1.0000
  H   H191      1.0  0.52682  0.73670  0.41524  1.0000
  H   H192      1.0  0.59654  0.75053  0.15856  1.0000
  H   H193      1.0  0.56518  0.75273  0.02992  1.0000
  C   C191      1.0  0.66621  0.81313  0.28657  1.0000
  H   H194      1.0  0.50827  0.78484  0.42397  1.0000
  H   H195      1.0  0.59998  0.74043  0.35604  1.0000
  S   S62       1.0  0.63970  0.85452  0.44021  1.0000
  S   S63       1.0  0.63910  0.78927  0.07003  1.0000
  Fe  Fe30      1.0  0.63418  0.80277  0.46103  1.0000
  C   C192      1.0  0.66617  0.81901  0.21877  1.0000
  C   C193      1.0  0.58783  0.79525  0.36611  1.0000
  H   H196      1.0  0.55872  0.71243  0.37100  1.0000
  S   S64       1.0  0.64744  0.86511  0.10073  1.0000
  H   H197      1.0  0.59172  0.73208  0.40473  1.0000
  Fe  Fe31      1.0  0.62341  0.83162  0.05157  1.0000
  S   S65       1.0  0.57016  0.82356  0.03015  1.0000
  C   C194      1.0  0.54163  0.75370  0.01947  1.0000
  C   C195      1.0  0.58047  0.73597  0.37800  1.0000
  H   H198      1.0  0.66659  0.77469  0.24764  1.0000
  H   H199      1.0  0.66588  0.86666  0.19895  1.0000
  H   H200      1.0  0.61069  0.79862  0.35056  1.0000
  H   H201      1.0  0.59339  0.84749  0.35911  1.0000
  C   C196      1.0  0.54926  0.81933  0.39158  1.0000
  C   C197      1.0  0.53036  0.78792  0.40708  1.0000
  C   C198      1.0  0.57808  0.82303  0.37078  1.0000
  C   C199      1.0  0.54087  0.76069  0.40187  1.0000
  H   H202      1.0  0.54193  0.84090  0.39617  1.0000
  N   N17       1.0  0.56924  0.76457  0.38156  1.0000
  N   N18       1.0  0.57285  0.78620  0.14921  1.0000
  C   C200      1.0  0.58570  0.80472  0.18049  1.0000
  C   C201      1.0  0.55835  0.79886  0.12196  1.0000
  C   C202      1.0  0.58584  0.83752  0.18425  1.0000
  C   C203      1.0  0.55794  0.83152  0.12482  1.0000
  C   C204      1.0  0.57206  0.85104  0.15606  1.0000
  C   C205      1.0  0.57322  0.75199  0.14567  1.0000
  H   H203      1.0  0.59666  0.79444  0.20240  1.0000
  H   H204      1.0  0.54745  0.78394  0.09750  1.0000
  H   H205      1.0  0.59711  0.85249  0.20862  1.0000
  H   H206      1.0  0.54735  0.84176  0.10249  1.0000
  H   H207      1.0  0.57256  0.87668  0.15824  1.0000
  H   H208      1.0  0.55057  0.73342  0.15938  1.0000
  H   H209      1.0  0.57347  0.74483  0.11605  1.0000
  S   S66       1.0  0.58693  0.75701  0.47785  1.0000
  C   C206      1.0  0.53735  0.78475  0.01745  1.0000
  S   S67       1.0  0.66244  0.79244  0.41235  1.0000
  S   S68       1.0  0.66279  0.86269  0.33535  1.0000
  C   C207      1.0  0.54535  0.75138  0.49345  1.0000
  C   C208      1.0  0.53467  0.77851  0.49849  1.0000
  C   C209      1.0  0.52183  0.71824  0.49932  1.0000
  C   C210      1.0  0.66514  0.86456  0.25902  1.0000
  C   C211      1.0  0.66543  0.84553  0.29095  1.0000
  H   H210      1.0  0.66466  0.88970  0.26207  1.0000
  H   H211      1.0  0.55240  0.80413  0.49414  1.0000
  C   C212      1.0  0.66584  0.85157  0.22316  1.0000
  S   S69       1.0  0.66364  0.80005  0.17428  1.0000
  H   H212      1.0  0.66659  0.79820  0.31078  1.0000
  Fe  Fe32      1.0  0.66645  0.82415  0.11695  1.0000
  H   H213      1.0  0.52975  0.69703  0.49543  1.0000
  S   S70       1.0  0.66913  0.85620  0.01532  1.0000
  C   C213      1.0  0.66630  0.79990  0.25068  1.0000
  C   C214      1.0  0.51572  0.72389  0.00673  1.0000
  H   H214      1.0  0.51958  0.70012  0.00756  1.0000
  Fe  Fe33      1.0  0.67089  0.84533  0.39367  1.0000
  C   C215      1.0  0.35654  0.68194  0.78444  1.0000
  S   S71       1.0  0.38437  0.63730  0.56720  1.0000
  C   C216      1.0  0.36252  0.63623  0.74817  1.0000
  Fe  Fe34      1.0  0.38778  0.68778  0.54444  1.0000
  S   S72       1.0  0.43479  0.73343  0.52685  1.0000
  S   S73       1.0  0.35697  0.65716  0.99062  1.0000
  S   S74       1.0  0.35895  0.69845  0.59244  1.0000
  H   H215      1.0  0.49282  0.79365  0.51235  1.0000
  Fe  Fe35      1.0  0.40148  0.67912  0.95193  1.0000
  S   S75       1.0  0.38512  0.72033  0.93046  1.0000
  C   C217      1.0  0.50082  0.77245  0.50878  1.0000
  H   H216      1.0  0.45337  0.75759  0.60130  1.0000
  C   C218      1.0  0.48051  0.75554  0.99122  1.0000
  H   H217      1.0  0.45723  0.75660  0.97996  1.0000
  S   S76       1.0  0.37531  0.64272  0.90552  1.0000
  S   S77       1.0  0.35973  0.63130  0.67214  1.0000
  H   H218      1.0  0.63918  0.79642  0.96718  1.0000
  Fe  Fe36      1.0  0.35251  0.64661  0.61281  1.0000
  H   H219      1.0  0.35234  0.69543  0.69094  1.0000
  C   C219      1.0  0.44061  0.74591  0.65891  1.0000
  C   C220      1.0  0.35489  0.68300  0.71636  1.0000
  H   H220      1.0  0.42355  0.63061  0.64107  1.0000
  H   H221      1.0  0.43790  0.76982  0.66467  1.0000
  H   H222      1.0  0.42792  0.72650  0.71450  1.0000
  C   C221      1.0  0.44926  0.73907  0.62337  1.0000
  H   H223      1.0  0.46795  0.64726  0.65405  1.0000
  C   C222      1.0  0.36113  0.65105  0.78280  1.0000
  H   H224      1.0  0.43288  0.67167  0.70020  1.0000
  Fe  Fe37      1.0  0.35575  0.68262  0.88669  1.0000
  C   C223      1.0  0.47725  0.73930  0.51442  1.0000
  H   H225      1.0  0.58271  0.69079  0.94800  1.0000
  C   C224      1.0  0.58483  0.71698  0.94653  1.0000
  C   C225      1.0  0.44854  0.65119  0.63587  1.0000
  H   H226      1.0  0.59085  0.80973  0.94276  1.0000
  C   C226      1.0  0.61642  0.77630  0.95744  1.0000
  N   N19       1.0  0.56040  0.75815  0.93096  1.0000
  C   C227      1.0  0.61420  0.74279  0.95913  1.0000
  H   H227      1.0  0.53746  0.77238  0.88484  1.0000
  C   C228      1.0  0.58913  0.78361  0.94324  1.0000
  H   H228      1.0  0.45550  0.64901  0.60653  1.0000
  H   H229      1.0  0.50784  0.74498  0.91778  1.0000
  H   H230      1.0  0.35040  0.72195  0.75198  1.0000
  C   C229      1.0  0.55809  0.72518  0.93219  1.0000
  H   H231      1.0  0.53004  0.78845  0.92910  1.0000
  H   H232      1.0  0.53511  0.70495  0.92291  1.0000
  C   C230      1.0  0.53265  0.76642  0.91475  1.0000
  H   H233      1.0  0.63530  0.73699  0.97027  1.0000
  H   H234      1.0  0.47025  0.68654  0.51379  1.0000
  N   N20       1.0  0.44627  0.68413  0.64361  1.0000
  C   C231      1.0  0.45198  0.70785  0.61613  1.0000
  C   C232      1.0  0.43809  0.69077  0.67863  1.0000
  H   H235      1.0  0.45831  0.70267  0.58826  1.0000
  C   C233      1.0  0.43511  0.72171  0.68683  1.0000
  C   C234      1.0  0.35386  0.69800  0.75100  1.0000
  C   C235      1.0  0.35903  0.65189  0.71481  1.0000
  S   S78       1.0  0.45575  0.68743  0.97110  1.0000
  H   H236      1.0  0.36331  0.63843  0.80825  1.0000
  S   S79       1.0  0.35271  0.70091  0.82723  1.0000
  C   C236      1.0  0.48527  0.72469  0.99187  1.0000
  C   C237      1.0  0.50640  0.78535  0.00396  1.0000
  H   H237      1.0  0.36582  0.61219  0.74731  1.0000
  C   C238      1.0  0.48803  0.71219  0.50980  1.0000
  S   S80       1.0  0.34090  0.66495  0.50867  1.0000
  Fe  Fe38      1.0  0.33918  0.69681  0.96659  1.0000
  H   H238      1.0  0.50265  0.80916  0.00255  1.0000
  Fe  Fe39      1.0  0.70722  0.33361  0.47501  1.0000
  C   C239      1.0  0.77852  0.23089  0.50034  1.0000
  C   C240      1.0  0.77713  0.44505  0.38807  1.0000
  Fe  Fe40      1.0  0.69669  0.39830  0.44980  1.0000
  S   S81       1.0  0.71794  0.45641  0.44675  1.0000
  S   S82       1.0  0.72622  0.36854  0.42638  1.0000
  C   C241      1.0  0.78562  0.03247  0.02039  1.0000
  Fe  Fe41      1.0  0.70502  0.32363  0.06927  1.0000
  C   C242      1.0  0.68360  0.32022  0.26373  1.0000
  Fe  Fe42      1.0  0.68888  0.38383  0.04238  1.0000
  H   H239      1.0  0.73273  0.27053  0.45437  1.0000
  S   S83       1.0  0.72178  0.37791  0.08873  1.0000
  C   C243      1.0  0.75930  0.23833  0.47219  1.0000
  H   H240      1.0  0.74885  0.34924  0.31011  1.0000
  N   N21       1.0  0.76727  0.39976  0.32964  1.0000
  C   C244      1.0  0.93873  0.28026  0.49627  1.0000
  H   H241      1.0  0.83811  0.42751  0.04040  1.0000
  Fe  Fe43      1.0  0.67433  0.36000  0.12357  1.0000
  C   C245      1.0  0.97952  0.22170  0.49136  1.0000
  H   H242      1.0  0.75286  0.22286  0.44743  1.0000
  Fe  Fe44      1.0  0.67730  0.33674  0.39830  1.0000
  C   C246      1.0  0.79229  0.40333  0.35521  1.0000
  S   S84       1.0  0.68094  0.36559  0.50036  1.0000
  H   H243      1.0  0.68744  0.32241  0.20376  1.0000
  H   H244      1.0  0.95598  0.20180  0.48329  1.0000
  H   H245      1.0  0.76223  0.45671  0.05029  1.0000
  H   H246      1.0  0.74611  0.37974  0.27673  1.0000
  H   H247      1.0  0.73895  0.14947  0.05609  1.0000
  H   H248      1.0  0.90670  0.23706  0.41686  1.0000
  H   H249      1.0  0.81264  0.23703  0.02125  1.0000
  C   C247      1.0  0.78217  0.26402  0.04279  1.0000
  H   H250      1.0  0.81728  0.42865  0.40520  1.0000
  H   H251      1.0  0.74448  0.09581  0.05666  1.0000
  C   C248      1.0  0.76196  0.37537  0.29935  1.0000
  H   H252      1.0  0.78651  0.37735  0.28686  1.0000
  C   C249      1.0  0.74925  0.09636  0.02636  1.0000
  H   H253      1.0  0.78052  0.46227  0.41125  1.0000
  C   C250      1.0  0.81630  0.41692  0.02223  1.0000
  H   H254      1.0  0.79262  0.26607  0.07050  1.0000
  H   H255      1.0  0.73421  0.45435  0.36574  1.0000
  H   H256      1.0  0.72607  0.41428  0.31359  1.0000
  C   C251      1.0  0.79779  0.42620  0.38462  1.0000
  S   S85       1.0  0.74457  0.29897  0.07106  1.0000
  H   H257      1.0  0.74778  0.34488  0.00814  1.0000
  C   C252      1.0  0.74794  0.26538  0.47598  1.0000
  S   S86       1.0  0.79124  0.19599  0.49444  1.0000
  C   C253      1.0  0.87730  0.24179  0.46361  1.0000
  H   H258      1.0  0.80788  0.38814  0.35316  1.0000
  C   C254      1.0  0.75744  0.27792  0.03507  1.0000
  C   C255      1.0  0.74642  0.48516  0.47852  1.0000
  C   C256      1.0  0.75115  0.44065  0.36240  1.0000
  C   C257      1.0  0.74652  0.41774  0.33319  1.0000
  H   H259      1.0  0.96196  0.27189  0.44596  1.0000
  S   S87       1.0  0.67443  0.33020  0.02070  1.0000
  H   H260      1.0  0.79738  0.36823  0.04977  1.0000
  C   C258      1.0  0.90737  0.24788  0.44421  1.0000
  C   C259      1.0  0.76296  0.47553  0.02970  1.0000
  C   C260      1.0  0.79363  0.24761  0.01492  1.0000
  H   H261      1.0  0.85304  0.22622  0.45151  1.0000
  C   C261      1.0  0.93831  0.26746  0.46047  1.0000
  H   H262      1.0  0.80614  0.05548  0.02850  1.0000
  N   N22       1.0  0.73863  0.12121  0.00708  1.0000
  H   H263      1.0  0.77676  0.10239  0.02177  1.0000
  H   H264      1.0  0.69106  0.29854  0.26600  1.0000
  C   C262      1.0  0.68172  0.33378  0.22841  1.0000
  C   C263      1.0  0.67619  0.33461  0.29609  1.0000
  H   H265      1.0  0.73508  0.07046  0.01550  1.0000
  S   S88       1.0  0.68017  0.31714  0.33980  1.0000
  C   C264      1.0  0.73437  0.14702  0.02644  1.0000
  H   H266      1.0  0.72158  0.19175  0.02341  1.0000
  C   C265      1.0  0.79355  0.38377  0.02752  1.0000
  C   C266      1.0  0.87864  0.25529  0.49919  1.0000
  C   C267      1.0  0.72440  0.17092  0.00820  1.0000
  H   H267      1.0  0.00323  0.22390  0.43799  1.0000
  H   H268      1.0  0.78521  0.00704  0.07246  1.0000
  C   C268      1.0  0.67210  0.36177  0.22506  1.0000
  Fe  Fe45      1.0  0.82183  0.17667  0.53437  1.0000
  H   H269      1.0  0.74559  0.04519  0.69827  1.0000
  Fe  Fe46      1.0  0.83476  0.15514  0.61238  1.0000
  S   S89       1.0  0.87501  0.13659  0.59241  1.0000
  S   S90       1.0  0.81253  0.15116  0.67057  1.0000
  Fe  Fe47      1.0  0.89406  0.18449  0.55799  1.0000
  H   H270      1.0  0.69676  0.26362  0.58352  1.0000
  Fe  Fe48      1.0  0.83909  0.11325  0.54467  1.0000
  H   H271      1.0  0.96632  0.27980  0.87619  1.0000
  S   S91       1.0  0.85558  0.20441  0.58121  1.0000
  S   S92       1.0  0.79762  0.12856  0.56695  1.0000
  Fe  Fe49      1.0  0.82248  0.11921  0.94936  1.0000
  S   S93       1.0  0.80926  0.14910  0.90416  1.0000
  C   C269      1.0  0.97569  0.26036  0.99596  1.0000
  Fe  Fe50      1.0  0.89020  0.17890  0.96558  1.0000
  S   S94       1.0  0.88072  0.21221  0.92194  1.0000
  H   H272      1.0  0.76990  0.08638  0.71754  1.0000
  Fe  Fe51      1.0  0.82710  0.19309  0.94393  1.0000
  H   H273      1.0  0.85512  0.25006  0.51414  1.0000
  Fe  Fe52      1.0  0.86331  0.16586  0.88555  1.0000
  S   S95       1.0  0.88677  0.16814  0.82807  1.0000
  C   C270      1.0  0.77809  0.44312  0.93949  1.0000
  S   S96       1.0  0.87565  0.13327  0.92797  1.0000
  H   H274      1.0  0.80132  0.24545  0.55418  1.0000
  H   H275      1.0  0.87725  0.08424  0.69690  1.0000
  N   N23       1.0  0.90910  0.27430  0.51503  1.0000
  C   C271      1.0  0.73663  0.46847  0.00378  1.0000
  C   C272      1.0  0.75596  0.25916  0.97117  1.0000
  H   H276      1.0  0.76446  0.03729  0.55580  1.0000
  S   S97       1.0  0.70266  0.42847  0.00178  1.0000
  C   C273      1.0  0.79401  0.05664  0.64043  1.0000
  H   H277      1.0  0.82525  0.08740  0.72425  1.0000
  C   C274      1.0  0.76421  0.07084  0.69182  1.0000
  C   C275      1.0  0.85302  0.06376  0.64489  1.0000
  S   S98       1.0  0.83160  0.06114  0.52003  1.0000
  H   H278      1.0  0.78891  0.43687  0.91383  1.0000
  H   H279      1.0  0.77088  0.04959  0.62412  1.0000
  C   C276      1.0  0.73445  0.11921  0.96939  1.0000
  C   C277      1.0  0.83417  0.15762  0.71388  1.0000
  C   C278      1.0  0.86876  0.16328  0.71655  1.0000
  C   C279      1.0  0.88441  0.16645  0.75170  1.0000
  C   C280      1.0  0.86577  0.16407  0.78452  1.0000
  C   C281      1.0  0.83117  0.15831  0.78180  1.0000
  C   C282      1.0  0.81551  0.15508  0.74668  1.0000
  H   H280      1.0  0.88343  0.16516  0.69159  1.0000
  H   H281      1.0  0.91120  0.17093  0.75347  1.0000
  H   H282      1.0  0.81651  0.15647  0.80677  1.0000
  H   H283      1.0  0.78875  0.15073  0.74497  1.0000
  C   C283      1.0  0.85382  0.07582  0.68099  1.0000
  C   C284      1.0  0.75691  0.47415  0.51122  1.0000
  C   C285      1.0  0.76537  0.01787  0.53705  1.0000
  C   C286      1.0  0.77890  0.49784  0.53607  1.0000
  H   H284      1.0  0.91951  0.27202  0.57225  1.0000
  C   C287      1.0  0.82429  0.07765  0.69629  1.0000
  H   H285      1.0  0.82211  0.04477  0.59631  1.0000
  C   C288      1.0  0.72490  0.14292  0.95022  1.0000
  C   C289      1.0  0.98304  0.23515  0.52718  1.0000
  N   N24       1.0  0.78290  0.42312  0.97067  1.0000
  S   S99       1.0  0.94115  0.19011  0.99557  1.0000
  C   C290      1.0  0.77082  0.03021  0.98524  1.0000
  N   N25       1.0  0.79501  0.06853  0.67582  1.0000
  H   H286      1.0  0.71797  0.48802  0.95682  1.0000
  H   H287      1.0  0.98019  0.16013  0.88745  1.0000
  H   H288      1.0  0.78181  0.29358  0.56073  1.0000
  C   C291      1.0  0.79433  0.02369  0.51542  1.0000
  C   C292      1.0  0.76044  0.39068  0.97576  1.0000
  S   S100      1.0  0.78326  0.06468  0.95317  1.0000
  H   H289      1.0  0.75281  0.08380  0.67204  1.0000
  S   S101      1.0  0.94937  0.22200  0.56003  1.0000
  S   S102      1.0  0.86154  0.15997  0.50887  1.0000
  C   C293      1.0  0.82290  0.05390  0.62452  1.0000
  S   S103      1.0  0.79353  0.22450  0.94264  1.0000
  H   H290      1.0  0.72464  0.28501  0.99285  1.0000
  H   H291      1.0  0.71853  0.21826  0.56997  1.0000
  H   H292      1.0  0.78660  0.48896  0.56142  1.0000
  C   C294      1.0  0.73813  0.49326  0.97712  1.0000
  H   H293      1.0  0.96297  0.29424  0.50936  1.0000
  H   H294      1.0  0.69683  0.18118  0.51523  1.0000
  C   C295      1.0  0.96346  0.22856  0.88482  1.0000
  H   H295      1.0  0.72265  0.14191  0.92022  1.0000
  C   C296      1.0  0.97857  0.26379  0.88811  1.0000
  C   C297      1.0  0.81070  0.43628  0.99328  1.0000
  H   H296      1.0  0.95245  0.26236  0.98586  1.0000
  H   H297      1.0  0.82847  0.46205  0.98930  1.0000
  H   H298      1.0  0.71302  0.18777  0.95517  1.0000
  C   C298      1.0  0.97675  0.22840  0.00309  1.0000
  H   H299      1.0  0.79043  0.47074  0.94496  1.0000
  H   H300      1.0  0.88509  0.28598  0.56248  1.0000
  C   C299      1.0  0.78074  0.24534  0.97885  1.0000
  H   H301      1.0  0.73885  0.09942  0.95384  1.0000
  H   H302      1.0  0.87581  0.06262  0.63237  1.0000
  C   C300      1.0  0.77563  0.27827  0.53585  1.0000
  H   H303      1.0  0.93959  0.21770  0.86992  1.0000
  C   C301      1.0  0.75595  0.28538  0.50794  1.0000
  C   C302      1.0  0.68608  0.24653  0.56051  1.0000
  H   H304      1.0  0.74571  0.25736  0.94338  1.0000
  C   C303      1.0  0.71948  0.16866  0.96987  1.0000
  H   H305      1.0  0.95283  0.16052  0.92574  1.0000
  C   C304      1.0  0.91042  0.28729  0.55290  1.0000
  C   C305      1.0  0.74409  0.27504  0.99915  1.0000
  S   S104      1.0  0.83723  0.16241  0.99049  1.0000
  C   C306      1.0  0.68635  0.20019  0.52215  1.0000
  C   C307      1.0  0.78676  0.25105  0.53219  1.0000
  H   H306      1.0  0.92805  0.31413  0.55448  1.0000
  N   N26       1.0  0.97835  0.20814  0.90049  1.0000
  C   C308      1.0  0.69855  0.22101  0.55294  1.0000
  H   H307      1.0  0.75062  0.43787  0.93499  1.0000
  H   H308      1.0  0.93988  0.16338  0.87862  1.0000
  C   C309      1.0  0.96200  0.17122  0.89789  1.0000
  S   S105      1.0  0.74038  0.31815  0.51525  1.0000
  H   H309      1.0  0.73818  0.38033  0.95814  1.0000
  H   H310      1.0  0.74784  0.44737  0.51756  1.0000
  H   H311      1.0  0.00348  0.31445  0.99685  1.0000
  C   C310      1.0  0.76553  0.37055  0.00411  1.0000
  Fe  Fe53      1.0  0.70935  0.81603  0.44728  1.0000
  C   C311      1.0  0.74030  0.76115  0.03737  1.0000
  S   S106      1.0  0.75306  0.79710  0.44795  1.0000
  Fe  Fe54      1.0  0.68907  0.87450  0.47248  1.0000
  H   H312      1.0  0.83351  0.88924  0.46524  1.0000
  S   S107      1.0  0.72030  0.86864  0.42484  1.0000
  C   C312      1.0  0.75416  0.61264  0.03155  1.0000
  H   H313      1.0  0.82863  0.84659  0.08656  1.0000
  C   C313      1.0  0.75898  0.76916  0.48140  1.0000
  Fe  Fe55      1.0  0.69477  0.88601  0.06548  1.0000
  H   H314      1.0  0.79282  0.86907  0.44289  1.0000
  S   S108      1.0  0.71519  0.84662  0.08482  1.0000
  C   C314      1.0  0.77369  0.00487  0.04528  1.0000
  C   C315      1.0  0.77552  0.73116  0.01390  1.0000
  N   N27       1.0  0.77208  0.60120  0.05624  1.0000
  H   H315      1.0  0.76843  0.73909  0.07184  1.0000
  C   C316      1.0  0.88449  0.58156  0.50094  1.0000
  S   S109      1.0  0.80283  0.70911  0.02348  1.0000
  H   H316      1.0  0.81722  0.83648  0.50299  1.0000
  H   H317      1.0  0.80466  0.91112  0.46191  1.0000
  C   C317      1.0  0.81001  0.88622  0.07365  1.0000
  H   H318      1.0  0.73017  0.77048  0.06056  1.0000
  H   H319      1.0  0.81911  0.90004  0.09925  1.0000
  C   C318      1.0  0.99938  0.74445  0.47571  1.0000
  H   H320      1.0  0.75066  0.52893  0.44557  1.0000
  C   C319      1.0  0.78056  0.54387  0.49575  1.0000
  H   H321      1.0  0.80251  0.62367  0.10310  1.0000
  H   H322      1.0  0.94884  0.73670  0.02467  1.0000
  H   H323      1.0  0.88806  0.61278  0.45273  1.0000
  H   H324      1.0  0.80950  0.65119  0.06365  1.0000
  N   N28       1.0  0.77982  0.88019  0.01591  1.0000
  H   H325      1.0  0.78940  0.57066  0.48966  1.0000
  C   C320      1.0  0.74699  0.97460  0.03541  1.0000
  H   H326      1.0  0.80745  0.81560  0.02757  1.0000
  H   H327      1.0  0.99237  0.77106  0.06986  1.0000
  C   C321      1.0  0.80388  0.62453  0.07237  1.0000
  H   H328      1.0  0.76309  0.63917  0.02385  1.0000
  C   C322      1.0  0.90053  0.60915  0.47780  1.0000
  C   C323      1.0  0.79459  0.99820  0.49064  1.0000
  H   H329      1.0  0.80616  0.77131  0.45721  1.0000
  C   C324      1.0  0.80628  0.88585  0.46617  1.0000
  H   H330      1.0  0.70768  0.62974  0.49281  1.0000
  H   H331      1.0  0.82532  0.61736  0.06317  1.0000
  S   S110      1.0  0.73293  0.94080  0.06825  1.0000
  C   C325      1.0  0.76203  0.74339  0.04368  1.0000
  C   C326      1.0  0.76082  0.56768  0.06570  1.0000
  H   H332      1.0  0.81108  0.51180  0.04845  1.0000
  H   H333      1.0  0.76693  0.94851  0.46772  1.0000
  H   H334      1.0  0.72235  0.51791  0.05739  1.0000
  C   C327      1.0  0.81534  0.85631  0.06653  1.0000
  C   C328      1.0  0.78831  0.76120  0.47959  1.0000
  H   H335      1.0  0.81667  0.00249  0.47349  1.0000
  H   H336      1.0  0.78840  0.92137  0.05341  1.0000
  Fe  Fe56      1.0  0.68636  0.81544  0.03691  1.0000
  H   H337      1.0  0.85942  0.56347  0.49404  1.0000
  C   C329      1.0  0.79242  0.89808  0.04767  1.0000
  C   C330      1.0  0.79070  0.50673  0.02846  1.0000
  C   C331      1.0  0.72434  0.59020  0.01529  1.0000
  H   H338      1.0  0.77561  0.55846  0.08435  1.0000
  C   C332      1.0  0.76645  0.96734  0.48755  1.0000
  H   H339      1.0  0.98709  0.73571  0.44931  1.0000
  C   C333      1.0  0.75857  0.52013  0.47083  1.0000
  C   C334      1.0  0.71266  0.55597  0.02482  1.0000
  C   C335      1.0  0.73080  0.54463  0.05045  1.0000
  C   C336      1.0  0.93233  0.63280  0.48790  1.0000
  H   H340      1.0  0.94421  0.65465  0.47020  1.0000
  C   C337      1.0  0.97539  0.74634  0.01717  1.0000
  H   H341      1.0  0.75945  0.89964  0.50507  1.0000
  C   C338      1.0  0.00019  0.76588  0.04278  1.0000
  C   C339      1.0  0.80343  0.83889  0.03348  1.0000
  H   H342      1.0  0.70046  0.57181  0.48932  1.0000
  S   S111      1.0  0.68107  0.82306  0.49705  1.0000
  H   H343      1.0  0.68993  0.53811  0.01195  1.0000
  N   N29       1.0  0.79099  0.87067  0.50148  1.0000
  H   H344      1.0  0.81760  0.73456  0.50493  1.0000
  C   C340      1.0  0.78571  0.85133  0.00827  1.0000
  Fe  Fe57      1.0  0.82449  0.68460  0.57345  1.0000
  H   H345      1.0  0.98199  0.74145  0.56788  1.0000
  Fe  Fe58      1.0  0.87171  0.67095  0.63043  1.0000
  S   S112      1.0  0.89242  0.64539  0.58737  1.0000
  S   S113      1.0  0.89292  0.67267  0.68924  1.0000
  Fe  Fe59      1.0  0.89452  0.68806  0.54930  1.0000
  H   H346      1.0  0.72490  0.72514  0.55994  1.0000
  Fe  Fe60      1.0  0.83840  0.61900  0.56815  1.0000
  S   S114      1.0  0.81760  0.56124  0.56182  1.0000
  S   S115      1.0  0.87738  0.71579  0.59343  1.0000
  S   S116      1.0  0.81788  0.64190  0.61374  1.0000
  Fe  Fe61      1.0  0.83830  0.61989  0.96978  1.0000
  S   S117      1.0  0.79895  0.63927  0.94867  1.0000
  C   C341      1.0  0.79943  0.84538  0.51685  1.0000
  Fe  Fe62      1.0  0.89734  0.68829  0.95387  1.0000
  S   S118      1.0  0.86146  0.71228  0.93254  1.0000
  S   S119      1.0  0.95486  0.71575  0.94802  1.0000
  Fe  Fe63      1.0  0.82772  0.68682  0.98030  1.0000
  N   N30       1.0  0.94492  0.72571  0.83296  1.0000
  Fe  Fe64      1.0  0.83593  0.66302  0.90212  1.0000
  S   S120      1.0  0.81664  0.66506  0.84325  1.0000
  C   C342      1.0  0.89508  0.74213  0.79669  1.0000
  S   S121      1.0  0.87331  0.64006  0.92082  1.0000
  C   C343      1.0  0.94598  0.72938  0.79518  1.0000
  H   H347      1.0  0.96545  0.72494  0.77908  1.0000
  C   C344      1.0  0.98502  0.73956  0.98190  1.0000
  H   H348      1.0  0.92121  0.73923  0.74640  1.0000
  C   C345      1.0  0.99639  0.74762  0.54240  1.0000
  H   H349      1.0  0.95787  0.69270  0.86886  1.0000
  C   C346      1.0  0.91973  0.73044  0.85298  1.0000
  H   H350      1.0  0.76656  0.54334  0.95536  1.0000
  H   H351      1.0  0.77728  0.72755  0.95447  1.0000
  C   C347      1.0  0.92120  0.73783  0.77650  1.0000
  C   C348      1.0  0.97048  0.71630  0.85259  1.0000
  C   C349      1.0  0.76697  0.88040  0.51774  1.0000
  C   C350      1.0  0.73911  0.57619  0.58705  1.0000
  S   S122      1.0  0.82779  0.57035  0.00197  1.0000
  H   H352      1.0  0.71678  0.65048  0.53699  1.0000
  C   C351      1.0  0.86917  0.66641  0.73102  1.0000
  C   C352      1.0  0.83863  0.67183  0.73287  1.0000
  C   C353      1.0  0.82249  0.67038  0.76733  1.0000
  C   C354      1.0  0.83661  0.66354  0.80034  1.0000
  C   C355      1.0  0.86663  0.65711  0.79837  1.0000
  C   C356      1.0  0.88276  0.65852  0.76387  1.0000
  H   H353      1.0  0.82790  0.67800  0.70791  1.0000
  H   H354      1.0  0.79921  0.67523  0.76851  1.0000
  H   H355      1.0  0.87765  0.65157  0.82346  1.0000
  H   H356      1.0  0.90628  0.65413  0.76272  1.0000
  C   C357      1.0  0.77210  0.72734  0.53576  1.0000
  H   H357      1.0  0.73894  0.75889  0.94314  1.0000
  C   C358      1.0  0.73800  0.96098  0.51023  1.0000
  C   C359      1.0  0.72483  0.63481  0.51726  1.0000
  S   S123      1.0  0.70551  0.78996  0.99176  1.0000
  H   H358      1.0  0.74188  0.87148  0.97399  1.0000
  S   S124      1.0  0.84150  0.65960  0.52680  1.0000
  C   C360      1.0  0.73241  0.97223  0.00014  1.0000
  H   H359      1.0  0.71174  0.94930  0.99212  1.0000
  S   S125      1.0  0.77917  0.70113  0.57052  1.0000
  H   H360      1.0  0.87473  0.74691  0.78241  1.0000
  C   C361      1.0  0.79063  0.53281  0.52872  1.0000
  H   H361      1.0  0.97380  0.67258  0.55255  1.0000
  H   H362      1.0  0.78999  0.80862  0.56098  1.0000
  C   C362      1.0  0.97942  0.65571  0.53224  1.0000
  H   H363      1.0  0.98481  0.73664  0.87242  1.0000
  N   N31       1.0  0.94758  0.62921  0.52031  1.0000
  H   H364      1.0  0.94345  0.59998  0.56952  1.0000
  C   C363      1.0  0.71087  0.57322  0.51705  1.0000
  C   C364      1.0  0.76705  0.73683  0.97763  1.0000
  C   C365      1.0  0.74267  0.73514  0.53748  1.0000
  C   C366      1.0  0.89432  0.73849  0.83518  1.0000
  C   C367      1.0  0.74529  0.75458  0.97131  1.0000
  H   H365      1.0  0.73244  0.99786  0.94832  1.0000
  H   H366      1.0  0.74675  0.82659  0.59132  1.0000
  C   C368      1.0  0.76573  0.52460  0.97610  1.0000
  H   H367      1.0  0.72708  0.52255  0.58145  1.0000
  H   H368      1.0  0.98882  0.71186  0.83341  1.0000
  C   C369      1.0  0.75110  0.86515  0.55056  1.0000
  C   C370      1.0  0.78394  0.82940  0.54959  1.0000
  N   N32       1.0  0.72404  0.60356  0.53527  1.0000
  H   H369      1.0  0.75111  0.57781  0.61400  1.0000
  H   H370      1.0  0.74722  0.90685  0.00341  1.0000
  C   C371      1.0  0.73766  0.98658  0.53482  1.0000
  H   H371      1.0  0.74872  0.62943  0.58409  1.0000
  H   H372      1.0  0.87345  0.74062  0.85097  1.0000
  C   C372      1.0  0.75955  0.83933  0.56645  1.0000
  H   H373      1.0  0.73167  0.87279  0.56280  1.0000
  H   H374      1.0  0.71072  0.59934  0.99508  1.0000
  H   H375      1.0  0.71572  0.98218  0.55223  1.0000
  H   H376      1.0  0.99313  0.67169  0.50855  1.0000
  C   C373      1.0  0.72552  0.54514  0.56883  1.0000
  H   H377      1.0  0.77906  0.91006  0.96902  1.0000
  H   H378      1.0  0.91897  0.72737  0.88288  1.0000
  C   C374      1.0  0.74420  0.99989  0.97535  1.0000
  C   C375      1.0  0.71102  0.54350  0.53374  1.0000
  C   C376      1.0  0.90031  0.57793  0.53378  1.0000
  C   C377      1.0  0.79229  0.53145  0.00170  1.0000
  C   C378      1.0  0.73800  0.60531  0.56983  1.0000
  C   C379      1.0  0.93201  0.60219  0.54316  1.0000
  H   H379      1.0  0.88732  0.55721  0.55258  1.0000
  C   C380      1.0  0.73611  0.75596  0.51046  1.0000
  S   S126      1.0  0.70311  0.92113  0.51049  1.0000
  H   H380      1.0  0.77620  0.83739  0.98283  1.0000
  H   H381      1.0  0.71350  0.76197  0.51223  1.0000
  H   H382      1.0  0.99669  0.64460  0.54528  1.0000
  C   C381      1.0  0.79487  0.74039  0.50661  1.0000
  H   H383      1.0  0.70103  0.51950  0.51908  1.0000
  C   C382      1.0  0.73185  0.76682  0.00110  1.0000
  C   C383      1.0  0.76116  0.89278  0.98915  1.0000
  H   H384      1.0  0.75114  0.65002  0.50820  1.0000
  C   C384      1.0  0.98007  0.73608  0.50851  1.0000
  S   S127      1.0  0.86563  0.66649  0.00397  1.0000
  S   S128      1.0  0.93609  0.71017  0.50545  1.0000
