data_image0
_chemical_formula_structural       C3HCHCSH2NC5HC2H7NSH2CFeH3C2HS2NCH2SC2HC2HC2NCH2CHCSCHC2H3CFeH2SFeH2CFeCHCHC2HCH3FeCHS2C2SHS2FeSC2HC2SH2SC4HCHCH2CNC2FeCH5FeSH3SHSFeS2CHFeS2FeS2FeSFeS3H2SHC2H2C3SCH3FeC7H4C4H3C6H2CSCHC3HNC2FeSCH2SCH2NHCHC2HSH7NC2H5NC2HCFeH2CH2CSHCHC2SFeCHFeSCHCHC3SCH2CSCFeSHFeSNFeS2FeSFe2SFeSCH4CSHCH3C3H4C6H4C3HCHCH2CH2C2HNCHC6H3C2NC4HC2SHNCHCH2SHCHNHCHCHCHCHSC2FeSH3CSH2SCHCH3SHC2H2CFe2SC3H4SCH2CFe2CNSCFe2S2CHC3H4SHCH4C2H2CH3C2NHC3Fe2S2FeHFeSCSFeS2FeS2FeSFeS3FeS2FeSCFeSFeS4FeS2FeSFeS3C6H6C6H4CHC2H2C6H4C7H3C6H4C6H4CHCH4C3H9C2HCNC6H9SH3N2CHC2HNC2HCHNHSCH4C3HCHNC5HSCH3CSHNCFeC2H4CHCH2SH3S2FeSHFeSHFeS2FeS2FeSFeS3HSC6H4C6H4S2HSC6H4C7H3C2HCNC3HCHNC5HCH5CFeSNSC2SCH7Fe3C2SC2H4SC3H2CHC2HCFeHCFe2C3SC3HC2SH2C3HNCH2C3H4SHC2SC2SC2HCFeH2SH2CFeH3SCHSCFeCNSNHC2H2CH4CH4C2H3C3HNH2SHCH2CHNH3C2H2SC3HSCH3C4H4CHCHCHC2H3CHC5H2C2H4SCHC4H4C4NSCSC2H3SHC2
_chemical_formula_sum              "C384 H384 S128 N32 Fe64"
_cell_length_a       40.0164
_cell_length_b       39.5068
_cell_length_c       62.9927
_cell_angle_alpha    87.4232
_cell_angle_beta     87.3009
_cell_angle_gamma    105.419

_space_group_name_H-M_alt    "P 1"
_space_group_IT_number       1

loop_
  _space_group_symop_operation_xyz
  'x, y, z'

loop_
  _atom_site_type_symbol
  _atom_site_label
  _atom_site_symmetry_multiplicity
  _atom_site_fract_x
  _atom_site_fract_y
  _atom_site_fract_z
  _atom_site_occupancy
  C   C1        1.0  0.03887  0.47436  0.97306  1.0000
  C   C2        1.0  0.28422  0.48093  0.98371  1.0000
  C   C3        1.0  0.99689  0.37729  0.98029  1.0000
  H   H1        1.0  0.06537  0.47173  0.97574  1.0000
  C   C4        1.0  0.25560  0.45130  0.98644  1.0000
  H   H2        1.0  0.41760  0.48299  0.04860  1.0000
  C   C5        1.0  0.02143  0.41004  0.98002  1.0000
  S   S1        1.0  0.21907  0.45286  0.00228  1.0000
  H   H3        1.0  0.27522  0.49496  0.28501  1.0000
  H   H4        1.0  0.00387  0.35337  0.98495  1.0000
  N   N1        1.0  0.36876  0.45443  0.03772  1.0000
  C   C6        1.0  0.35273  0.43506  0.02179  1.0000
  C   C7        1.0  0.34996  0.46826  0.05201  1.0000
  C   C8        1.0  0.31721  0.43009  0.01943  1.0000
  C   C9        1.0  0.31438  0.46389  0.05007  1.0000
  C   C10       1.0  0.29800  0.44479  0.03361  1.0000
  H   H5        1.0  0.36260  0.48391  0.06454  1.0000
  C   C11       1.0  0.40604  0.45921  0.03988  1.0000
  C   C12       1.0  0.25500  0.42164  0.97507  1.0000
  H   H6        1.0  0.36742  0.42357  0.01065  1.0000
  H   H7        1.0  0.27054  0.44167  0.03169  1.0000
  H   H8        1.0  0.29991  0.47619  0.06088  1.0000
  H   H9        1.0  0.30475  0.41535  0.00649  1.0000
  H   H10       1.0  0.42031  0.46337  0.02398  1.0000
  H   H11       1.0  0.32748  0.47200  0.28208  1.0000
  H   H12       1.0  0.41049  0.43577  0.04844  1.0000
  N   N2        1.0  0.01315  0.44004  0.97321  1.0000
  S   S2        1.0  0.41850  0.45500  0.97530  1.0000
  H   H13       1.0  0.04739  0.41111  0.98475  1.0000
  H   H14       1.0  0.03154  0.49032  0.98564  1.0000
  C   C13       1.0  0.31128  0.46754  0.29678  1.0000
  Fe  Fe1       1.0  0.20201  0.49542  0.98520  1.0000
  H   H15       1.0  0.23258  0.39902  0.97685  1.0000
  H   H16       1.0  0.23697  0.49963  0.04205  1.0000
  H   H17       1.0  0.17930  0.49004  0.02712  1.0000
  C   C14       1.0  0.28200  0.48031  0.29839  1.0000
  C   C15       1.0  0.31249  0.48075  0.96970  1.0000
  H   H18       1.0  0.99677  0.46511  0.51915  1.0000
  S   S3        1.0  0.17936  0.48225  0.45791  1.0000
  S   S4        1.0  0.07946  0.48154  0.46193  1.0000
  N   N3        1.0  0.27118  0.45829  0.33498  1.0000
  C   C16       1.0  0.26878  0.47579  0.43730  1.0000
  H   H19       1.0  0.34242  0.44310  0.41066  1.0000
  H   H20       1.0  0.00995  0.36466  0.40379  1.0000
  S   S5        1.0  0.46785  0.49447  0.42487  1.0000
  C   C17       1.0  0.07281  0.41497  0.44806  1.0000
  C   C18       1.0  0.05392  0.37985  0.44604  1.0000
  H   H21       1.0  0.06701  0.36127  0.43994  1.0000
  C   C19       1.0  0.03218  0.43384  0.51177  1.0000
  C   C20       1.0  0.07003  0.39611  0.50288  1.0000
  H   H22       1.0  0.22404  0.45606  0.35338  1.0000
  C   C21       1.0  0.32214  0.45248  0.41809  1.0000
  C   C22       1.0  0.28943  0.44490  0.40949  1.0000
  N   N4        1.0  0.03557  0.40098  0.50812  1.0000
  C   C23       1.0  0.32040  0.45024  0.31448  1.0000
  H   H23       1.0  0.23953  0.48564  0.31871  1.0000
  H   H24       1.0  0.08159  0.38915  0.51757  1.0000
  C   C24       1.0  0.47932  0.33720  0.45598  1.0000
  H   H25       1.0  0.03170  0.42797  0.40994  1.0000
  C   C25       1.0  0.25115  0.45484  0.35542  1.0000
  S   S6        1.0  0.22218  0.44891  0.40776  1.0000
  C   C26       1.0  0.05612  0.43889  0.45633  1.0000
  H   H26       1.0  0.34392  0.44145  0.31372  1.0000
  C   C27       1.0  0.99946  0.43889  0.51682  1.0000
  C   C28       1.0  0.02042  0.42792  0.46182  1.0000
  H   H27       1.0  0.46072  0.35248  0.45846  1.0000
  H   H28       1.0  0.10042  0.42327  0.44377  1.0000
  H   H29       1.0  0.28496  0.42987  0.39550  1.0000
  C   C29       1.0  0.30025  0.44630  0.33367  1.0000
  Fe  Fe2       1.0  0.41788  0.48604  0.37327  1.0000
  H   H30       1.0  0.08778  0.42043  0.49489  1.0000
  H   H31       1.0  0.30855  0.43432  0.34762  1.0000
  S   S7        1.0  0.40818  0.44159  0.39800  1.0000
  Fe  Fe3       1.0  0.41043  0.48365  0.42106  1.0000
  H   H32       1.0  0.24843  0.48490  0.44493  1.0000
  H   H33       1.0  0.26370  0.47624  0.36565  1.0000
  C   C30       1.0  0.00170  0.39285  0.46001  1.0000
  Fe  Fe4       1.0  0.46608  0.45616  0.39929  1.0000
  C   C31       1.0  0.26270  0.45674  0.41902  1.0000
  H   H34       1.0  0.05468  0.45656  0.51002  1.0000
  C   C32       1.0  0.01840  0.36859  0.45231  1.0000
  H   H35       1.0  0.06837  0.37501  0.49154  1.0000
  C   C33       1.0  0.26202  0.47524  0.31767  1.0000
  C   C34       1.0  0.32815  0.47139  0.43645  1.0000
  H   H36       1.0  0.00736  0.44640  0.46807  1.0000
  C   C35       1.0  0.48332  0.32374  0.43621  1.0000
  H   H37       1.0  0.24934  0.42918  0.36404  1.0000
  H   H38       1.0  0.46797  0.32869  0.42324  1.0000
  H   H39       1.0  0.49323  0.43805  0.44020  1.0000
  Fe  Fe5       1.0  0.19395  0.48439  0.42295  1.0000
  C   C36       1.0  0.00416  0.41639  0.40838  1.0000
  H   H40       1.0  0.00970  0.34644  0.50678  1.0000
  S   S8        1.0  0.38417  0.48545  0.34600  1.0000
  S   S9        1.0  0.36944  0.48230  0.44687  1.0000
  C   C37       1.0  0.00710  0.37244  0.50992  1.0000
  C   C38       1.0  0.30127  0.48292  0.44605  1.0000
  S   S10       1.0  0.47573  0.49690  0.37211  1.0000
  H   H41       1.0  0.30545  0.49783  0.46006  1.0000
  S   S11       1.0  0.14625  0.49832  0.41225  1.0000
  S   S12       1.0  0.99542  0.32429  0.45023  1.0000
  Fe  Fe6       1.0  0.13427  0.50127  0.44727  1.0000
  S   S13       1.0  0.34332  0.45272  0.93767  1.0000
  C   C39       1.0  0.05519  0.37642  0.93935  1.0000
  C   C40       1.0  0.05721  0.40535  0.87259  1.0000
  H   H42       1.0  0.48873  0.42492  0.90353  1.0000
  C   C41       1.0  0.03364  0.34173  0.87963  1.0000
  C   C42       1.0  0.08698  0.38923  0.94861  1.0000
  S   S14       1.0  0.43887  0.46838  0.92384  1.0000
  H   H43       1.0  0.12866  0.43507  0.95396  1.0000
  H   H44       1.0  0.13157  0.46110  0.88767  1.0000
  S   S15       1.0  0.47696  0.40083  0.94981  1.0000
  C   C43       1.0  0.28251  0.42204  0.96039  1.0000
  C   C44       1.0  0.08941  0.44872  0.93572  1.0000
  C   C45       1.0  0.05753  0.43598  0.92667  1.0000
  C   C46       1.0  0.04048  0.39999  0.92849  1.0000
  H   H45       1.0  0.04621  0.45397  0.91794  1.0000
  C   C47       1.0  0.10398  0.42539  0.94694  1.0000
  H   H46       1.0  0.03344  0.32235  0.89305  1.0000
  C   C48       1.0  0.31116  0.45158  0.95765  1.0000
  H   H47       1.0  0.03410  0.40577  0.86432  1.0000
  H   H48       1.0  0.01652  0.39055  0.92094  1.0000
  C   C49       1.0  0.08277  0.43692  0.87442  1.0000
  N   N5        1.0  0.06082  0.37444  0.88158  1.0000
  C   C50       1.0  0.11225  0.43661  0.88533  1.0000
  C   C51       1.0  0.09002  0.37376  0.89188  1.0000
  Fe  Fe7       1.0  0.46202  0.45130  0.95264  1.0000
  C   C52       1.0  0.11607  0.40483  0.89401  1.0000
  H   H49       1.0  0.09859  0.37112  0.95699  1.0000
  H   H50       1.0  0.09263  0.34932  0.89931  1.0000
  H   H51       1.0  0.03792  0.32998  0.86440  1.0000
  H   H52       1.0  0.00742  0.34649  0.88012  1.0000
  H   H53       1.0  0.13842  0.40445  0.90304  1.0000
  Fe  Fe8       1.0  0.39757  0.47593  0.94674  1.0000
  S   S16       1.0  0.03509  0.33089  0.94096  1.0000
  H   H54       1.0  0.07938  0.46160  0.86790  1.0000
  H   H55       1.0  0.28136  0.39962  0.95091  1.0000
  H   H56       1.0  0.30854  0.49342  0.90927  1.0000
  S   S17       1.0  0.11058  0.49376  0.93226  1.0000
  H   H57       1.0  0.04073  0.48884  0.95729  1.0000
  S   S18       1.0  0.20670  0.50064  0.94956  1.0000
  Fe  Fe9       1.0  0.33235  0.67105  0.26078  1.0000
  S   S19       1.0  0.28879  0.66382  0.28584  1.0000
  S   S20       1.0  0.32882  0.69384  0.22785  1.0000
  C   C53       1.0  0.16336  0.52683  0.04705  1.0000
  H   H58       1.0  0.31253  0.66452  0.15427  1.0000
  Fe  Fe10      1.0  0.32828  0.59891  0.07416  1.0000
  S   S21       1.0  0.33984  0.65511  0.06159  1.0000
  S   S22       1.0  0.34217  0.61848  0.26821  1.0000
  Fe  Fe11      1.0  0.32120  0.61666  0.12042  1.0000
  S   S23       1.0  0.33133  0.67424  0.11166  1.0000
  S   S24       1.0  0.31172  0.59079  0.15354  1.0000
  Fe  Fe12      1.0  0.29675  0.65722  0.08503  1.0000
  S   S25       1.0  0.25470  0.68208  0.07667  1.0000
  Fe  Fe13      1.0  0.37338  0.66634  0.08935  1.0000
  S   S26       1.0  0.42553  0.70470  0.09099  1.0000
  S   S27       1.0  0.28271  0.60034  0.09571  1.0000
  S   S28       1.0  0.36594  0.60971  0.09989  1.0000
  H   H59       1.0  0.21040  0.57183  0.08446  1.0000
  H   H60       1.0  0.31955  0.70462  0.18368  1.0000
  S   S29       1.0  0.15654  0.59347  0.01195  1.0000
  H   H61       1.0  0.29301  0.67437  0.98937  1.0000
  C   C54       1.0  0.36058  0.60734  0.98578  1.0000
  C   C55       1.0  0.39189  0.60745  0.18778  1.0000
  H   H62       1.0  0.31213  0.61741  0.22843  1.0000
  H   H63       1.0  0.36465  0.58115  0.30137  1.0000
  C   C56       1.0  0.45158  0.71448  0.06720  1.0000
  C   C57       1.0  0.43699  0.70990  0.04743  1.0000
  C   C58       1.0  0.45826  0.71983  0.02859  1.0000
  S   S30       1.0  0.42938  0.63515  0.29747  1.0000
  C   C59       1.0  0.20342  0.55384  0.07189  1.0000
  H   H64       1.0  0.47531  0.61842  0.00661  1.0000
  H   H65       1.0  0.40926  0.69973  0.04668  1.0000
  H   H66       1.0  0.44681  0.71691  0.01335  1.0000
  Fe  Fe14      1.0  0.37969  0.64790  0.29057  1.0000
  C   C60       1.0  0.18626  0.50809  0.03963  1.0000
  C   C61       1.0  0.22943  0.65930  0.05716  1.0000
  C   C62       1.0  0.24006  0.63362  0.04610  1.0000
  C   C63       1.0  0.21865  0.61443  0.03129  1.0000
  C   C64       1.0  0.18638  0.62050  0.02778  1.0000
  C   C65       1.0  0.17615  0.64660  0.03861  1.0000
  C   C66       1.0  0.19774  0.66615  0.05314  1.0000
  H   H67       1.0  0.26456  0.62819  0.04911  1.0000
  H   H68       1.0  0.22662  0.59412  0.02326  1.0000
  H   H69       1.0  0.15120  0.65136  0.03601  1.0000
  H   H70       1.0  0.18943  0.68598  0.06165  1.0000
  C   C67       1.0  0.38849  0.53132  0.00996  1.0000
  C   C68       1.0  0.42090  0.56145  0.03827  1.0000
  C   C69       1.0  0.39024  0.56599  0.04788  1.0000
  C   C70       1.0  0.35866  0.55280  0.03866  1.0000
  H   H71       1.0  0.30577  0.57730  0.19885  1.0000
  H   H72       1.0  0.44532  0.57125  0.04556  1.0000
  H   H73       1.0  0.39101  0.57915  0.06259  1.0000
  C   C71       1.0  0.31725  0.66384  0.20799  1.0000
  C   C72       1.0  0.31625  0.67678  0.18705  1.0000
  C   C73       1.0  0.31257  0.65412  0.17032  1.0000
  C   C74       1.0  0.30986  0.61842  0.17443  1.0000
  C   C75       1.0  0.30853  0.60505  0.19552  1.0000
  C   C76       1.0  0.31231  0.62775  0.21229  1.0000
  H   H74       1.0  0.28606  0.74140  0.05013  1.0000
  H   H75       1.0  0.29769  0.73117  0.00571  1.0000
  C   C77       1.0  0.36968  0.75508  0.06321  1.0000
  S   S31       1.0  0.37375  0.70115  0.28106  1.0000
  C   C78       1.0  0.31419  0.74849  0.04807  1.0000
  H   H76       1.0  0.32040  0.73806  0.08137  1.0000
  C   C79       1.0  0.30916  0.75868  0.00996  1.0000
  C   C80       1.0  0.22708  0.53584  0.06461  1.0000
  C   C81       1.0  0.33354  0.74663  0.06581  1.0000
  H   H77       1.0  0.32485  0.77323  0.99573  1.0000
  N   N6        1.0  0.33035  0.75860  0.02832  1.0000
  C   C82       1.0  0.42216  0.61311  0.98192  1.0000
  C   C83       1.0  0.42000  0.54414  0.01933  1.0000
  Fe  Fe15      1.0  0.30234  0.61384  0.29527  1.0000
  S   S32       1.0  0.45268  0.78461  0.98283  1.0000
  C   C84       1.0  0.36581  0.76700  0.02562  1.0000
  H   H78       1.0  0.38500  0.75312  0.07677  1.0000
  H   H79       1.0  0.40175  0.72343  0.20104  1.0000
  S   S33       1.0  0.23023  0.55117  0.98966  1.0000
  C   C85       1.0  0.38600  0.76555  0.04302  1.0000
  H   H80       1.0  0.39565  0.66156  0.21252  1.0000
  H   H81       1.0  0.44423  0.60875  0.97286  1.0000
  N   N7        1.0  0.17230  0.54970  0.06281  1.0000
  H   H82       1.0  0.37868  0.77446  0.00992  1.0000
  C   C86       1.0  0.40165  0.70427  0.18919  1.0000
  H   H83       1.0  0.47674  0.66410  0.00066  1.0000
  C   C87       1.0  0.39800  0.66906  0.19560  1.0000
  C   C88       1.0  0.40342  0.71413  0.16753  1.0000
  H   H84       1.0  0.40562  0.74122  0.16235  1.0000
  S   S34       1.0  0.31987  0.55614  0.05115  1.0000
  H   H85       1.0  0.16195  0.59489  0.07605  1.0000
  H   H86       1.0  0.33470  0.59848  0.98011  1.0000
  H   H87       1.0  0.41407  0.77187  0.04078  1.0000
  H   H88       1.0  0.34334  0.62778  0.01415  1.0000
  H   H89       1.0  0.37476  0.58943  0.17728  1.0000
  H   H90       1.0  0.37948  0.60124  0.20417  1.0000
  H   H91       1.0  0.41776  0.60212  0.18739  1.0000
  N   N8        1.0  0.39553  0.64425  0.18085  1.0000
  C   C89       1.0  0.36544  0.62373  0.00496  1.0000
  C   C90       1.0  0.40164  0.68879  0.15258  1.0000
  H   H92       1.0  0.39539  0.63405  0.14785  1.0000
  H   H93       1.0  0.28789  0.77112  0.01362  1.0000
  H   H94       1.0  0.40220  0.64619  0.02751  1.0000
  H   H95       1.0  0.13103  0.55325  0.08422  1.0000
  H   H96       1.0  0.25204  0.53970  0.07147  1.0000
  N   N9        1.0  0.42656  0.62829  0.00105  1.0000
  C   C91       1.0  0.39882  0.63419  0.01238  1.0000
  C   C92       1.0  0.39765  0.65374  0.15956  1.0000
  H   H97       1.0  0.40281  0.69611  0.13570  1.0000
  C   C93       1.0  0.21855  0.51314  0.04821  1.0000
  Fe  Fe16      1.0  0.17742  0.56047  0.98942  1.0000
  H   H98       1.0  0.33338  0.52547  0.01255  1.0000
  H   H99       1.0  0.28421  0.50419  0.99212  1.0000
  C   C94       1.0  0.14784  0.56872  0.07072  1.0000
  H   H100      1.0  0.13134  0.57394  0.05789  1.0000
  H   H101      1.0  0.38762  0.51774  0.99540  1.0000
  C   C95       1.0  0.35782  0.53564  0.01967  1.0000
  S   S35       1.0  0.45831  0.53797  0.00784  1.0000
  H   H102      1.0  0.46044  0.64290  0.02642  1.0000
  C   C96       1.0  0.46144  0.63904  0.00905  1.0000
  H   H103      1.0  0.13877  0.52365  0.03976  1.0000
  C   C97       1.0  0.38912  0.60241  0.97399  1.0000
  C   C98       1.0  0.30481  0.66602  0.97546  1.0000
  S   S36       1.0  0.36163  0.72066  0.98088  1.0000
  Fe  Fe17      1.0  0.44949  0.51101  0.97732  1.0000
  C   C99       1.0  0.48745  0.72832  0.06811  1.0000
  H   H104      1.0  0.26019  0.62282  0.97118  1.0000
  Fe  Fe18      1.0  0.48923  0.75103  0.97891  1.0000
  S   S37       1.0  0.14873  0.50352  0.98812  1.0000
  C   C100      1.0  0.49425  0.73330  0.02957  1.0000
  H   H105      1.0  0.42248  0.68996  0.33332  1.0000
  C   C101      1.0  0.41755  0.59316  0.31048  1.0000
  H   H106      1.0  0.24261  0.71253  0.35216  1.0000
  C   C102      1.0  0.24186  0.57207  0.33081  1.0000
  C   C103      1.0  0.24612  0.71544  0.36905  1.0000
  C   C104      1.0  0.45336  0.89424  0.42395  1.0000
  S   S38       1.0  0.32336  0.72237  0.33361  1.0000
  C   C105      1.0  0.20652  0.66983  0.42125  1.0000
  H   H107      1.0  0.37507  0.66641  0.36084  1.0000
  H   H108      1.0  0.24598  0.62524  0.31939  1.0000
  C   C106      1.0  0.47787  0.61335  0.45310  1.0000
  S   S39       1.0  0.16239  0.55882  0.44839  1.0000
  C   C107      1.0  0.44165  0.58091  0.32181  1.0000
  Fe  Fe19      1.0  0.20871  0.53944  0.45558  1.0000
  S   S40       1.0  0.25397  0.56366  0.47477  1.0000
  H   H109      1.0  0.18007  0.65934  0.41552  1.0000
  Fe  Fe20      1.0  0.17753  0.55424  0.41421  1.0000
  S   S41       1.0  0.22599  0.53999  0.42149  1.0000
  N   N10       1.0  0.22896  0.69543  0.40555  1.0000
  Fe  Fe21      1.0  0.44815  0.76121  0.41519  1.0000
  S   S42       1.0  0.41453  0.79119  0.43080  1.0000
  S   S43       1.0  0.46269  0.77238  0.38029  1.0000
  Fe  Fe22      1.0  0.44940  0.71734  0.45539  1.0000
  S   S44       1.0  0.41573  0.74360  0.47438  1.0000
  Fe  Fe23      1.0  0.33091  0.68943  0.30674  1.0000
  Fe  Fe24      1.0  0.38441  0.73854  0.44551  1.0000
  S   S45       1.0  0.32587  0.72279  0.44633  1.0000
  Fe  Fe25      1.0  0.44949  0.79349  0.45777  1.0000
  S   S46       1.0  0.41550  0.70827  0.42781  1.0000
  C   C108      1.0  0.32569  0.54610  0.49916  1.0000
  H   H110      1.0  0.30857  0.57193  0.42185  1.0000
  H   H111      1.0  0.45011  0.53856  0.34166  1.0000
  H   H112      1.0  0.38789  0.65693  0.48220  1.0000
  H   H113      1.0  0.30070  0.76447  0.40266  1.0000
  C   C109      1.0  0.47903  0.64893  0.44971  1.0000
  S   S47       1.0  0.41601  0.52705  0.39613  1.0000
  H   H114      1.0  0.41459  0.60763  0.47941  1.0000
  C   C110      1.0  0.38964  0.59046  0.48504  1.0000
  H   H115      1.0  0.43830  0.60789  0.39106  1.0000
  H   H116      1.0  0.39487  0.74913  0.31709  1.0000
  H   H117      1.0  0.46031  0.91450  0.43587  1.0000
  C   C111      1.0  0.43451  0.62592  0.37848  1.0000
  C   C112      1.0  0.37252  0.64214  0.49649  1.0000
  C   C113      1.0  0.32645  0.54619  0.39611  1.0000
  H   H118      1.0  0.21774  0.64726  0.42413  1.0000
  H   H119      1.0  0.27463  0.61294  0.41729  1.0000
  H   H120      1.0  0.48500  0.56705  0.43886  1.0000
  H   H121      1.0  0.33535  0.52817  0.40651  1.0000
  C   C114      1.0  0.27343  0.60721  0.46531  1.0000
  C   C115      1.0  0.25415  0.63193  0.46517  1.0000
  C   C116      1.0  0.27051  0.66737  0.45936  1.0000
  C   C117      1.0  0.30605  0.67812  0.45327  1.0000
  C   C118      1.0  0.32510  0.65314  0.45272  1.0000
  C   C119      1.0  0.30879  0.61772  0.45872  1.0000
  H   H122      1.0  0.22688  0.62394  0.47040  1.0000
  H   H123      1.0  0.25580  0.68661  0.46038  1.0000
  H   H124      1.0  0.35242  0.66112  0.44786  1.0000
  H   H125      1.0  0.32357  0.59846  0.45829  1.0000
  C   C120      1.0  0.21077  0.55432  0.36525  1.0000
  C   C121      1.0  0.25618  0.72100  0.41212  1.0000
  C   C122      1.0  0.31143  0.57117  0.40466  1.0000
  H   H126      1.0  0.38286  0.62498  0.39014  1.0000
  C   C123      1.0  0.31793  0.56753  0.36086  1.0000
  H   H127      1.0  0.20250  0.67188  0.37909  1.0000
  C   C124      1.0  0.30327  0.59237  0.36994  1.0000
  H   H128      1.0  0.38797  0.64926  0.51060  1.0000
  H   H129      1.0  0.26074  0.72323  0.42888  1.0000
  C   C125      1.0  0.42617  0.67229  0.34612  1.0000
  H   H130      1.0  0.26339  0.62438  0.39139  1.0000
  H   H131      1.0  0.46956  0.60002  0.46856  1.0000
  C   C126      1.0  0.23640  0.60544  0.33214  1.0000
  C   C127      1.0  0.21788  0.61316  0.34985  1.0000
  H   H132      1.0  0.29422  0.61029  0.35954  1.0000
  N   N11       1.0  0.36474  0.60411  0.49412  1.0000
  C   C128      1.0  0.27354  0.74194  0.37566  1.0000
  H   H133      1.0  0.21343  0.63887  0.35050  1.0000
  C   C129      1.0  0.36232  0.73698  0.34615  1.0000
  C   C130      1.0  0.36153  0.73649  0.36836  1.0000
  C   C131      1.0  0.39234  0.74767  0.37871  1.0000
  C   C132      1.0  0.42422  0.75934  0.36697  1.0000
  C   C133      1.0  0.42514  0.75993  0.34471  1.0000
  C   C134      1.0  0.39416  0.74851  0.33429  1.0000
  H   H134      1.0  0.33725  0.72672  0.37765  1.0000
  H   H135      1.0  0.39119  0.74724  0.39583  1.0000
  H   H136      1.0  0.44973  0.76902  0.33554  1.0000
  C   C135      1.0  0.39906  0.65866  0.36156  1.0000
  C   C136      1.0  0.22385  0.69235  0.38432  1.0000
  N   N12       1.0  0.45684  0.66332  0.34705  1.0000
  C   C137      1.0  0.28528  0.62067  0.40064  1.0000
  C   C138      1.0  0.46117  0.64029  0.36287  1.0000
  C   C139      1.0  0.43143  0.54787  0.33292  1.0000
  C   C140      1.0  0.32966  0.54436  0.37407  1.0000
  H   H137      1.0  0.44540  0.86846  0.43322  1.0000
  C   C141      1.0  0.27879  0.74467  0.39732  1.0000
  C   C142      1.0  0.38343  0.57213  0.31010  1.0000
  S   S48       1.0  0.18426  0.59822  0.38934  1.0000
  H   H138      1.0  0.31997  0.56619  0.34368  1.0000
  N   N13       1.0  0.29985  0.59371  0.39158  1.0000
  C   C143      1.0  0.35098  0.53202  0.48989  1.0000
  H   H139      1.0  0.34844  0.65104  0.49817  1.0000
  C   C144      1.0  0.33317  0.58239  0.50137  1.0000
  H   H140      1.0  0.20352  0.68186  0.43658  1.0000
  H   H141      1.0  0.34115  0.52497  0.36729  1.0000
  S   S49       1.0  0.34082  0.63910  0.31813  1.0000
  H   H142      1.0  0.29124  0.75974  0.36393  1.0000
  C   C145      1.0  0.38311  0.55430  0.48266  1.0000
  H   H143      1.0  0.30565  0.64607  0.40051  1.0000
  N   N14       1.0  0.48276  0.89564  0.40883  1.0000
  H   H144      1.0  0.40262  0.54357  0.47500  1.0000
  C   C146      1.0  0.40340  0.63545  0.37790  1.0000
  H   H145      1.0  0.31304  0.59312  0.50819  1.0000
  C   C147      1.0  0.20524  0.58769  0.36652  1.0000
  H   H146      1.0  0.47738  0.69244  0.31768  1.0000
  C   C148      1.0  0.22887  0.54648  0.34737  1.0000
  H   H147      1.0  0.20097  0.53438  0.37797  1.0000
  C   C149      1.0  0.39738  0.52673  0.33224  1.0000
  H   H148      1.0  0.49198  0.69378  0.42715  1.0000
  S   S50       1.0  0.46726  0.84359  0.47493  1.0000
  C   C150      1.0  0.48296  0.86696  0.39746  1.0000
  C   C151      1.0  0.37341  0.53897  0.32086  1.0000
  Fe  Fe26      1.0  0.47301  0.53407  0.39749  1.0000
  S   S51       1.0  0.48580  0.76744  0.44097  1.0000
  H   H149      1.0  0.23334  0.52086  0.34670  1.0000
  H   H150      1.0  0.43099  0.89812  0.41532  1.0000
  H   H151      1.0  0.30011  0.52917  0.50409  1.0000
  C   C152      1.0  0.48603  0.67981  0.33177  1.0000
  S   S52       1.0  0.46429  0.67119  0.47004  1.0000
  H   H152      1.0  0.34689  0.52324  0.32067  1.0000
  H   H153      1.0  0.46813  0.59685  0.32205  1.0000
  S   S53       1.0  0.26661  0.56297  0.30915  1.0000
  C   C153      1.0  0.48684  0.59471  0.43631  1.0000
  H   H154      1.0  0.34555  0.50394  0.48793  1.0000
  C   C154      1.0  0.49075  0.66623  0.42980  1.0000
  H   H155      1.0  0.46164  0.84322  0.39955  1.0000
  H   H156      1.0  0.48542  0.63301  0.36356  1.0000
  H   H157      1.0  0.49457  0.91524  0.48483  1.0000
  S   S54       1.0  0.27954  0.58716  0.93533  1.0000
  H   H158      1.0  0.42756  0.54669  0.89355  1.0000
  C   C155      1.0  0.37654  0.60283  0.89065  1.0000
  C   C156      1.0  0.30142  0.62533  0.94739  1.0000
  H   H159      1.0  0.28774  0.52831  0.90623  1.0000
  H   H160      1.0  0.37946  0.68740  0.94373  1.0000
  C   C157      1.0  0.37257  0.53329  0.90223  1.0000
  Fe  Fe27      1.0  0.46806  0.52292  0.93064  1.0000
  Fe  Fe28      1.0  0.23047  0.55781  0.95419  1.0000
  S   S55       1.0  0.17974  0.57189  0.95411  1.0000
  C   C158      1.0  0.34496  0.57920  0.89795  1.0000
  C   C159      1.0  0.35353  0.67328  0.94980  1.0000
  C   C160      1.0  0.33502  0.64382  0.93963  1.0000
  H   H161      1.0  0.34692  0.63532  0.92588  1.0000
  H   H162      1.0  0.32184  0.58855  0.89914  1.0000
  H   H163      1.0  0.43114  0.60922  0.88353  1.0000
  H   H164      1.0  0.37784  0.63011  0.88641  1.0000
  S   S56       1.0  0.43217  0.76706  0.93403  1.0000
  C   C161      1.0  0.31050  0.52122  0.91272  1.0000
  H   H165      1.0  0.38553  0.59018  0.95890  1.0000
  H   H166      1.0  0.30871  0.52297  0.93028  1.0000
  C   C162      1.0  0.40448  0.55610  0.89477  1.0000
  Fe  Fe29      1.0  0.47289  0.80662  0.94993  1.0000
  Fe  Fe30      1.0  0.15559  0.51381  0.95273  1.0000
  C   C163      1.0  0.40646  0.59114  0.88909  1.0000
  N   N15       1.0  0.34329  0.54494  0.90370  1.0000
  S   S57       1.0  0.42420  0.53259  0.95075  1.0000
  C   C164      1.0  0.48861  0.67109  0.90403  1.0000
  Fe  Fe31      1.0  0.41608  0.74167  0.96678  1.0000
  Fe  Fe32      1.0  0.47080  0.73498  0.93386  1.0000
  S   S58       1.0  0.45125  0.70609  0.96541  1.0000
  S   S59       1.0  0.48426  0.71422  0.90297  1.0000
  C   C165      1.0  0.28626  0.63662  0.96524  1.0000
  H   H167      1.0  0.46848  0.65799  0.93653  1.0000
  C   C166      1.0  0.33845  0.68436  0.96775  1.0000
  C   C167      1.0  0.48195  0.61414  0.92257  1.0000
  C   C168      1.0  0.47869  0.64872  0.92244  1.0000
  H   H168      1.0  0.47476  0.59713  0.93686  1.0000
  H   H169      1.0  0.47351  0.82789  0.90032  1.0000
  H   H170      1.0  0.48638  0.82139  0.87317  1.0000
  H   H171      1.0  0.48346  0.78778  0.89398  1.0000
  S   S60       1.0  0.48524  0.86460  0.94068  1.0000
  H   H172      1.0  0.33438  0.50382  0.96740  1.0000
  C   C169      1.0  0.49091  0.81668  0.89016  1.0000
  H   H173      1.0  0.37142  0.50623  0.90681  1.0000
  H   H174      1.0  0.59507  0.45556  0.97001  1.0000
  H   H175      1.0  0.64749  0.28861  0.99018  1.0000
  H   H176      1.0  0.65308  0.35108  0.99673  1.0000
  C   C170      1.0  0.56767  0.32543  0.98663  1.0000
  C   C171      1.0  0.62481  0.29863  0.98937  1.0000
  H   H177      1.0  0.56551  0.22299  0.98598  1.0000
  H   H178      1.0  0.54540  0.33598  0.98503  1.0000
  C   C172      1.0  0.62812  0.33392  0.99327  1.0000
  H   H179      1.0  0.60164  0.37469  0.99482  1.0000
  H   H180      1.0  0.61167  0.23085  0.98635  1.0000
  H   H181      1.0  0.54098  0.27383  0.97779  1.0000
  C   C173      1.0  0.56538  0.29039  0.98256  1.0000
  C   C174      1.0  0.59924  0.34721  0.99211  1.0000
  N   N16       1.0  0.59360  0.27726  0.98431  1.0000
  H   H182      1.0  0.94419  0.35028  0.97418  1.0000
  C   C175      1.0  0.96356  0.37547  0.97396  1.0000
  C   C176      1.0  0.59067  0.24068  0.97944  1.0000
  C   C177      1.0  0.75850  0.27907  0.50734  1.0000
  Fe  Fe33      1.0  0.73651  0.15782  0.62564  1.0000
  Fe  Fe34      1.0  0.68334  0.07250  0.45607  1.0000
  S   S61       1.0  0.66766  0.08432  0.48878  1.0000
  S   S62       1.0  0.72977  0.10941  0.43792  1.0000
  Fe  Fe35      1.0  0.65328  0.02621  0.49587  1.0000
  H   H183      1.0  0.56472  0.27260  0.45992  1.0000
  Fe  Fe36      1.0  0.61442  0.07509  0.47697  1.0000
  S   S63       1.0  0.58499  0.11220  0.48906  1.0000
  C   C178      1.0  0.90232  0.23875  0.55361  1.0000
  S   S64       1.0  0.63068  0.06714  0.44339  1.0000
  Fe  Fe37      1.0  0.69880  0.37978  0.45147  1.0000
  S   S65       1.0  0.64621  0.35846  0.43939  1.0000
  S   S66       1.0  0.74129  0.41149  0.42872  1.0000
  Fe  Fe38      1.0  0.67693  0.34560  0.49541  1.0000
  S   S67       1.0  0.62219  0.32030  0.48733  1.0000
  S   S68       1.0  0.69773  0.34270  0.52759  1.0000
  Fe  Fe39      1.0  0.64714  0.30823  0.45695  1.0000
  S   S69       1.0  0.63255  0.26000  0.43823  1.0000
  Fe  Fe40      1.0  0.62599  0.37264  0.47056  1.0000
  S   S70       1.0  0.58284  0.39861  0.47585  1.0000
  S   S71       1.0  0.70162  0.32837  0.46665  1.0000
  S   S72       1.0  0.67886  0.39899  0.48106  1.0000
  Fe  Fe41      1.0  0.87388  0.25141  0.47684  1.0000
  S   S73       1.0  0.83888  0.28702  0.47499  1.0000
  S   S74       1.0  0.84907  0.19732  0.49177  1.0000
  Fe  Fe42      1.0  0.93806  0.30924  0.45979  1.0000
  S   S75       1.0  0.90784  0.34914  0.45657  1.0000
  C   C179      1.0  0.77041  0.31524  0.50212  1.0000
  Fe  Fe43      1.0  0.88287  0.32616  0.48832  1.0000
  S   S76       1.0  0.87747  0.36013  0.51491  1.0000
  Fe  Fe44      1.0  0.86757  0.30592  0.44345  1.0000
  S   S77       1.0  0.84427  0.31784  0.41337  1.0000
  S   S78       1.0  0.91604  0.28925  0.49278  1.0000
  S   S79       1.0  0.89945  0.26710  0.44407  1.0000
  S   S80       1.0  0.79163  0.16540  0.61328  1.0000
  Fe  Fe45      1.0  0.71386  0.18159  0.58371  1.0000
  S   S81       1.0  0.76698  0.19196  0.56756  1.0000
  S   S82       1.0  0.66898  0.18697  0.56510  1.0000
  Fe  Fe46      1.0  0.76795  0.14091  0.58419  1.0000
  S   S83       1.0  0.78936  0.10429  0.56488  1.0000
  Fe  Fe47      1.0  0.78590  0.21562  0.59781  1.0000
  S   S84       1.0  0.82692  0.26642  0.60007  1.0000
  S   S85       1.0  0.71316  0.12843  0.59787  1.0000
  S   S86       1.0  0.73249  0.21018  0.61256  1.0000
  C   C180      1.0  0.86440  0.33356  0.53842  1.0000
  C   C181      1.0  0.85197  0.29699  0.53776  1.0000
  C   C182      1.0  0.83987  0.27614  0.55662  1.0000
  C   C183      1.0  0.84111  0.29175  0.57618  1.0000
  C   C184      1.0  0.85446  0.32818  0.57682  1.0000
  C   C185      1.0  0.86567  0.34912  0.55795  1.0000
  H   H184      1.0  0.85071  0.28478  0.52270  1.0000
  H   H185      1.0  0.82989  0.24799  0.55603  1.0000
  H   H186      1.0  0.85560  0.34030  0.59195  1.0000
  H   H187      1.0  0.87530  0.37736  0.55854  1.0000
  H   H188      1.0  0.90628  0.37396  0.40385  1.0000
  H   H189      1.0  0.92687  0.43699  0.41064  1.0000
  C   C186      1.0  0.68561  0.29976  0.53908  1.0000
  C   C187      1.0  0.66793  0.27187  0.52749  1.0000
  C   C188      1.0  0.66115  0.23724  0.53610  1.0000
  C   C189      1.0  0.67328  0.23043  0.55591  1.0000
  C   C190      1.0  0.69021  0.25835  0.56771  1.0000
  C   C191      1.0  0.69570  0.29308  0.55947  1.0000
  H   H190      1.0  0.65986  0.27691  0.51181  1.0000
  H   H191      1.0  0.64720  0.21580  0.52719  1.0000
  H   H192      1.0  0.69913  0.25321  0.58315  1.0000
  H   H193      1.0  0.70904  0.31471  0.56853  1.0000
  C   C192      1.0  0.55915  0.40351  0.45381  1.0000
  H   H194      1.0  0.62439  0.11007  0.56011  1.0000
  C   C193      1.0  0.54572  0.39338  0.41715  1.0000
  C   C194      1.0  0.56534  0.38960  0.43449  1.0000
  H   H195      1.0  0.55055  0.38255  0.40218  1.0000
  H   H196      1.0  0.58489  0.37558  0.43288  1.0000
  C   C195      1.0  0.77176  0.38752  0.42458  1.0000
  C   C196      1.0  0.78376  0.37185  0.44194  1.0000
  C   C197      1.0  0.80695  0.35128  0.43857  1.0000
  C   C198      1.0  0.81746  0.34569  0.41783  1.0000
  C   C199      1.0  0.80567  0.36158  0.40048  1.0000
  C   C200      1.0  0.78312  0.38283  0.40386  1.0000
  H   H197      1.0  0.77540  0.37605  0.45795  1.0000
  H   H198      1.0  0.81637  0.33956  0.45200  1.0000
  H   H199      1.0  0.81382  0.35739  0.38441  1.0000
  H   H200      1.0  0.97455  0.38460  0.46504  1.0000
  C   C201      1.0  0.69767  0.02707  0.53825  1.0000
  C   C202      1.0  0.69873  0.03029  0.56027  1.0000
  C   C203      1.0  0.72744  0.05328  0.56866  1.0000
  C   C204      1.0  0.75558  0.07202  0.55508  1.0000
  C   C205      1.0  0.75535  0.06715  0.53321  1.0000
  C   C206      1.0  0.72604  0.04538  0.52472  1.0000
  C   C207      1.0  0.55600  0.28251  0.44493  1.0000
  H   H201      1.0  0.72766  0.05677  0.58560  1.0000
  H   H202      1.0  0.77727  0.08120  0.52271  1.0000
  H   H203      1.0  0.72543  0.04271  0.50771  1.0000
  C   C208      1.0  0.76329  0.13278  0.45307  1.0000
  C   C209      1.0  0.78890  0.16134  0.44328  1.0000
  C   C210      1.0  0.81485  0.18168  0.45518  1.0000
  C   C211      1.0  0.81616  0.17270  0.47677  1.0000
  C   C212      1.0  0.79103  0.14374  0.48650  1.0000
  C   C213      1.0  0.76431  0.12409  0.47477  1.0000
  H   H204      1.0  0.78891  0.16768  0.42642  1.0000
  H   H205      1.0  0.83437  0.20373  0.44748  1.0000
  H   H206      1.0  0.79220  0.13659  0.50313  1.0000
  H   H207      1.0  0.74503  0.10180  0.48241  1.0000
  C   C214      1.0  0.59686  0.15325  0.47487  1.0000
  C   C215      1.0  0.59912  0.18403  0.48562  1.0000
  C   C216      1.0  0.61033  0.21710  0.47455  1.0000
  C   C217      1.0  0.61791  0.21927  0.45256  1.0000
  C   C218      1.0  0.61456  0.18849  0.44171  1.0000
  C   C219      1.0  0.60466  0.15554  0.45291  1.0000
  H   H208      1.0  0.59258  0.18235  0.50258  1.0000
  H   H209      1.0  0.61275  0.24076  0.48302  1.0000
  H   H210      1.0  0.62028  0.19013  0.42467  1.0000
  H   H211      1.0  0.60251  0.13187  0.44449  1.0000
  C   C220      1.0  0.53324  0.42119  0.45580  1.0000
  H   H212      1.0  0.63374  0.07210  0.54846  1.0000
  C   C221      1.0  0.97402  0.37657  0.51501  1.0000
  H   H213      1.0  0.69555  0.09947  0.55105  1.0000
  H   H214      1.0  0.68588  0.19156  0.49810  1.0000
  H   H215      1.0  0.74443  0.18371  0.50536  1.0000
  H   H216      1.0  0.91547  0.26464  0.54647  1.0000
  C   C222      1.0  0.63018  0.09875  0.54497  1.0000
  C   C223      1.0  0.87567  0.20100  0.58435  1.0000
  C   C224      1.0  0.58935  0.48272  0.41753  1.0000
  H   H217      1.0  0.89792  0.21412  0.52380  1.0000
  H   H218      1.0  0.94455  0.41349  0.52201  1.0000
  H   H219      1.0  0.63347  0.15169  0.51666  1.0000
  H   H220      1.0  0.76800  0.28102  0.56060  1.0000
  H   H221      1.0  0.74957  0.26096  0.49512  1.0000
  H   H222      1.0  0.95730  0.31252  0.41021  1.0000
  H   H223      1.0  0.77054  0.32484  0.48573  1.0000
  H   H224      1.0  0.74885  0.13777  0.53248  1.0000
  H   H225      1.0  0.60752  0.09543  0.53492  1.0000
  C   C225      1.0  0.89215  0.21011  0.54087  1.0000
  C   C226      1.0  0.86299  0.14829  0.53600  1.0000
  H   H226      1.0  0.85160  0.14730  0.57818  1.0000
  C   C227      1.0  0.93385  0.38567  0.40515  1.0000
  N   N17       1.0  0.71517  0.21013  0.43408  1.0000
  C   C228      1.0  0.73497  0.20301  0.41746  1.0000
  C   C229      1.0  0.71500  0.24408  0.43748  1.0000
  C   C230      1.0  0.75581  0.23030  0.40393  1.0000
  C   C231      1.0  0.73520  0.27199  0.42408  1.0000
  C   C232      1.0  0.75588  0.26497  0.40730  1.0000
  C   C233      1.0  0.69545  0.18110  0.44876  1.0000
  H   H227      1.0  0.73486  0.17604  0.41472  1.0000
  H   H228      1.0  0.69896  0.24980  0.45046  1.0000
  H   H229      1.0  0.77196  0.22461  0.39099  1.0000
  H   H230      1.0  0.73484  0.29891  0.42664  1.0000
  H   H231      1.0  0.77203  0.28638  0.39695  1.0000
  H   H232      1.0  0.67660  0.18923  0.45948  1.0000
  H   H233      1.0  0.68053  0.15902  0.43974  1.0000
  H   H234      1.0  0.71345  0.17111  0.45862  1.0000
  H   H235      1.0  0.54650  0.25933  0.43533  1.0000
  S   S87       1.0  0.67403  0.01456  0.46417  1.0000
  H   H236      1.0  0.62315  0.46499  0.44823  1.0000
  H   H237      1.0  0.86829  0.19741  0.60128  1.0000
  H   H238      1.0  0.76988  0.38717  0.51280  1.0000
  N   N18       1.0  0.78150  0.33829  0.51751  1.0000
  N   N19       1.0  0.59417  0.49957  0.43611  1.0000
  C   C234      1.0  0.57057  0.49370  0.40165  1.0000
  H   H239      1.0  0.81229  0.38988  0.52273  1.0000
  C   C235      1.0  0.76892  0.29035  0.54405  1.0000
  C   C236      1.0  0.79273  0.37616  0.51184  1.0000
  H   H240      1.0  0.99010  0.46439  0.41382  1.0000
  N   N20       1.0  0.87467  0.17760  0.54974  1.0000
  C   C237      1.0  0.51361  0.42500  0.43846  1.0000
  C   C238      1.0  0.89390  0.23409  0.57549  1.0000
  H   H241      1.0  0.90034  0.25631  0.58551  1.0000
  C   C239      1.0  0.61351  0.48775  0.45284  1.0000
  H   H242      1.0  0.77377  0.39490  0.39044  1.0000
  N   N21       1.0  0.95692  0.36565  0.40353  1.0000
  H   H243      1.0  0.54281  0.31184  0.48080  1.0000
  S   S88       1.0  0.49599  0.41557  0.39718  1.0000
  C   C240      1.0  0.94536  0.42143  0.40893  1.0000
  H   H244      1.0  0.74797  0.23880  0.53293  1.0000
  H   H245      1.0  0.59947  0.46024  0.41500  1.0000
  H   H246      1.0  0.78814  0.34464  0.55063  1.0000
  H   H247      1.0  0.95111  0.32397  0.38278  1.0000
  C   C241      1.0  0.51992  0.41115  0.41911  1.0000
  C   C242      1.0  0.99170  0.38062  0.40486  1.0000
  C   C243      1.0  0.86616  0.17286  0.57117  1.0000
  H   H248      1.0  0.59640  0.47898  0.46760  1.0000
  C   C244      1.0  0.75783  0.26663  0.52847  1.0000
  H   H249      1.0  0.67682  0.01609  0.57077  1.0000
  N   N22       1.0  0.66150  0.12212  0.53400  1.0000
  C   C245      1.0  0.65874  0.14816  0.51971  1.0000
  C   C246      1.0  0.69342  0.11893  0.53896  1.0000
  C   C247      1.0  0.68843  0.17083  0.50920  1.0000
  C   C248      1.0  0.72364  0.14080  0.52861  1.0000
  C   C249      1.0  0.72108  0.16672  0.51350  1.0000
  H   H250      1.0  0.86162  0.12263  0.54451  1.0000
  S   S89       1.0  0.65993  0.00207  0.52765  1.0000
  C   C250      1.0  0.78028  0.32635  0.53832  1.0000
  H   H251      1.0  0.83666  0.14764  0.53087  1.0000
  H   H252      1.0  0.80534  0.38156  0.49549  1.0000
  H   H253      1.0  0.88066  0.15103  0.52151  1.0000
  C   C251      1.0  0.97022  0.41002  0.51838  1.0000
  S   S90       1.0  0.59847  0.01757  0.48682  1.0000
  H   H254      1.0  0.57887  0.30085  0.43612  1.0000
  N   N23       1.0  0.52889  0.30049  0.44904  1.0000
  C   C252      1.0  0.52552  0.31413  0.46837  1.0000
  Fe  Fe48      1.0  0.61972  0.00990  0.45436  1.0000
  C   C253      1.0  0.94476  0.32819  0.39962  1.0000
  C   C254      1.0  0.98076  0.43679  0.41063  1.0000
  H   H255      1.0  0.49872  0.34410  0.48732  1.0000
  H   H256      1.0  0.95131  0.35412  0.51603  1.0000
  H   H257      1.0  0.91622  0.31787  0.40294  1.0000
  H   H258      1.0  0.51210  0.29585  0.41739  1.0000
  C   C255      1.0  0.50050  0.33239  0.47219  1.0000
  H   H259      1.0  0.52812  0.43168  0.47083  1.0000
  C   C256      1.0  0.50847  0.30541  0.43298  1.0000
  H   H260      1.0  0.56579  0.47955  0.38722  1.0000
  H   H261      1.0  0.66111  0.05297  0.79879  1.0000
  S   S91       1.0  0.69414  0.10201  0.90979  1.0000
  H   H262      1.0  0.69296  0.21032  0.65265  1.0000
  H   H263      1.0  0.76718  0.28938  0.68318  1.0000
  H   H264      1.0  0.81435  0.10390  0.89284  1.0000
  S   S92       1.0  0.95046  0.34946  0.91987  1.0000
  S   S93       1.0  0.88444  0.28037  0.91522  1.0000
  Fe  Fe49      1.0  0.93189  0.31066  0.89538  1.0000
  S   S94       1.0  0.92966  0.32623  0.86093  1.0000
  H   H265      1.0  0.73736  0.20448  0.94793  1.0000
  Fe  Fe50      1.0  0.64703  0.32648  0.89855  1.0000
  S   S95       1.0  0.61422  0.31187  0.87089  1.0000
  H   H266      1.0  0.75776  0.29511  0.94842  1.0000
  Fe  Fe51      1.0  0.77193  0.21907  0.80809  1.0000
  S   S96       1.0  0.78269  0.26469  0.78385  1.0000
  S   S97       1.0  0.79923  0.20936  0.83705  1.0000
  Fe  Fe52      1.0  0.70804  0.17860  0.78806  1.0000
  S   S98       1.0  0.71199  0.21977  0.76178  1.0000
  S   S99       1.0  0.66771  0.12700  0.79235  1.0000
  Fe  Fe53      1.0  0.76882  0.22328  0.76007  1.0000
  S   S100      1.0  0.79902  0.23119  0.72849  1.0000
  Fe  Fe54      1.0  0.72532  0.25797  0.78725  1.0000
  S   S101      1.0  0.70232  0.30373  0.78660  1.0000
  S   S102      1.0  0.76374  0.17822  0.78396  1.0000
  S   S103      1.0  0.71566  0.21646  0.81380  1.0000
  H   H267      1.0  0.53238  0.45188  0.96821  1.0000
  S   S104      1.0  0.71625  0.13889  0.65914  1.0000
  C   C257      1.0  0.77843  0.20262  0.70964  1.0000
  C   C258      1.0  0.74910  0.17491  0.71565  1.0000
  C   C259      1.0  0.73103  0.15429  0.70010  1.0000
  C   C260      1.0  0.74197  0.16163  0.67853  1.0000
  C   C261      1.0  0.77183  0.18873  0.67259  1.0000
  C   C262      1.0  0.79018  0.20904  0.68816  1.0000
  H   H268      1.0  0.74014  0.16957  0.73224  1.0000
  H   H269      1.0  0.70815  0.13310  0.70476  1.0000
  H   H270      1.0  0.78037  0.19462  0.65598  1.0000
  H   H271      1.0  0.81289  0.23042  0.68348  1.0000
  C   C263      1.0  0.63867  0.30863  0.84766  1.0000
  C   C264      1.0  0.66764  0.29517  0.84849  1.0000
  C   C265      1.0  0.68696  0.29290  0.82969  1.0000
  C   C266      1.0  0.67762  0.30468  0.81012  1.0000
  C   C267      1.0  0.64892  0.31845  0.80936  1.0000
  C   C268      1.0  0.62912  0.31986  0.82806  1.0000
  H   H272      1.0  0.67487  0.28606  0.86354  1.0000
  H   H273      1.0  0.70952  0.28285  0.83040  1.0000
  H   H274      1.0  0.64172  0.32766  0.79425  1.0000
  H   H275      1.0  0.60670  0.33022  0.82737  1.0000
  S   S105      1.0  0.62347  0.31551  0.93200  1.0000
  S   S106      1.0  0.69387  0.30776  0.90493  1.0000
  H   H276      1.0  0.51342  0.42714  0.87836  1.0000
  S   S107      1.0  0.67619  0.25476  0.95872  1.0000
  C   C269      1.0  0.89692  0.29220  0.85169  1.0000
  C   C270      1.0  0.87972  0.29742  0.83348  1.0000
  C   C271      1.0  0.85023  0.27142  0.82824  1.0000
  C   C272      1.0  0.83784  0.24075  0.84145  1.0000
  C   C273      1.0  0.85594  0.23514  0.85908  1.0000
  C   C274      1.0  0.88591  0.26035  0.86382  1.0000
  H   H277      1.0  0.88861  0.32183  0.82383  1.0000
  H   H278      1.0  0.83671  0.27535  0.81432  1.0000
  H   H279      1.0  0.84644  0.21161  0.86944  1.0000
  H   H280      1.0  0.90023  0.25521  0.87712  1.0000
  C   C275      1.0  0.98054  0.43843  0.96686  1.0000
  C   C276      1.0  0.69860  0.06297  0.84640  1.0000
  C   C277      1.0  0.70404  0.09927  0.84757  1.0000
  C   C278      1.0  0.69505  0.11903  0.83080  1.0000
  C   C279      1.0  0.67939  0.10237  0.81323  1.0000
  C   C280      1.0  0.67306  0.06593  0.81238  1.0000
  C   C281      1.0  0.53819  0.48308  0.90756  1.0000
  H   H281      1.0  0.71609  0.11229  0.86110  1.0000
  H   H282      1.0  0.69984  0.14708  0.83167  1.0000
  H   H283      1.0  0.77232  0.38217  0.94507  1.0000
  C   C282      1.0  0.84681  0.35645  0.94377  1.0000
  C   C283      1.0  0.72633  0.25501  0.70361  1.0000
  H   H284      1.0  0.62952  0.24000  0.92432  1.0000
  C   C284      1.0  0.53447  0.37760  0.94351  1.0000
  N   N24       1.0  0.68574  0.21008  0.68636  1.0000
  C   C285      1.0  0.70192  0.22317  0.66697  1.0000
  C   C286      1.0  0.84284  0.14761  0.83659  1.0000
  C   C287      1.0  0.69707  0.22607  0.70449  1.0000
  H   H285      1.0  0.68418  0.21569  0.71983  1.0000
  C   C288      1.0  0.52097  0.40372  0.95193  1.0000
  H   H286      1.0  0.74495  0.26146  0.65015  1.0000
  N   N25       1.0  0.77065  0.25259  0.93378  1.0000
  C   C289      1.0  0.75298  0.21777  0.93392  1.0000
  C   C290      1.0  0.79075  0.26896  0.91617  1.0000
  C   C291      1.0  0.75566  0.19832  0.91622  1.0000
  C   C292      1.0  0.79383  0.25034  0.89813  1.0000
  C   C293      1.0  0.77625  0.21473  0.89821  1.0000
  H   H287      1.0  0.85268  0.21676  0.95091  1.0000
  C   C294      1.0  0.57434  0.44425  0.90585  1.0000
  H   H288      1.0  0.80484  0.29647  0.91616  1.0000
  H   H289      1.0  0.74242  0.17050  0.91679  1.0000
  H   H290      1.0  0.81015  0.26332  0.88430  1.0000
  H   H291      1.0  0.77883  0.19987  0.88443  1.0000
  H   H292      1.0  0.57816  0.41880  0.90247  1.0000
  C   C295      1.0  0.74365  0.26787  0.68397  1.0000
  Fe  Fe55      1.0  0.69295  0.04884  0.89875  1.0000
  S   S108      1.0  0.96473  0.27545  0.90487  1.0000
  N   N26       1.0  0.81088  0.12415  0.84044  1.0000
  S   S109      1.0  0.63657  0.02549  0.90819  1.0000
  C   C296      1.0  0.65553  0.17925  0.68775  1.0000
  C   C297      1.0  0.60192  0.46985  0.91330  1.0000
  S   S110      1.0  0.67342  0.38323  0.90243  1.0000
  C   C298      1.0  0.65609  0.21570  0.94700  1.0000
  H   H293      1.0  0.58031  0.36041  0.93700  1.0000
  H   H294      1.0  0.62392  0.07988  0.85176  1.0000
  H   H295      1.0  0.64156  0.09792  0.87558  1.0000
  H   H296      1.0  0.59975  0.18368  0.90913  1.0000
  H   H297      1.0  0.51756  0.35577  0.93615  1.0000
  H   H298      1.0  0.72170  0.35483  0.86585  1.0000
  H   H299      1.0  0.80037  0.12081  0.80749  1.0000
  Fe  Fe56      1.0  0.70869  0.08251  0.94098  1.0000
  Fe  Fe57      1.0  0.63961  0.07721  0.92246  1.0000
  Fe  Fe58      1.0  0.91852  0.24739  0.92643  1.0000
  C   C299      1.0  0.83918  0.19033  0.94721  1.0000
  C   C300      1.0  0.78654  0.11724  0.82348  1.0000
  S   S111      1.0  0.89954  0.18853  0.92511  1.0000
  C   C301      1.0  0.61719  0.18380  0.92176  1.0000
  C   C302      1.0  0.85636  0.17058  0.93510  1.0000
  H   H300      1.0  0.85262  0.12021  0.92227  1.0000
  H   H301      1.0  0.70726  0.37226  0.84243  1.0000
  H   H302      1.0  0.79195  0.19034  0.96511  1.0000
  H   H303      1.0  0.77504  0.09084  0.86360  1.0000
  S   S112      1.0  0.60464  0.11255  0.91756  1.0000
  C   C303      1.0  0.63402  0.21565  0.93037  1.0000
  C   C304      1.0  0.83893  0.13602  0.93085  1.0000
  C   C305      1.0  0.80389  0.12177  0.93781  1.0000
  H   H304      1.0  0.79042  0.09521  0.93434  1.0000
  H   H305      1.0  0.60871  0.11665  0.82464  1.0000
  C   C306      1.0  0.73065  0.37263  0.85137  1.0000
  H   H306      1.0  0.87297  0.14637  0.88614  1.0000
  C   C307      1.0  0.81716  0.36461  0.95214  1.0000
  C   C308      1.0  0.62351  0.15224  0.92922  1.0000
  H   H307      1.0  0.76953  0.08983  0.82525  1.0000
  C   C309      1.0  0.85568  0.13970  0.87325  1.0000
  Fe  Fe59      1.0  0.65396  0.37101  0.93656  1.0000
  H   H308      1.0  0.65637  0.16233  0.67417  1.0000
  C   C310      1.0  0.80770  0.34119  0.81462  1.0000
  Fe  Fe60      1.0  0.71825  0.36356  0.91222  1.0000
  Fe  Fe61      1.0  0.67277  0.30159  0.93871  1.0000
  C   C311      1.0  0.78681  0.14144  0.95005  1.0000
  C   C312      1.0  0.63840  0.19628  0.85905  1.0000
  C   C313      1.0  0.82284  0.11616  0.87707  1.0000
  S   S113      1.0  0.65377  0.05991  0.95439  1.0000
  C   C314      1.0  0.80063  0.10877  0.86041  1.0000
  C   C315      1.0  0.64608  0.15269  0.94554  1.0000
  C   C316      1.0  0.73124  0.25212  0.66546  1.0000
  H   H309      1.0  0.85022  0.16127  0.82106  1.0000
  C   C317      1.0  0.62126  0.09827  0.86419  1.0000
  C   C318      1.0  0.66177  0.18416  0.95469  1.0000
  S   S114      1.0  0.77276  0.38852  0.89921  1.0000
  H   H310      1.0  0.59547  0.08847  0.87294  1.0000
  H   H311      1.0  0.83879  0.37420  0.89111  1.0000
  C   C319      1.0  0.56996  0.38012  0.94406  1.0000
  C   C320      1.0  0.83271  0.37161  0.90812  1.0000
  C   C321      1.0  0.80227  0.37837  0.91646  1.0000
  H   H312      1.0  0.89088  0.17457  0.84989  1.0000
  N   N27       1.0  0.62532  0.13397  0.85496  1.0000
  C   C322      1.0  0.61685  0.13888  0.83448  1.0000
  H   H313      1.0  0.73637  0.26646  0.71814  1.0000
  H   H314      1.0  0.65539  0.16241  0.70240  1.0000
  C   C323      1.0  0.61965  0.17272  0.82564  1.0000
  C   C324      1.0  0.86586  0.15540  0.85286  1.0000
  C   C325      1.0  0.63018  0.20154  0.83809  1.0000
  H   H315      1.0  0.65119  0.12871  0.95146  1.0000
  H   H316      1.0  0.87798  0.35462  0.91517  1.0000
  H   H317      1.0  0.82830  0.33219  0.84479  1.0000
  H   H318      1.0  0.64271  0.15822  0.88345  1.0000
  S   S115      1.0  0.93685  0.27997  0.95415  1.0000
  H   H319      1.0  0.51349  0.48868  0.90517  1.0000
  C   C326      1.0  0.68334  0.04635  0.82875  1.0000
  C   C327      1.0  0.63600  0.16212  0.86723  1.0000
  S   S116      1.0  0.71235  0.03851  0.86639  1.0000
  C   C328      1.0  0.59182  0.40816  0.95363  1.0000
  C   C329      1.0  0.85486  0.36041  0.92176  1.0000
  S   S117      1.0  0.87272  0.33969  0.96073  1.0000
  C   C330      1.0  0.79487  0.37545  0.93848  1.0000
  C   C331      1.0  0.78154  0.35189  0.80461  1.0000
  H   H320      1.0  0.78030  0.35164  0.78743  1.0000
  C   C332      1.0  0.51400  0.42365  0.89591  1.0000
  Fe  Fe62      1.0  0.90659  0.31541  0.94077  1.0000
  H   H321      1.0  0.82746  0.33327  0.80524  1.0000
  H   H322      1.0  0.73600  0.37024  0.80895  1.0000
  S   S118      1.0  0.71307  0.03112  0.92874  1.0000
  H   H323      1.0  0.63122  0.18770  0.68777  1.0000
  H   H324      1.0  0.64652  0.21848  0.86893  1.0000
  C   C333      1.0  0.80476  0.17542  0.95514  1.0000
  Fe  Fe63      1.0  0.65629  0.01042  0.93903  1.0000
  H   H325      1.0  0.63216  0.22788  0.83145  1.0000
  H   H326      1.0  0.61407  0.17649  0.80914  1.0000
  H   H327      1.0  0.74206  0.39962  0.85648  1.0000
  S   S119      1.0  0.70105  0.35579  0.94683  1.0000
  C   C334      1.0  0.75636  0.36222  0.81692  1.0000
  H   H328      1.0  0.78266  0.34959  0.86577  1.0000
  S   S120      1.0  0.63619  0.41154  0.95456  1.0000
  C   C335      1.0  0.80811  0.34047  0.83677  1.0000
  Fe  Fe64      1.0  0.97978  0.31183  0.93127  1.0000
  C   C336      1.0  0.78222  0.35046  0.84859  1.0000
  N   N28       1.0  0.75674  0.36108  0.83864  1.0000
  S   S121      1.0  0.74324  0.12421  0.95946  1.0000
  N   N29       1.0  0.54275  0.45079  0.90357  1.0000
  H   H329      1.0  0.76994  0.13570  0.82417  1.0000
  C   C337      1.0  0.54280  0.43189  0.96145  1.0000
  C   C338      1.0  0.95527  0.40615  0.96716  1.0000
  H   H330      1.0  0.51643  0.39683  0.90020  1.0000
  H   H331      1.0  0.92938  0.40476  0.96206  1.0000
  C   C339      1.0  0.76872  0.27276  0.95255  1.0000
  H   H332      1.0  0.62650  0.46398  0.91592  1.0000
  H   H333      1.0  0.79510  0.28315  0.95841  1.0000
  H   H334      1.0  0.67860  0.18393  0.96763  1.0000
  H   H335      1.0  0.67929  0.01828  0.82777  1.0000
  C   C340      1.0  0.57818  0.43386  0.96253  1.0000
  H   H336      1.0  0.97394  0.46216  0.96145  1.0000
  H   H337      1.0  0.75173  0.25645  0.96577  1.0000
  H   H338      1.0  0.59279  0.23874  0.96191  1.0000
  H   H339      1.0  0.81111  0.36202  0.96917  1.0000
  C   C341      1.0  0.60684  0.89977  0.00368  1.0000
  C   C342      1.0  0.60843  0.86512  0.00721  1.0000
  H   H340      1.0  0.57397  0.93349  0.99741  1.0000
  H   H341      1.0  0.63326  0.85953  0.00918  1.0000
  H   H342      1.0  0.52287  0.82378  0.00511  1.0000
  C   C343      1.0  0.57471  0.90650  0.00077  1.0000
  C   C344      1.0  0.57798  0.83770  0.00788  1.0000
  C   C345      1.0  0.54632  0.84536  0.00476  1.0000
  H   H343      1.0  0.53658  0.74768  0.05015  1.0000
  N   N30       1.0  0.54509  0.87938  0.00091  1.0000
  H   H344      1.0  0.63044  0.92131  0.00247  1.0000
  H   H345      1.0  0.57880  0.81057  0.01055  1.0000
  S   S122      1.0  0.52122  0.74603  0.00627  1.0000
  H   H346      1.0  0.49841  0.88919  0.01299  1.0000
  C   C346      1.0  0.51169  0.88684  0.99749  1.0000
  H   H347      1.0  0.49468  0.86569  0.98876  1.0000
  H   H348      1.0  0.49880  0.73193  0.08339  1.0000
  C   C347      1.0  0.50881  0.73727  0.04933  1.0000
  H   H349      1.0  0.51529  0.91159  0.98743  1.0000
  N   N31       1.0  0.58315  0.91303  0.50592  1.0000
  H   H350      1.0  0.55902  0.83472  0.48339  1.0000
  H   H351      1.0  0.57008  0.89121  0.42600  1.0000
  H   H352      1.0  0.55426  0.91612  0.53483  1.0000
  C   C348      1.0  0.56372  0.87993  0.50220  1.0000
  C   C349      1.0  0.56112  0.93009  0.44685  1.0000
  H   H353      1.0  0.55971  0.95057  0.39011  1.0000
  H   H354      1.0  0.51108  0.84440  0.37446  1.0000
  S   S123      1.0  0.59590  0.96367  0.43488  1.0000
  C   C350      1.0  0.51112  0.90991  0.47203  1.0000
  C   C351      1.0  0.55364  0.89649  0.43886  1.0000
  C   C352      1.0  0.57028  0.93348  0.52167  1.0000
  H   H355      1.0  0.64870  0.92224  0.46834  1.0000
  S   S124      1.0  0.50857  0.58864  0.39517  1.0000
  C   C353      1.0  0.52476  0.86976  0.44725  1.0000
  H   H356      1.0  0.56077  0.89836  0.36957  1.0000
  H   H357      1.0  0.62848  0.95453  0.49665  1.0000
  H   H358      1.0  0.54488  0.96269  0.46945  1.0000
  C   C354      1.0  0.61340  0.92807  0.49402  1.0000
  C   C355      1.0  0.53789  0.92716  0.39167  1.0000
  C   C356      1.0  0.57492  0.86067  0.48657  1.0000
  C   C357      1.0  0.62515  0.90976  0.47807  1.0000
  H   H359      1.0  0.61427  0.86156  0.46180  1.0000
  H   H360      1.0  0.55439  0.94903  0.51386  1.0000
  H   H361      1.0  0.53892  0.86854  0.51092  1.0000
  H   H362      1.0  0.51911  0.84405  0.44089  1.0000
  C   C358      1.0  0.60581  0.87578  0.47441  1.0000
  H   H363      1.0  0.59218  0.95189  0.52900  1.0000
  C   C359      1.0  0.53980  0.93671  0.46349  1.0000
  H   H364      1.0  0.50961  0.94841  0.41494  1.0000
  C   C360      1.0  0.51091  0.86752  0.38314  1.0000
  H   H365      1.0  0.50555  0.70014  0.33955  1.0000
  C   C361      1.0  0.53863  0.89778  0.38035  1.0000
  C   C362      1.0  0.50943  0.92574  0.40579  1.0000
  H   H366      1.0  0.51077  0.66159  0.39804  1.0000
  H   H367      1.0  0.55188  0.56189  0.42614  1.0000
  H   H368      1.0  0.49823  0.65970  0.32564  1.0000
  C   C363      1.0  0.50134  0.64799  0.41332  1.0000
  H   H369      1.0  0.54296  0.53150  0.39245  1.0000
  C   C364      1.0  0.56241  0.53960  0.42365  1.0000
  C   C365      1.0  0.50348  0.87642  0.46390  1.0000
  C   C366      1.0  0.55734  0.52252  0.40469  1.0000
  C   C367      1.0  0.49865  0.61205  0.41644  1.0000
  C   C368      1.0  0.58084  0.52757  0.43935  1.0000
  H   H370      1.0  0.58442  0.54077  0.45413  1.0000
  H   H371      1.0  0.63633  0.50934  0.45637  1.0000
  C   C369      1.0  0.54969  0.81249  0.89712  1.0000
  C   C370      1.0  0.57106  0.94662  0.94179  1.0000
  H   H372      1.0  0.58255  0.91350  0.89827  1.0000
  H   H373      1.0  0.54054  0.78401  0.89695  1.0000
  H   H374      1.0  0.62326  0.87689  0.90437  1.0000
  H   H375      1.0  0.54693  0.84559  0.95342  1.0000
  S   S125      1.0  0.49547  0.50541  0.95740  1.0000
  C   C371      1.0  0.59647  0.86448  0.90115  1.0000
  H   H376      1.0  0.60677  0.88134  0.95760  1.0000
  C   C372      1.0  0.55344  0.87357  0.94996  1.0000
  C   C373      1.0  0.58738  0.89391  0.95237  1.0000
  C   C374      1.0  0.59613  0.93052  0.94868  1.0000
  C   C375      1.0  0.56522  0.50935  0.91493  1.0000
  H   H377      1.0  0.60199  0.81162  0.90364  1.0000
  H   H378      1.0  0.52104  0.88491  0.89216  1.0000
  H   H379      1.0  0.51766  0.93876  0.93404  1.0000
  H   H380      1.0  0.57758  0.97493  0.93903  1.0000
  C   C376      1.0  0.57365  0.88509  0.89764  1.0000
  C   C377      1.0  0.53711  0.92615  0.93912  1.0000
  C   C378      1.0  0.53893  0.86877  0.89417  1.0000
  C   C379      1.0  0.52814  0.88961  0.94343  1.0000
  N   N32       1.0  0.52733  0.83292  0.89412  1.0000
  S   S126      1.0  0.51272  0.77642  0.94731  1.0000
  C   C380      1.0  0.58451  0.82793  0.90086  1.0000
  S   S127      1.0  0.49787  0.55840  0.90355  1.0000
  C   C381      1.0  0.50540  0.62450  0.88603  1.0000
  C   C382      1.0  0.50191  0.65886  0.88585  1.0000
  H   H381      1.0  0.51567  0.61524  0.87188  1.0000
  H   H382      1.0  0.61818  0.52240  0.92408  1.0000
  H   H383      1.0  0.56119  0.53476  0.91830  1.0000
  S   S128      1.0  0.63760  0.95540  0.95458  1.0000
  H   H384      1.0  0.50965  0.67605  0.87159  1.0000
  C   C383      1.0  0.49519  0.60198  0.90430  1.0000
  C   C384      1.0  0.59717  0.50250  0.91801  1.0000
