data_image0
_chemical_formula_structural       FeS2FeSHFeSFeHS2FeS2FeSCFeCFeS3H2C2HC3H2C2H2C7H4CSH5C2H2CH3CHC3H3CH2CHC3HCNHNH3CSCH3C2HC2NH2C2HCHC4SNHCHC2HC3H3C2HFeS2FeS2FeCFeS3FeSCFeSCFeSFeCS2H2C2H3CSHCSHC2HC2HCHC6H4CHCHC2NHC3H4CHCNH3CH3NHCH2C2HC3HC3HCSCH2SH4CSHCH3FeSHFeSHFeSFeS3FeSCFeS2FeSFeSCSHSH2CS2HCHC3H2C6H4C5NH4CHCHNC3H2CH3CH2CSHC3H2C2HCSCNC2H2C4SCH5C2HC3HCH2CHNC3H2CNHSH2CHC3HCHNC2HCH3CHCSH2CH2SCHSFeHFeS3FeSFe2S2HFeSHSCHFeS2C2HC7H3CHFeNH5C5HC3NC2H3CHNHC2HCSHCH2C3HC2HC2HNHCNH2CHCH3C2H5CHCHNCHCFeS2FeSFeCFeS3H2FeSCH2FeS3FeHCHNH4C6H7CNC3FeC2HC2S2HCHCNC3HC2H2CHC2HSH4CH5C4SCFeS2FeS2FeCFeS3FeS2FeHSFeHFeS3CHC7H5SH2CHCHC2HC6H4CSC2HCSCH2CHCHCH3CH3NC2HCHSC2NCHCH5CHNC4H3CHC2HCH3CNHCHC2HCHCHCHNHC2H4C6SH2C2SCH2C3H4CH2C2HC2HCH2FeH5NCH2C2H4FeSCFeCHFeS2FeS2C2HSCFeSNFeSFeCS2FeS2FeS2FeHS2C2FeC2FeH2CH2CSHC2H2CFeH3CH2C6H3C5H2CFeCHC2H2CHSH3CSC2HSCHSC4HS2CH2CNHC2HCSCH2C3H3C2SH3CSHSC2H4C2HC2FeSCHCHCH2CHCH2NCH2SC4HC2H2CSHC3NC3H6CH4CH2
_chemical_formula_sum              "Fe64 S128 H384 C384 N32"
_cell_length_a       37.9772
_cell_length_b       37.7128
_cell_length_c       45.9955
_cell_angle_alpha    90.5359
_cell_angle_beta     89.8954
_cell_angle_gamma    90.0932

_space_group_name_H-M_alt    "P 1"
_space_group_IT_number       1

loop_
  _space_group_symop_operation_xyz
  'x, y, z'

loop_
  _atom_site_type_symbol
  _atom_site_label
  _atom_site_symmetry_multiplicity
  _atom_site_fract_x
  _atom_site_fract_y
  _atom_site_fract_z
  _atom_site_occupancy
  Fe  Fe1       1.0  0.41424  0.40945  0.11362  1.0000
  S   S1        1.0  0.35592  0.40290  0.11411  1.0000
  S   S2        1.0  0.44675  0.39163  0.07468  1.0000
  Fe  Fe2       1.0  0.41643  0.43089  0.17873  1.0000
  S   S3        1.0  0.35748  0.42463  0.18396  1.0000
  H   H1        1.0  0.48146  0.04117  0.30565  1.0000
  Fe  Fe3       1.0  0.36368  0.37503  0.15643  1.0000
  S   S4        1.0  0.33129  0.32464  0.15872  1.0000
  Fe  Fe4       1.0  0.35447  0.45274  0.14108  1.0000
  H   H2        1.0  0.02051  0.03552  0.13302  1.0000
  S   S5        1.0  0.42242  0.37869  0.15454  1.0000
  S   S6        1.0  0.41304  0.46197  0.13723  1.0000
  Fe  Fe5       1.0  0.38946  0.12618  0.14938  1.0000
  S   S7        1.0  0.43333  0.08805  0.13994  1.0000
  S   S8        1.0  0.40712  0.17563  0.17358  1.0000
  Fe  Fe6       1.0  0.33663  0.07857  0.11838  1.0000
  S   S9        1.0  0.37736  0.03801  0.10554  1.0000
  C   C1        1.0  0.25796  0.43389  0.09949  1.0000
  Fe  Fe7       1.0  0.39530  0.04501  0.15215  1.0000
  C   C2        1.0  0.18955  0.44820  0.11709  1.0000
  Fe  Fe8       1.0  0.41178  0.08526  0.09437  1.0000
  S   S10       1.0  0.45409  0.10101  0.06115  1.0000
  S   S11       1.0  0.35318  0.08340  0.16525  1.0000
  S   S12       1.0  0.36916  0.12529  0.10379  1.0000
  H   H3        1.0  0.37047  0.03849  0.22381  1.0000
  H   H4        1.0  0.31872  0.01470  0.14583  1.0000
  C   C3        1.0  0.26606  0.39171  0.13901  1.0000
  C   C4        1.0  0.45127  0.25633  0.09536  1.0000
  H   H5        1.0  0.20413  0.04383  0.18099  1.0000
  C   C5        1.0  0.21028  0.42350  0.13178  1.0000
  C   C6        1.0  0.43966  0.09650  0.22061  1.0000
  C   C7        1.0  0.23798  0.45873  0.08430  1.0000
  H   H6        1.0  0.41947  0.05681  0.01611  1.0000
  H   H7        1.0  0.43460  0.03399  0.31019  1.0000
  C   C8        1.0  0.40373  0.42500  0.03499  1.0000
  C   C9        1.0  0.42805  0.10768  0.24796  1.0000
  H   H8        1.0  0.47944  0.25187  0.09587  1.0000
  H   H9        1.0  0.46522  0.05462  0.19631  1.0000
  C   C10       1.0  0.43866  0.29124  0.09570  1.0000
  C   C11       1.0  0.35279  0.28338  0.16265  1.0000
  C   C12       1.0  0.38803  0.28143  0.17126  1.0000
  C   C13       1.0  0.40435  0.24823  0.17443  1.0000
  C   C14       1.0  0.38586  0.21674  0.16843  1.0000
  C   C15       1.0  0.35084  0.21864  0.15923  1.0000
  C   C16       1.0  0.33424  0.25185  0.15672  1.0000
  H   H10       1.0  0.40248  0.30546  0.17614  1.0000
  H   H11       1.0  0.43138  0.24697  0.18173  1.0000
  H   H12       1.0  0.33627  0.19452  0.15476  1.0000
  H   H13       1.0  0.30695  0.25311  0.15012  1.0000
  C   C17       1.0  0.40245  0.29727  0.09553  1.0000
  S   S13       1.0  0.27771  0.07608  0.11130  1.0000
  H   H14       1.0  0.43526  0.11304  0.20178  1.0000
  H   H15       1.0  0.45670  0.31361  0.09625  1.0000
  H   H16       1.0  0.41464  0.13297  0.25031  1.0000
  H   H17       1.0  0.42638  0.17450  0.07955  1.0000
  H   H18       1.0  0.16332  0.45470  0.12490  1.0000
  C   C18       1.0  0.45680  0.06398  0.21762  1.0000
  C   C19       1.0  0.05831  0.04280  0.18122  1.0000
  H   H19       1.0  0.07795  0.03798  0.16369  1.0000
  H   H20       1.0  0.19958  0.41082  0.15092  1.0000
  C   C20       1.0  0.43198  0.40193  0.03924  1.0000
  H   H21       1.0  0.28518  0.42965  0.09318  1.0000
  H   H22       1.0  0.24968  0.47334  0.06652  1.0000
  H   H23       1.0  0.39031  0.43659  0.05353  1.0000
  C   C21       1.0  0.44178  0.19178  0.09461  1.0000
  H   H24       1.0  0.20410  0.06223  0.10911  1.0000
  C   C22       1.0  0.25430  0.03709  0.10204  1.0000
  C   C23       1.0  0.46504  0.47651  0.23933  1.0000
  C   C24       1.0  0.21742  0.03775  0.10356  1.0000
  H   H25       1.0  0.26887  0.04625  0.17510  1.0000
  H   H26       1.0  0.46963  0.19018  0.08729  1.0000
  H   H27       1.0  0.28571  0.40669  0.15212  1.0000
  C   C25       1.0  0.43378  0.08604  0.27206  1.0000
  H   H28       1.0  0.18811  0.48587  0.08219  1.0000
  H   H29       1.0  0.21834  0.47670  0.19485  1.0000
  C   C26       1.0  0.39281  0.23395  0.09472  1.0000
  H   H30       1.0  0.37466  0.21169  0.09519  1.0000
  C   C27       1.0  0.46219  0.04305  0.24217  1.0000
  C   C28       1.0  0.21865  0.01987  0.17574  1.0000
  C   C29       1.0  0.37933  0.26849  0.09501  1.0000
  H   H31       1.0  0.39236  0.32421  0.09625  1.0000
  C   C30       1.0  0.45700  0.03228  0.29459  1.0000
  N   N1        1.0  0.42838  0.22825  0.09449  1.0000
  H   H32       1.0  0.05000  0.07100  0.18092  1.0000
  N   N2        1.0  0.24395  0.41644  0.12276  1.0000
  H   H33       1.0  0.35112  0.27296  0.09574  1.0000
  H   H34       1.0  0.36071  0.02852  0.27657  1.0000
  H   H35       1.0  0.28034  0.37348  0.12397  1.0000
  C   C31       1.0  0.20354  0.46585  0.09318  1.0000
  S   S14       1.0  0.45867  0.44165  0.21337  1.0000
  C   C32       1.0  0.25529  0.02104  0.17251  1.0000
  H   H36       1.0  0.02865  0.48052  0.02315  1.0000
  H   H37       1.0  0.16931  0.00790  0.09957  1.0000
  H   H38       1.0  0.25044  0.37486  0.15398  1.0000
  C   C33       1.0  0.19762  0.00687  0.09835  1.0000
  C   C34       1.0  0.38033  0.01468  0.23386  1.0000
  H   H39       1.0  0.27938  0.46667  0.17688  1.0000
  C   C35       1.0  0.46489  0.08947  0.02449  1.0000
  C   C36       1.0  0.22803  0.49150  0.17645  1.0000
  N   N3        1.0  0.45041  0.05404  0.26891  1.0000
  H   H40       1.0  0.07187  0.03756  0.20217  1.0000
  H   H41       1.0  0.43993  0.18072  0.11687  1.0000
  C   C37       1.0  0.37487  0.00895  0.26381  1.0000
  C   C38       1.0  0.05282  0.49163  0.01467  1.0000
  H   H42       1.0  0.42466  0.09486  0.29329  1.0000
  C   C39       1.0  0.26257  0.48566  0.16625  1.0000
  H   H43       1.0  0.47120  0.36946  0.01798  1.0000
  C   C40       1.0  0.49545  0.47617  0.25683  1.0000
  C   C41       1.0  0.00532  0.00916  0.03942  1.0000
  C   C42       1.0  0.49723  0.48302  0.12422  1.0000
  C   C43       1.0  0.44926  0.38727  0.01489  1.0000
  S   S15       1.0  0.31711  0.49610  0.12694  1.0000
  N   N4        1.0  0.02771  0.01956  0.17702  1.0000
  H   H44       1.0  0.49358  0.45719  0.08209  1.0000
  C   C44       1.0  0.01094  0.01924  0.15072  1.0000
  H   H45       1.0  0.47496  0.01751  0.23948  1.0000
  C   C45       1.0  0.27515  0.50439  0.14225  1.0000
  C   C46       1.0  0.49600  0.10334  0.01231  1.0000
  H   H46       1.0  0.29968  0.00478  0.09260  1.0000
  C   C47       1.0  0.27129  0.00543  0.09439  1.0000
  C   C48       1.0  0.44348  0.06768  0.00715  1.0000
  C   C49       1.0  0.02265  0.45144  0.60992  1.0000
  H   H47       1.0  0.04122  0.42963  0.60904  1.0000
  H   H48       1.0  0.01488  0.45295  0.56348  1.0000
  H   H49       1.0  0.02163  0.03187  0.52389  1.0000
  C   C50       1.0  0.00784  0.46444  0.58441  1.0000
  C   C51       1.0  0.01259  0.46611  0.63673  1.0000
  H   H50       1.0  0.02362  0.45527  0.65650  1.0000
  Fe  Fe9       1.0  0.42304  0.34998  0.85893  1.0000
  S   S16       1.0  0.46098  0.38742  0.88086  1.0000
  S   S17       1.0  0.43055  0.29069  0.85247  1.0000
  Fe  Fe10      1.0  0.36911  0.40810  0.84719  1.0000
  S   S18       1.0  0.40428  0.44955  0.86704  1.0000
  S   S19       1.0  0.31607  0.43006  0.83360  1.0000
  Fe  Fe11      1.0  0.44881  0.42336  0.84294  1.0000
  C   C52       1.0  0.48750  0.46398  0.73357  1.0000
  Fe  Fe12      1.0  0.41266  0.41030  0.90283  1.0000
  S   S20       1.0  0.39637  0.43206  0.94718  1.0000
  S   S21       1.0  0.41302  0.38470  0.82006  1.0000
  S   S22       1.0  0.37572  0.36993  0.88366  1.0000
  Fe  Fe13      1.0  0.05082  0.41661  0.85758  1.0000
  S   S23       1.0  0.06668  0.35929  0.85984  1.0000
  C   C53       1.0  0.06654  0.47877  0.98810  1.0000
  Fe  Fe14      1.0  0.09160  0.43602  0.91380  1.0000
  S   S24       1.0  0.10930  0.37999  0.92042  1.0000
  C   C54       1.0  0.31389  0.45316  0.90851  1.0000
  Fe  Fe15      1.0  0.12051  0.38004  0.87245  1.0000
  S   S25       1.0  0.17082  0.35189  0.85923  1.0000
  Fe  Fe16      1.0  0.05452  0.36379  0.90740  1.0000
  C   C55       1.0  0.44362  0.19964  0.91919  1.0000
  S   S26       1.0  0.10580  0.43719  0.86615  1.0000
  S   S27       1.0  0.03575  0.42008  0.90494  1.0000
  H   H51       1.0  0.31110  0.47362  0.89143  1.0000
  H   H52       1.0  0.43643  0.04302  0.96492  1.0000
  C   C56       1.0  0.24959  0.45250  0.91307  1.0000
  C   C57       1.0  0.47990  0.45463  0.76257  1.0000
  H   H53       1.0  0.47008  0.45525  0.71633  1.0000
  H   H54       1.0  0.03367  0.23075  0.85825  1.0000
  H   H55       1.0  0.04846  0.28862  0.88105  1.0000
  C   C58       1.0  0.09709  0.49378  0.97643  1.0000
  S   S28       1.0  0.01959  0.32519  0.93160  1.0000
  H   H56       1.0  0.45683  0.43889  0.76745  1.0000
  C   C59       1.0  0.48192  0.32717  0.79224  1.0000
  S   S29       1.0  0.11283  0.48180  0.94132  1.0000
  H   H57       1.0  0.02407  0.07080  0.90943  1.0000
  C   C60       1.0  0.02188  0.16007  0.98334  1.0000
  C   C61       1.0  0.03883  0.09630  0.90808  1.0000
  H   H58       1.0  0.05293  0.45796  0.97627  1.0000
  C   C62       1.0  0.41043  0.41916  0.98223  1.0000
  C   C63       1.0  0.02234  0.42110  0.77257  1.0000
  H   H59       1.0  0.03454  0.41011  0.72752  1.0000
  C   C64       1.0  0.48445  0.07361  0.96601  1.0000
  H   H60       1.0  0.02935  0.11002  0.88825  1.0000
  C   C65       1.0  0.27601  0.40795  0.84107  1.0000
  C   C66       1.0  0.24438  0.42724  0.84065  1.0000
  C   C67       1.0  0.21197  0.41053  0.84646  1.0000
  C   C68       1.0  0.21090  0.37416  0.85210  1.0000
  C   C69       1.0  0.24250  0.35482  0.85222  1.0000
  C   C70       1.0  0.27500  0.37170  0.84711  1.0000
  H   H61       1.0  0.24497  0.45524  0.83577  1.0000
  H   H62       1.0  0.18780  0.42562  0.84609  1.0000
  H   H63       1.0  0.24185  0.32664  0.85639  1.0000
  H   H64       1.0  0.29915  0.35653  0.84721  1.0000
  C   C71       1.0  0.47018  0.26853  0.86056  1.0000
  H   H65       1.0  0.06733  0.09048  0.90571  1.0000
  C   C72       1.0  0.43843  0.39568  0.98645  1.0000
  H   H66       1.0  0.02373  0.07401  0.96150  1.0000
  C   C73       1.0  0.01930  0.12321  0.98497  1.0000
  C   C74       1.0  0.47287  0.23217  0.85410  1.0000
  N   N5        1.0  0.03283  0.11830  0.93404  1.0000
  H   H67       1.0  0.19279  0.44935  0.91691  1.0000
  C   C75       1.0  0.02017  0.23912  0.87789  1.0000
  C   C76       1.0  0.02528  0.10262  0.96001  1.0000
  C   C77       1.0  0.02856  0.27196  0.89074  1.0000
  H   H68       1.0  0.33503  0.43505  0.90080  1.0000
  H   H69       1.0  0.19270  0.38405  0.92355  1.0000
  H   H70       1.0  0.44933  0.25610  0.92631  1.0000
  H   H71       1.0  0.45064  0.21831  0.84462  1.0000
  C   C78       1.0  0.49663  0.22754  0.93712  1.0000
  H   H72       1.0  0.37160  0.45196  0.00357  1.0000
  C   C79       1.0  0.46181  0.23029  0.92779  1.0000
  N   N6        1.0  0.45976  0.16722  0.91984  1.0000
  H   H73       1.0  0.43489  0.11873  0.93061  1.0000
  H   H74       1.0  0.41543  0.14116  0.90002  1.0000
  H   H75       1.0  0.32278  0.46557  0.92923  1.0000
  C   C80       1.0  0.39317  0.43368  0.00663  1.0000
  H   H76       1.0  0.30547  0.38379  0.91741  1.0000
  H   H77       1.0  0.49023  0.38335  0.79642  1.0000
  H   H78       1.0  0.03324  0.20440  0.95544  1.0000
  N   N7        1.0  0.28063  0.43411  0.91283  1.0000
  H   H79       1.0  0.45200  0.38447  0.96783  1.0000
  C   C81       1.0  0.01420  0.41807  0.74272  1.0000
  H   H80       1.0  0.45684  0.11883  0.89590  1.0000
  H   H81       1.0  0.24947  0.48084  0.90939  1.0000
  C   C82       1.0  0.28084  0.39834  0.91754  1.0000
  C   C83       1.0  0.21751  0.43490  0.91735  1.0000
  H   H82       1.0  0.41678  0.20215  0.91149  1.0000
  C   C84       1.0  0.49651  0.29364  0.79605  1.0000
  C   C85       1.0  0.24926  0.37986  0.92167  1.0000
  C   C86       1.0  0.21743  0.39828  0.92140  1.0000
  H   H83       1.0  0.04347  0.16667  0.91201  1.0000
  C   C87       1.0  0.45319  0.05993  0.97808  1.0000
  C   C88       1.0  0.03088  0.17577  0.95699  1.0000
  C   C89       1.0  0.03650  0.15431  0.93244  1.0000
  H   H84       1.0  0.24936  0.35129  0.92413  1.0000
  C   C90       1.0  0.44059  0.13507  0.91114  1.0000
  S   S30       1.0  0.49428  0.45432  0.82209  1.0000
  C   C91       1.0  0.01133  0.28305  0.91609  1.0000
  H   H85       1.0  0.01708  0.17642  0.00247  1.0000
  H   H86       1.0  0.49728  0.31429  0.87771  1.0000
  S   S31       1.0  0.00596  0.43873  0.83003  1.0000
  H   H87       1.0  0.04874  0.41557  0.78006  1.0000
  H   H88       1.0  0.48083  0.27008  0.79175  1.0000
  H   H89       1.0  0.45498  0.32972  0.78472  1.0000
  H   H90       1.0  0.01057  0.31924  0.79348  1.0000
  C   C92       1.0  0.49377  0.16432  0.92919  1.0000
  S   S32       1.0  0.49502  0.06375  0.92897  1.0000
  H   H91       1.0  0.01508  0.36062  0.81214  1.0000
  C   C93       1.0  0.49906  0.28629  0.87269  1.0000
  H   H92       1.0  0.04994  0.49700  0.86034  1.0000
  H   H93       1.0  0.01264  0.11053  0.00536  1.0000
  H   H94       1.0  0.38285  0.66528  0.31861  1.0000
  Fe  Fe17      1.0  0.07484  0.56657  0.09991  1.0000
  S   S33       1.0  0.13132  0.58270  0.10729  1.0000
  H   H95       1.0  0.20599  0.93307  0.15840  1.0000
  Fe  Fe18      1.0  0.05179  0.59105  0.16159  1.0000
  S   S34       1.0  0.10637  0.60838  0.17354  1.0000
  H   H96       1.0  0.42912  0.55316  0.26576  1.0000
  Fe  Fe19      1.0  0.10828  0.63180  0.12868  1.0000
  S   S35       1.0  0.13318  0.68648  0.12526  1.0000
  Fe  Fe20      1.0  0.12488  0.55830  0.15141  1.0000
  S   S36       1.0  0.38330  0.97458  0.31579  1.0000
  S   S37       1.0  0.05232  0.61770  0.11795  1.0000
  S   S38       1.0  0.06977  0.53901  0.14284  1.0000
  Fe  Fe21      1.0  0.05701  0.96161  0.09472  1.0000
  S   S39       1.0  0.08727  0.91772  0.07247  1.0000
  C   C94       1.0  0.01573  0.99886  0.19925  1.0000
  Fe  Fe22      1.0  0.08815  0.94315  0.15497  1.0000
  S   S40       1.0  0.11998  0.89799  0.13703  1.0000
  S   S41       1.0  0.09800  0.96326  0.20085  1.0000
  Fe  Fe23      1.0  0.13295  0.93503  0.10058  1.0000
  S   S42       1.0  0.19019  0.93530  0.08660  1.0000
  Fe  Fe24      1.0  0.07187  0.88447  0.11099  1.0000
  S   S43       1.0  0.04864  0.82928  0.10511  1.0000
  C   C95       1.0  0.25138  0.97449  0.08896  1.0000
  S   S44       1.0  0.03853  0.92723  0.13174  1.0000
  H   H97       1.0  0.32363  0.96846  0.15282  1.0000
  S   S45       1.0  0.04951  0.53649  0.06201  1.0000
  H   H98       1.0  0.49938  0.81871  0.33773  1.0000
  H   H99       1.0  0.10088  0.69270  0.19401  1.0000
  C   C96       1.0  0.44788  0.53180  0.26325  1.0000
  S   S46       1.0  0.40935  0.99712  0.17993  1.0000
  S   S47       1.0  0.02376  0.89794  0.31225  1.0000
  H   H100      1.0  0.04748  0.60855  0.28951  1.0000
  C   C97       1.0  0.05433  0.52573  0.27649  1.0000
  H   H101      1.0  0.15921  0.85972  0.08730  1.0000
  C   C98       1.0  0.40662  0.95359  0.26074  1.0000
  C   C99       1.0  0.14976  0.75443  0.05716  1.0000
  C   C100      1.0  0.11491  0.75300  0.04771  1.0000
  H   H102      1.0  0.04680  0.65860  0.18267  1.0000
  H   H103      1.0  0.05437  0.60531  0.23580  1.0000
  C   C101      1.0  0.10873  0.72576  0.12064  1.0000
  C   C102      1.0  0.07385  0.72509  0.11099  1.0000
  C   C103      1.0  0.05571  0.75708  0.10650  1.0000
  C   C104      1.0  0.07214  0.78990  0.11192  1.0000
  C   C105      1.0  0.10684  0.79055  0.12198  1.0000
  C   C106      1.0  0.12510  0.75858  0.12618  1.0000
  H   H104      1.0  0.06109  0.69998  0.10648  1.0000
  H   H105      1.0  0.02890  0.75642  0.09857  1.0000
  H   H106      1.0  0.11973  0.81565  0.12623  1.0000
  H   H107      1.0  0.15211  0.75924  0.13365  1.0000
  C   C107      1.0  0.04577  0.91518  0.28154  1.0000
  C   C108      1.0  0.07325  0.93967  0.28440  1.0000
  C   C109      1.0  0.08937  0.95379  0.25946  1.0000
  C   C110      1.0  0.07856  0.94313  0.23152  1.0000
  C   C111      1.0  0.05140  0.91827  0.22863  1.0000
  N   N8        1.0  0.03241  0.52002  0.25330  1.0000
  H   H108      1.0  0.08166  0.94818  0.30584  1.0000
  H   H109      1.0  0.11020  0.97320  0.26187  1.0000
  H   H110      1.0  0.11443  0.55428  0.03068  1.0000
  H   H111      1.0  0.19280  0.85182  0.06024  1.0000
  C   C112      1.0  0.21977  0.95768  0.16315  1.0000
  H   H112      1.0  0.03447  0.96547  0.02112  1.0000
  C   C113      1.0  0.23601  0.95989  0.33491  1.0000
  H   H113      1.0  0.04277  0.91001  0.20721  1.0000
  N   N9        1.0  0.27367  0.99119  0.16489  1.0000
  C   C114      1.0  0.06993  0.51893  0.03026  1.0000
  C   C115      1.0  0.25326  0.52951  0.12904  1.0000
  C   C116      1.0  0.21448  0.97500  0.09135  1.0000
  H   H114      1.0  0.26289  0.54426  0.11057  1.0000
  H   H115      1.0  0.16390  0.73007  0.06167  1.0000
  C   C117      1.0  0.07630  0.74338  0.18685  1.0000
  H   H116      1.0  0.26463  0.95005  0.08317  1.0000
  H   H117      1.0  0.39313  0.72791  0.30370  1.0000
  H   H118      1.0  0.42701  0.94018  0.21817  1.0000
  C   C118      1.0  0.07678  0.70645  0.18834  1.0000
  H   H119      1.0  0.10798  0.53415  0.29068  1.0000
  H   H120      1.0  0.03598  0.81355  0.32117  1.0000
  C   C119      1.0  0.16567  0.78746  0.06209  1.0000
  S   S48       1.0  0.48443  0.56608  0.30703  1.0000
  H   H121      1.0  0.31454  0.93578  0.31782  1.0000
  C   C120      1.0  0.20585  0.51597  0.16270  1.0000
  C   C121      1.0  0.09072  0.52914  0.27232  1.0000
  C   C122      1.0  0.38815  0.97852  0.27748  1.0000
  H   H122      1.0  0.19248  0.78834  0.07014  1.0000
  H   H123      1.0  0.17231  0.98674  0.17290  1.0000
  C   C123      1.0  0.20081  0.94883  0.33480  1.0000
  C   C124      1.0  0.03493  0.90455  0.25357  1.0000
  H   H124      1.0  0.27079  0.93629  0.15342  1.0000
  C   C125      1.0  0.21874  0.53524  0.13914  1.0000
  S   S49       1.0  0.00217  0.59648  0.18939  1.0000
  C   C126      1.0  0.46892  0.66009  0.29864  1.0000
  N   N10       1.0  0.26270  0.93553  0.33530  1.0000
  C   C127      1.0  0.02834  0.60512  0.24540  1.0000
  C   C128      1.0  0.10465  0.52600  0.24430  1.0000
  H   H125      1.0  0.30235  0.97642  0.33567  1.0000
  H   H126      1.0  0.04521  0.78932  0.17637  1.0000
  C   C129      1.0  0.25642  0.95975  0.16024  1.0000
  C   C130      1.0  0.41222  0.95939  0.23081  1.0000
  C   C131      1.0  0.40841  0.67343  0.31044  1.0000
  C   C132      1.0  0.11300  0.81697  0.04873  1.0000
  S   S50       1.0  0.10407  0.98116  0.12005  1.0000
  C   C133      1.0  0.10114  0.53310  0.01906  1.0000
  H   H127      1.0  0.01363  0.88565  0.25123  1.0000
  H   H128      1.0  0.32474  0.99960  0.18266  1.0000
  H   H129      1.0  0.48549  0.50741  0.11657  1.0000
  H   H130      1.0  0.20207  0.55433  0.12851  1.0000
  H   H131      1.0  0.43199  0.62171  0.31532  1.0000
  C   C134      1.0  0.20082  0.98793  0.17106  1.0000
  C   C135      1.0  0.41402  0.70838  0.30181  1.0000
  H   H132      1.0  0.17964  0.96811  0.33599  1.0000
  C   C136      1.0  0.01569  0.74057  0.17131  1.0000
  C   C137      1.0  0.01657  0.98702  0.01667  1.0000
  C   C138      1.0  0.44728  0.71845  0.29164  1.0000
  H   H133      1.0  0.06879  0.78367  0.03728  1.0000
  C   C139      1.0  0.04554  0.76064  0.17842  1.0000
  H   H134      1.0  0.13283  0.52840  0.24052  1.0000
  H   H135      1.0  0.41717  0.93015  0.27095  1.0000
  C   C140      1.0  0.04634  0.68727  0.18141  1.0000
  H   H136      1.0  0.15319  0.87388  0.05032  1.0000
  N   N11       1.0  0.01649  0.70432  0.17266  1.0000
  C   C141      1.0  0.43595  0.64904  0.30873  1.0000
  C   C142      1.0  0.16391  0.85243  0.06417  1.0000
  C   C143      1.0  0.47811  0.53128  0.28097  1.0000
  H   H137      1.0  0.09789  0.84120  0.04652  1.0000
  H   H138      1.0  0.45158  0.74592  0.28569  1.0000
  C   C144      1.0  0.09635  0.78443  0.04343  1.0000
  N   N12       1.0  0.14739  0.81816  0.05753  1.0000
  H   H139      1.0  0.49021  0.64095  0.29755  1.0000
  S   S51       1.0  0.16173  0.52050  0.17454  1.0000
  H   H140      1.0  0.10194  0.72755  0.04474  1.0000
  H   H141      1.0  0.10001  0.75852  0.19137  1.0000
  C   C145      1.0  0.02434  0.60692  0.27586  1.0000
  H   H142      1.0  0.04362  0.52839  0.29832  1.0000
  C   C146      1.0  0.39940  0.99006  0.21723  1.0000
  C   C147      1.0  0.22042  0.88805  0.33543  1.0000
  C   C148      1.0  0.08214  0.51967  0.22094  1.0000
  H   H143      1.0  0.16585  0.90392  0.33630  1.0000
  C   C149      1.0  0.19304  0.91268  0.33507  1.0000
  H   H144      1.0  0.02905  0.99896  0.22011  1.0000
  N   N13       1.0  0.47435  0.69455  0.29069  1.0000
  C   C150      1.0  0.31201  0.99346  0.16145  1.0000
  C   C151      1.0  0.25532  0.90002  0.33561  1.0000
  H   H145      1.0  0.09288  0.51683  0.19921  1.0000
  C   C152      1.0  0.04587  0.51692  0.22577  1.0000
  H   H146      1.0  0.02855  0.51261  0.20731  1.0000
  H   H147      1.0  0.27649  0.88081  0.33731  1.0000
  H   H148      1.0  0.47012  0.50880  0.17870  1.0000
  C   C153      1.0  0.29952  0.94711  0.33646  1.0000
  H   H149      1.0  0.24175  0.98804  0.33571  1.0000
  C   C154      1.0  0.49870  0.50855  0.17333  1.0000
  S   S52       1.0  0.01954  0.00323  0.07603  1.0000
  H   H150      1.0  0.21471  0.85995  0.33694  1.0000
  H   H151      1.0  0.45957  0.00373  0.28867  1.0000
  C   C155      1.0  0.44140  0.50469  0.24251  1.0000
  H   H152      1.0  0.41789  0.50540  0.22928  1.0000
  H   H153      1.0  0.43799  0.87447  0.47760  1.0000
  S   S53       1.0  0.07457  0.90343  0.43917  1.0000
  C   C156      1.0  0.46603  0.79029  0.42296  1.0000
  H   H154      1.0  0.06450  0.75273  0.34344  1.0000
  S   S54       1.0  0.09396  0.88015  0.37151  1.0000
  Fe  Fe25      1.0  0.06192  0.85855  0.40839  1.0000
  H   H155      1.0  0.48283  0.67094  0.44024  1.0000
  Fe  Fe26      1.0  0.10208  0.92747  0.40063  1.0000
  S   S55       1.0  0.15482  0.95575  0.40278  1.0000
  S   S56       1.0  0.06600  0.80010  0.41862  1.0000
  S   S57       1.0  0.05389  0.95683  0.38475  1.0000
  Fe  Fe27      1.0  0.41423  0.85096  0.35983  1.0000
  S   S58       1.0  0.44591  0.90144  0.35880  1.0000
  Fe  Fe28      1.0  0.39498  0.92838  0.34657  1.0000
  Fe  Fe29      1.0  0.35203  0.88585  0.39085  1.0000
  S   S59       1.0  0.37936  0.93871  0.39339  1.0000
  S   S60       1.0  0.29728  0.86762  0.40423  1.0000
  H   H156      1.0  0.46202  0.80203  0.44498  1.0000
  Fe  Fe30      1.0  0.42811  0.90783  0.40561  1.0000
  S   S61       1.0  0.47012  0.92645  0.43807  1.0000
  H   H157      1.0  0.08580  0.82199  0.49092  1.0000
  S   S62       1.0  0.39936  0.85582  0.40687  1.0000
  C   C157      1.0  0.46656  0.77436  0.34919  1.0000
  H   H158      1.0  0.05449  0.72475  0.42017  1.0000
  Fe  Fe31      1.0  0.02576  0.92954  0.42175  1.0000
  S   S63       1.0  0.36490  0.87717  0.34375  1.0000
  S   S64       1.0  0.01177  0.88270  0.39330  1.0000
  C   C158      1.0  0.06612  0.84218  0.49543  1.0000
  C   C159      1.0  0.47945  0.91316  0.47440  1.0000
  H   H159      1.0  0.44123  0.72540  0.36085  1.0000
  C   C160      1.0  0.19426  0.93125  0.40621  1.0000
  C   C161      1.0  0.22677  0.94916  0.40613  1.0000
  C   C162      1.0  0.25870  0.93017  0.40617  1.0000
  C   C163      1.0  0.25827  0.89309  0.40651  1.0000
  C   C164      1.0  0.22577  0.87528  0.40767  1.0000
  C   C165      1.0  0.19388  0.89423  0.40735  1.0000
  C   C166      1.0  0.07530  0.87350  0.50997  1.0000
  H   H160      1.0  0.28356  0.94419  0.40599  1.0000
  H   H161      1.0  0.22525  0.84661  0.40823  1.0000
  H   H162      1.0  0.16905  0.88016  0.40762  1.0000
  C   C167      1.0  0.46828  0.87761  0.51749  1.0000
  H   H163      1.0  0.44561  0.72499  0.43696  1.0000
  Fe  Fe32      1.0  0.04428  0.90736  0.35806  1.0000
  N   N14       1.0  0.48826  0.75859  0.42466  1.0000
  H   H164      1.0  0.05680  0.92453  0.52519  1.0000
  H   H165      1.0  0.22723  0.97783  0.40559  1.0000
  H   H166      1.0  0.04586  0.68986  0.34819  1.0000
  H   H167      1.0  0.47797  0.81086  0.40879  1.0000
  H   H168      1.0  0.45268  0.85771  0.52836  1.0000
  C   C168      1.0  0.45986  0.88705  0.48865  1.0000
  C   C169      1.0  0.49721  0.71856  0.35637  1.0000
  C   C170      1.0  0.03675  0.74643  0.34570  1.0000
  C   C171      1.0  0.02701  0.77473  0.42042  1.0000
  C   C172      1.0  0.47359  0.72687  0.43247  1.0000
  H   H169      1.0  0.02888  0.99263  0.48053  1.0000
  C   C173      1.0  0.02645  0.71094  0.34845  1.0000
  C   C174      1.0  0.49880  0.79094  0.34351  1.0000
  C   C175      1.0  0.02385  0.80979  0.34292  1.0000
  N   N15       1.0  0.00678  0.86328  0.49027  1.0000
  C   C176      1.0  0.49437  0.69630  0.43438  1.0000
  C   C177      1.0  0.02905  0.73760  0.42114  1.0000
  H   H170      1.0  0.43999  0.78373  0.41322  1.0000
  H   H171      1.0  0.47125  0.53910  0.66058  1.0000
  H   H172      1.0  0.10223  0.87781  0.51705  1.0000
  C   C178      1.0  0.46606  0.73838  0.35633  1.0000
  H   H173      1.0  0.44804  0.58057  0.65673  1.0000
  N   N16       1.0  0.01225  0.77299  0.34646  1.0000
  H   H174      1.0  0.00174  0.82896  0.34487  1.0000
  C   C179      1.0  0.03154  0.83750  0.48569  1.0000
  C   C180      1.0  0.49631  0.89407  0.53249  1.0000
  H   H175      1.0  0.49604  0.69079  0.36114  1.0000
  C   C181      1.0  0.01558  0.89411  0.50441  1.0000
  S   S65       1.0  0.42613  0.79561  0.34286  1.0000
  H   H176      1.0  0.02486  0.81329  0.47409  1.0000
  C   C182      1.0  0.04988  0.89968  0.51453  1.0000
  H   H177      1.0  0.31180  0.93806  0.35699  1.0000
  H   H178      1.0  0.04351  0.81679  0.35987  1.0000
  C   C183      1.0  0.00352  0.99466  0.49119  1.0000
  C   C184      1.0  0.45415  0.55875  0.67196  1.0000
  C   C185      1.0  0.49518  0.60006  0.69563  1.0000
  H   H179      1.0  0.06830  0.54551  0.92920  1.0000
  C   C186      1.0  0.05672  0.51794  0.87661  1.0000
  C   C187      1.0  0.48689  0.56642  0.74853  1.0000
  H   H180      1.0  0.08417  0.51275  0.88389  1.0000
  C   C188      1.0  0.04237  0.53361  0.92701  1.0000
  C   C189      1.0  0.01978  0.53369  0.95107  1.0000
  H   H181      1.0  0.48419  0.55221  0.76885  1.0000
  N   N17       1.0  0.03255  0.51755  0.90149  1.0000
  H   H182      1.0  0.01355  0.97542  0.97066  1.0000
  C   C190      1.0  0.46804  0.55533  0.72395  1.0000
  N   N18       1.0  0.47229  0.57218  0.69796  1.0000
  H   H183      1.0  0.13806  0.53262  0.98328  1.0000
  H   H184      1.0  0.02820  0.54549  0.97156  1.0000
  C   C191      1.0  0.11443  0.52080  0.99214  1.0000
  H   H185      1.0  0.45104  0.53229  0.72556  1.0000
  C   C192      1.0  0.00460  0.99273  0.98804  1.0000
  H   H186      1.0  0.05572  0.54411  0.86582  1.0000
  H   H187      1.0  0.42897  0.54550  0.67771  1.0000
  H   H188      1.0  0.49908  0.61304  0.67492  1.0000
  C   C193      1.0  0.51523  0.42274  0.11453  1.0000
  C   C194      1.0  0.98202  0.03708  0.03306  1.0000
  H   H189      1.0  0.52539  0.44475  0.18563  1.0000
  H   H190      1.0  0.53361  0.39413  0.15191  1.0000
  H   H191      1.0  0.51288  0.12006  0.02550  1.0000
  H   H192      1.0  0.51393  0.45450  0.25466  1.0000
  H   H193      1.0  0.98820  0.48678  0.26022  1.0000
  C   C195      1.0  0.51938  0.44805  0.16275  1.0000
  H   H194      1.0  0.51781  0.40036  0.09965  1.0000
  C   C196      1.0  0.52408  0.41924  0.14378  1.0000
  H   H195      1.0  0.97300  0.05433  0.05044  1.0000
  N   N19       1.0  0.50604  0.47941  0.15288  1.0000
  C   C197      1.0  0.50175  0.45480  0.10462  1.0000
  H   H196      1.0  0.52530  0.50242  0.29096  1.0000
  C   C198      1.0  0.50202  0.50336  0.27747  1.0000
  Fe  Fe33      1.0  0.91684  0.05960  0.59160  1.0000
  S   S66       1.0  0.85900  0.06629  0.58211  1.0000
  S   S67       1.0  0.96251  0.04978  0.56001  1.0000
  Fe  Fe34      1.0  0.90671  0.07991  0.65640  1.0000
  S   S68       1.0  0.84868  0.08779  0.65162  1.0000
  Fe  Fe35      1.0  0.85009  0.03800  0.62450  1.0000
  C   C199      1.0  0.76282  0.45747  0.66822  1.0000
  Fe  Fe36      1.0  0.86280  0.11573  0.61019  1.0000
  S   S69       1.0  0.83632  0.16829  0.60065  1.0000
  S   S70       1.0  0.90791  0.02805  0.63220  1.0000
  S   S71       1.0  0.92081  0.11112  0.61677  1.0000
  H   H197      1.0  0.82863  0.14592  0.53717  1.0000
  H   H198      1.0  0.70281  0.44014  0.58434  1.0000
  Fe  Fe37      1.0  0.89334  0.45044  0.60713  1.0000
  S   S72       1.0  0.85375  0.40626  0.60339  1.0000
  C   C200      1.0  0.96658  0.01988  0.53004  1.0000
  H   H199      1.0  0.85060  0.25251  0.66861  1.0000
  H   H200      1.0  0.88783  0.16764  0.55020  1.0000
  Fe  Fe38      1.0  0.89653  0.36981  0.61914  1.0000
  S   S73       1.0  0.91674  0.31664  0.60224  1.0000
  S   S74       1.0  0.88200  0.46295  0.65435  1.0000
  S   S75       1.0  0.93716  0.41335  0.61887  1.0000
  Fe  Fe39      1.0  0.92271  0.42187  0.66597  1.0000
  H   H201      1.0  0.82226  0.09071  0.50746  1.0000
  C   C201      1.0  0.71669  0.01685  0.60560  1.0000
  H   H202      1.0  0.59296  0.02274  0.62973  1.0000
  N   N20       1.0  0.74274  0.47759  0.59578  1.0000
  H   H203      1.0  0.80795  0.49187  0.67141  1.0000
  H   H204      1.0  0.91174  0.45086  0.53143  1.0000
  H   H205      1.0  0.83787  0.18827  0.67140  1.0000
  H   H206      1.0  0.71273  0.43067  0.66575  1.0000
  C   C202      1.0  0.85903  0.20934  0.60202  1.0000
  C   C203      1.0  0.83968  0.24107  0.60319  1.0000
  C   C204      1.0  0.85691  0.27420  0.60394  1.0000
  C   C205      1.0  0.89367  0.27583  0.60261  1.0000
  C   C206      1.0  0.91300  0.24409  0.60140  1.0000
  C   C207      1.0  0.89583  0.21100  0.60155  1.0000
  H   H207      1.0  0.81120  0.24005  0.60351  1.0000
  H   H208      1.0  0.84175  0.29846  0.60475  1.0000
  H   H209      1.0  0.94145  0.24515  0.60043  1.0000
  H   H210      1.0  0.91110  0.18688  0.60081  1.0000
  H   H211      1.0  0.76824  0.04142  0.60577  1.0000
  H   H212      1.0  0.95142  0.49548  0.67242  1.0000
  H   H213      1.0  0.53814  0.02881  0.65859  1.0000
  C   C208      1.0  0.70903  0.46767  0.58904  1.0000
  N   N21       1.0  0.91477  0.12589  0.52780  1.0000
  C   C209      1.0  0.87831  0.08236  0.50395  1.0000
  C   C210      1.0  0.77082  0.45098  0.59542  1.0000
  C   C211      1.0  0.98322  0.49178  0.58600  1.0000
  Fe  Fe40      1.0  0.84418  0.41728  0.65094  1.0000
  C   C212      1.0  0.68200  0.49281  0.58847  1.0000
  C   C213      1.0  0.87203  0.23420  0.67261  1.0000
  H   H214      1.0  0.95099  0.16769  0.53761  1.0000
  C   C214      1.0  0.91554  0.48313  0.49281  1.0000
  C   C215      1.0  0.56242  0.04024  0.66690  1.0000
  S   S76       1.0  0.88374  0.37699  0.66645  1.0000
  S   S77       1.0  0.78709  0.41754  0.66540  1.0000
  H   H215      1.0  0.65513  0.48505  0.58333  1.0000
  C   C216      1.0  0.88543  0.14393  0.53684  1.0000
  H   H216      1.0  0.79367  0.45971  0.60882  1.0000
  C   C217      1.0  0.59333  0.03638  0.65060  1.0000
  N   N22       1.0  0.98851  0.49307  0.63807  1.0000
  C   C218      1.0  0.84825  0.10081  0.51283  1.0000
  C   C219      1.0  0.75286  0.01864  0.61221  1.0000
  C   C220      1.0  0.62489  0.05001  0.66137  1.0000
  H   H217      1.0  0.97093  0.50162  0.56636  1.0000
  C   C221      1.0  0.85178  0.13181  0.52939  1.0000
  C   C222      1.0  0.72587  0.45606  0.66756  1.0000
  H   H218      1.0  0.76145  0.42570  0.60507  1.0000
  H   H219      1.0  0.67732  0.48587  0.66862  1.0000
  C   C223      1.0  0.90937  0.47726  0.52265  1.0000
  H   H220      1.0  0.87597  0.05779  0.49162  1.0000
  C   C224      1.0  0.91155  0.09536  0.51170  1.0000
  C   C225      1.0  0.70573  0.48734  0.66914  1.0000
  H   H221      1.0  0.77995  0.44600  0.57284  1.0000
  S   S78       1.0  0.89322  0.50017  0.57891  1.0000
  H   H222      1.0  0.93476  0.08054  0.50515  1.0000
  H   H223      1.0  0.84897  0.47880  0.45629  1.0000
  H   H224      1.0  0.92254  0.46101  0.47880  1.0000
  H   H225      1.0  0.70442  0.03837  0.59401  1.0000
  C   C226      1.0  0.77953  0.49044  0.67068  1.0000
  H   H226      1.0  0.97058  0.12864  0.52184  1.0000
  H   H227      1.0  0.93743  0.28956  0.66066  1.0000
  H   H228      1.0  0.89167  0.29896  0.66301  1.0000
  H   H229      1.0  0.64909  0.04640  0.64902  1.0000
  H   H230      1.0  0.95574  0.12782  0.55890  1.0000
  C   C227      1.0  0.94970  0.13825  0.53695  1.0000
  C   C228      1.0  0.99932  0.01685  0.51583  1.0000
  C   C229      1.0  0.91337  0.28437  0.67380  1.0000
  C   C230      1.0  0.83429  0.50326  0.45379  1.0000
  S   S79       1.0  0.93658  0.09164  0.69796  1.0000
  C   C231      1.0  0.99562  0.34013  0.80537  1.0000
  Fe  Fe41      1.0  0.94329  0.13819  0.88916  1.0000
  S   S80       1.0  0.95360  0.08132  0.87707  1.0000
  S   S81       1.0  0.98445  0.17664  0.87269  1.0000
  Fe  Fe42      1.0  0.87224  0.11981  0.91604  1.0000
  S   S82       1.0  0.87818  0.06158  0.90660  1.0000
  S   S83       1.0  0.82179  0.14629  0.93134  1.0000
  Fe  Fe43      1.0  0.93424  0.06886  0.92228  1.0000
  C   C232      1.0  0.96451  0.29158  0.82961  1.0000
  Fe  Fe44      1.0  0.89735  0.07937  0.86278  1.0000
  S   S84       1.0  0.87326  0.05606  0.82169  1.0000
  S   S85       1.0  0.92707  0.12632  0.93508  1.0000
  S   S86       1.0  0.88843  0.13704  0.87141  1.0000
  Fe  Fe45      1.0  0.62379  0.08828  0.89846  1.0000
  S   S87       1.0  0.58478  0.04692  0.88348  1.0000
  S   S88       1.0  0.67569  0.06566  0.91440  1.0000
  Fe  Fe46      1.0  0.57601  0.14885  0.87877  1.0000
  H   H231      1.0  0.69390  0.06244  0.84902  1.0000
  S   S89       1.0  0.57295  0.20905  0.87890  1.0000
  Fe  Fe47      1.0  0.54337  0.08265  0.90348  1.0000
  H   H232      1.0  0.51320  0.03825  0.70751  1.0000
  Fe  Fe48      1.0  0.57975  0.07922  0.84286  1.0000
  S   S90       1.0  0.59403  0.05891  0.79701  1.0000
  S   S91       1.0  0.58285  0.12125  0.92165  1.0000
  S   S92       1.0  0.62051  0.11922  0.85733  1.0000
  C   C233      1.0  0.52995  0.06242  0.70936  1.0000
  H   H233      1.0  0.71141  0.12535  0.85239  1.0000
  C   C234      1.0  0.53052  0.26777  0.87803  1.0000
  C   C235      1.0  0.78106  0.12376  0.92760  1.0000
  C   C236      1.0  0.74958  0.14328  0.92624  1.0000
  C   C237      1.0  0.71697  0.12603  0.92207  1.0000
  C   C238      1.0  0.71557  0.08899  0.92017  1.0000
  C   C239      1.0  0.74695  0.06953  0.92225  1.0000
  C   C240      1.0  0.77957  0.08680  0.92552  1.0000
  H   H234      1.0  0.75047  0.17189  0.92814  1.0000
  H   H235      1.0  0.69292  0.14127  0.92077  1.0000
  H   H236      1.0  0.74605  0.04088  0.92101  1.0000
  H   H237      1.0  0.80346  0.07142  0.92698  1.0000
  H   H238      1.0  0.55285  0.28165  0.88730  1.0000
  S   S93       1.0  0.96839  0.02717  0.94481  1.0000
  H   H239      1.0  0.93317  0.00595  0.69288  1.0000
  H   H240      1.0  0.80330  0.03271  0.85117  1.0000
  C   C241      1.0  0.55511  0.38613  0.81766  1.0000
  H   H241      1.0  0.95740  0.21117  0.92533  1.0000
  C   C242      1.0  0.98019  0.42564  0.73234  1.0000
  H   H242      1.0  0.64953  0.07868  0.69664  1.0000
  C   C243      1.0  0.99431  0.21722  0.89011  1.0000
  C   C244      1.0  0.72164  0.06958  0.84940  1.0000
  H   H243      1.0  0.54017  0.19201  0.94424  1.0000
  C   C245      1.0  0.91652  0.08655  0.73234  1.0000
  C   C246      1.0  0.88223  0.07339  0.73508  1.0000
  C   C247      1.0  0.86857  0.06563  0.76277  1.0000
  C   C248      1.0  0.88892  0.07133  0.78786  1.0000
  C   C249      1.0  0.92251  0.08619  0.78520  1.0000
  C   C250      1.0  0.93631  0.09359  0.75750  1.0000
  H   H244      1.0  0.86665  0.06813  0.71588  1.0000
  H   H245      1.0  0.84249  0.05431  0.76471  1.0000
  H   H246      1.0  0.93840  0.09071  0.80440  1.0000
  H   H247      1.0  0.96283  0.10386  0.75556  1.0000
  C   C251      1.0  0.93296  0.22305  0.67962  1.0000
  S   S94       1.0  0.53469  0.11182  0.86124  1.0000
  C   C252      1.0  0.97105  0.34668  0.85448  1.0000
  C   C253      1.0  0.78289  0.05282  0.85104  1.0000
  H   H248      1.0  0.75573  0.16788  0.86615  1.0000
  C   C254      1.0  0.98601  0.26075  0.92876  1.0000
  S   S95       1.0  0.52391  0.49759  0.68989  1.0000
  C   C255      1.0  0.50210  0.46577  0.78512  1.0000
  H   H249      1.0  0.59396  0.08590  0.72436  1.0000
  H   H250      1.0  0.50590  0.18561  0.85466  1.0000
  C   C256      1.0  0.93938  0.29902  0.87747  1.0000
  H   H251      1.0  0.94779  0.16810  0.68535  1.0000
  C   C257      1.0  0.57739  0.02433  0.77441  1.0000
  H   H252      1.0  0.53012  0.10585  0.97464  1.0000
  C   C258      1.0  0.92640  0.18664  0.68176  1.0000
  H   H253      1.0  0.94246  0.44853  0.79717  1.0000
  H   H254      1.0  0.88660  0.14601  0.68079  1.0000
  H   H255      1.0  0.98103  0.37363  0.85534  1.0000
  C   C259      1.0  0.95425  0.43607  0.75227  1.0000
  H   H256      1.0  0.96948  0.27472  0.81084  1.0000
  H   H257      1.0  0.92803  0.44220  0.74466  1.0000
  H   H258      1.0  0.54455  0.39725  0.83839  1.0000
  N   N23       1.0  0.90593  0.24627  0.67501  1.0000
  C   C260      1.0  0.53313  0.23134  0.87168  1.0000
  C   C261      1.0  0.53195  0.48628  0.77823  1.0000
  H   H259      1.0  0.81962  0.09586  0.85469  1.0000
  C   C262      1.0  0.51278  0.19437  0.93783  1.0000
  H   H260      1.0  0.91693  0.29544  0.69604  1.0000
  S   S96       1.0  0.97245  0.42364  0.69418  1.0000
  C   C263      1.0  0.51717  0.48477  0.72669  1.0000
  C   C264      1.0  0.95243  0.33361  0.87836  1.0000
  N   N24       1.0  0.53539  0.35409  0.80957  1.0000
  C   C265      1.0  0.98121  0.02053  0.98168  1.0000
  H   H261      1.0  0.99621  0.50099  0.68382  1.0000
  C   C266      1.0  0.50415  0.21358  0.85975  1.0000
  H   H262      1.0  0.99205  0.48977  0.87849  1.0000
  H   H263      1.0  0.54186  0.26454  0.81067  1.0000
  H   H264      1.0  0.58367  0.38082  0.82030  1.0000
  H   H265      1.0  0.53505  0.06671  0.73295  1.0000
  H   H266      1.0  0.94905  0.34984  0.89777  1.0000
  C   C267      1.0  0.53942  0.49584  0.74924  1.0000
  H   H267      1.0  0.73979  0.01554  0.84878  1.0000
  N   N25       1.0  0.76655  0.11428  0.85377  1.0000
  C   C268      1.0  0.79203  0.08868  0.85307  1.0000
  C   C269      1.0  0.73174  0.10519  0.85148  1.0000
  C   C270      1.0  0.97003  0.04278  0.00440  1.0000
  C   C271      1.0  0.97729  0.22799  0.91569  1.0000
  H   H268      1.0  0.95201  0.06423  0.99993  1.0000
  H   H269      1.0  0.55234  0.40668  0.80061  1.0000
  H   H270      1.0  0.57590  0.31853  0.82291  1.0000
  C   C272      1.0  0.54977  0.32125  0.81373  1.0000
  H   H271      1.0  0.97262  0.26919  0.94843  1.0000
  C   C273      1.0  0.77684  0.15170  0.85582  1.0000
  C   C274      1.0  0.89198  0.17414  0.67916  1.0000
  H   H272      1.0  0.92557  0.28831  0.89612  1.0000
  C   C275      1.0  0.94550  0.27776  0.85301  1.0000
  H   H273      1.0  0.93650  0.25039  0.85259  1.0000
  H   H274      1.0  0.80056  0.15496  0.86979  1.0000
  H   H275      1.0  0.78269  0.16206  0.83384  1.0000
  C   C276      1.0  0.50582  0.09539  0.98336  1.0000
  N   N26       1.0  0.97710  0.32561  0.83061  1.0000
  H   H276      1.0  0.52636  0.02086  0.79454  1.0000
  C   C277      1.0  0.62508  0.06808  0.68799  1.0000
  H   H277      1.0  0.54940  0.49496  0.79546  1.0000
  C   C278      1.0  0.54294  0.01153  0.77691  1.0000
  C   C279      1.0  0.59354  0.07215  0.70349  1.0000
  H   H278      1.0  0.95150  0.48846  0.92063  1.0000
  C   C280      1.0  0.96256  0.43970  0.78207  1.0000
  H   H279      1.0  0.51144  0.25117  0.94295  1.0000
  C   C281      1.0  0.53072  0.29056  0.80672  1.0000
  H   H280      1.0  0.95980  0.23262  0.68154  1.0000
  C   C282      1.0  0.74741  0.04326  0.84945  1.0000
  H   H281      1.0  0.97318  0.01632  0.73430  1.0000
  N   N27       1.0  0.56287  0.05777  0.69308  1.0000
  H   H282      1.0  0.97649  0.35271  0.79040  1.0000
  C   C283      1.0  0.59850  0.01194  0.75127  1.0000
  C   C284      1.0  0.99665  0.43238  0.79240  1.0000
  H   H283      1.0  0.85609  0.00879  0.68866  1.0000
  H   H284      1.0  0.51522  0.08550  0.70087  1.0000
  H   H285      1.0  0.50648  0.13865  0.92966  1.0000
  H   H286      1.0  0.62525  0.02154  0.74922  1.0000
  C   C285      1.0  0.50186  0.35732  0.79912  1.0000
  C   C286      1.0  0.99999  0.50225  0.89884  1.0000
  C   C287      1.0  0.97688  0.50149  0.92258  1.0000
  C   C288      1.0  0.94734  0.00485  0.73797  1.0000
  C   C289      1.0  0.86459  0.19794  0.67436  1.0000
  C   C290      1.0  0.65985  0.66245  0.31949  1.0000
  S   S97       1.0  0.57694  0.60854  0.32219  1.0000
  H   H287      1.0  0.99219  0.75423  0.16415  1.0000
  H   H288      1.0  0.51417  0.73399  0.28545  1.0000
  C   C291      1.0  0.99451  0.51539  0.25806  1.0000
  C   C292      1.0  0.99078  0.60555  0.28884  1.0000
  S   S98       1.0  0.98790  0.60350  0.32728  1.0000
  C   C293      1.0  0.96959  0.97580  0.16839  1.0000
  H   H289      1.0  0.98562  0.52964  0.27806  1.0000
  H   H290      1.0  0.97793  0.95948  0.21274  1.0000
  C   C294      1.0  0.98670  0.97647  0.19522  1.0000
  C   C295      1.0  0.96107  0.60366  0.27099  1.0000
  C   C296      1.0  0.66952  0.63082  0.30566  1.0000
  H   H291      1.0  0.93511  0.60259  0.28068  1.0000
  H   H292      1.0  0.94193  0.59972  0.22690  1.0000
  H   H293      1.0  0.97920  0.52645  0.23966  1.0000
  H   H294      1.0  0.50625  0.53447  0.16392  1.0000
  C   C297      1.0  0.98164  0.99743  0.14601  1.0000
  H   H295      1.0  0.94731  0.95827  0.16478  1.0000
  H   H296      1.0  0.53036  0.69027  0.29093  1.0000
  C   C298      1.0  0.70493  0.62465  0.29900  1.0000
  C   C299      1.0  0.96506  0.60200  0.24052  1.0000
  H   H297      1.0  0.96898  0.99677  0.12483  1.0000
  C   C300      1.0  0.98515  0.68331  0.16539  1.0000
  C   C301      1.0  0.50910  0.70559  0.28017  1.0000
  H   H298      1.0  0.64997  0.61054  0.30099  1.0000
  C   C302      1.0  0.99869  0.60202  0.22761  1.0000
  H   H299      1.0  0.71223  0.59952  0.28905  1.0000
  H   H300      1.0  0.51082  0.70146  0.25629  1.0000
  Fe  Fe49      1.0  0.52949  0.57916  0.33865  1.0000
  H   H301      1.0  0.78527  0.65927  0.31105  1.0000
  H   H302      1.0  0.96476  0.69928  0.15425  1.0000
  H   H303      1.0  0.63254  0.66735  0.32528  1.0000
  H   H304      1.0  0.99227  0.66095  0.15056  1.0000
  H   H305      1.0  0.97363  0.67190  0.18550  1.0000
  N   N28       1.0  0.73008  0.64930  0.30595  1.0000
  C   C303      1.0  0.76689  0.64255  0.29800  1.0000
  H   H306      1.0  0.77406  0.61456  0.30253  1.0000
  H   H307      1.0  0.77109  0.64800  0.27458  1.0000
  C   C304      1.0  0.68563  0.68754  0.32633  1.0000
  C   C305      1.0  0.72085  0.68056  0.31925  1.0000
  H   H308      1.0  0.55488  0.78362  0.33818  1.0000
  H   H309      1.0  0.74081  0.70001  0.32497  1.0000
  H   H310      1.0  0.67832  0.71203  0.33734  1.0000
  H   H311      1.0  0.51334  0.50541  0.19407  1.0000
  Fe  Fe50      1.0  0.57808  0.61236  0.65421  1.0000
  S   S99       1.0  0.54520  0.56947  0.63322  1.0000
  C   C306      1.0  0.70050  0.57465  0.35862  1.0000
  Fe  Fe51      1.0  0.64008  0.56189  0.66225  1.0000
  C   C307      1.0  0.89748  0.53975  0.52912  1.0000
  H   H312      1.0  0.81182  0.56286  0.40244  1.0000
  Fe  Fe52      1.0  0.59418  0.55499  0.60851  1.0000
  S   S100      1.0  0.60442  0.53972  0.56129  1.0000
  S   S101      1.0  0.62560  0.60023  0.62701  1.0000
  Fe  Fe53      1.0  0.54972  0.59640  0.40321  1.0000
  S   S102      1.0  0.59833  0.62638  0.39024  1.0000
  S   S103      1.0  0.52913  0.60321  0.44943  1.0000
  C   C308      1.0  0.73162  0.55644  0.35136  1.0000
  C   C309      1.0  0.68968  0.52816  0.59490  1.0000
  H   H313      1.0  0.54974  0.68369  0.58508  1.0000
  S   S104      1.0  0.55956  0.54954  0.37325  1.0000
  C   C310      1.0  0.60192  0.70608  0.58619  1.0000
  Fe  Fe54      1.0  0.91432  0.57334  0.41623  1.0000
  S   S105      1.0  0.87708  0.61839  0.42494  1.0000
  N   N29       1.0  0.56886  0.77103  0.57833  1.0000
  Fe  Fe55      1.0  0.92097  0.65388  0.40991  1.0000
  S   S106      1.0  0.92624  0.70893  0.42915  1.0000
  Fe  Fe56      1.0  0.86305  0.61405  0.37767  1.0000
  C   C311      1.0  0.83124  0.51857  0.42644  1.0000
  S   S107      1.0  0.95973  0.60941  0.40534  1.0000
  S   S108      1.0  0.89766  0.56632  0.36923  1.0000
  Fe  Fe57      1.0  0.61485  0.94132  0.61827  1.0000
  S   S109      1.0  0.55695  0.95486  0.62076  1.0000
  S   S110      1.0  0.91939  0.52275  0.44294  1.0000
  Fe  Fe58      1.0  0.60253  0.86629  0.63992  1.0000
  S   S111      1.0  0.54467  0.87510  0.64494  1.0000
  S   S112      1.0  0.62964  0.81421  0.65015  1.0000
  Fe  Fe59      1.0  0.54773  0.90085  0.60081  1.0000
  H   H314      1.0  0.89070  0.56192  0.54313  1.0000
  S   S113      1.0  0.60545  0.88922  0.59500  1.0000
  S   S114      1.0  0.81460  0.99141  0.63510  1.0000
  C   C312      1.0  0.72409  0.53808  0.60166  1.0000
  C   C313      1.0  0.72239  0.52029  0.67202  1.0000
  Fe  Fe60      1.0  0.60655  0.58179  0.35832  1.0000
  C   C314      1.0  0.76907  0.99071  0.62682  1.0000
  C   C315      1.0  0.96540  0.73345  0.42530  1.0000
  Fe  Fe61      1.0  0.94107  0.60547  0.35883  1.0000
  H   H315      1.0  0.95152  0.87391  0.49118  1.0000
  H   H316      1.0  0.64997  0.73649  0.58878  1.0000
  C   C316      1.0  0.71254  0.95954  0.62852  1.0000
  H   H317      1.0  0.54658  0.67482  0.42955  1.0000
  H   H318      1.0  0.97077  0.86920  0.45564  1.0000
  C   C317      1.0  0.97480  0.97557  0.48022  1.0000
  S   S115      1.0  0.97845  0.94670  0.44955  1.0000
  H   H319      1.0  0.69723  0.93661  0.63472  1.0000
  C   C318      1.0  0.55136  0.80542  0.57548  1.0000
  C   C319      1.0  0.97131  0.85888  0.47820  1.0000
  H   H320      1.0  0.57294  0.73266  0.41560  1.0000
  H   H321      1.0  0.72991  0.56530  0.60784  1.0000
  C   C320      1.0  0.76703  0.60688  0.36679  1.0000
  Fe  Fe62      1.0  0.55933  0.92827  0.66425  1.0000
  H   H322      1.0  0.54590  0.81695  0.59731  1.0000
  H   H323      1.0  0.95350  0.52612  0.61422  1.0000
  H   H324      1.0  0.91258  0.00252  0.52991  1.0000
  C   C321      1.0  0.62172  0.73727  0.58539  1.0000
  H   H325      1.0  0.55495  0.79515  0.65025  1.0000
  H   H326      1.0  0.98275  0.67545  0.35515  1.0000
  C   C322      1.0  0.58387  0.55888  0.53061  1.0000
  C   C323      1.0  0.55533  0.58209  0.53335  1.0000
  C   C324      1.0  0.53896  0.59562  0.50829  1.0000
  C   C325      1.0  0.55119  0.58640  0.48033  1.0000
  C   C326      1.0  0.58016  0.56377  0.47763  1.0000
  C   C327      1.0  0.59626  0.54994  0.50266  1.0000
  H   H327      1.0  0.54542  0.58899  0.55471  1.0000
  H   H328      1.0  0.66887  0.54777  0.59496  1.0000
  H   H329      1.0  0.56789  0.82449  0.56316  1.0000
  C   C328      1.0  0.96344  0.77056  0.42483  1.0000
  C   C329      1.0  0.75057  0.51234  0.60172  1.0000
  C   C330      1.0  0.91271  0.51728  0.48093  1.0000
  C   C331      1.0  0.60463  0.76976  0.58168  1.0000
  C   C332      1.0  0.60710  0.77335  0.65379  1.0000
  H   H330      1.0  0.75403  0.59541  0.43421  1.0000
  H   H331      1.0  0.67913  0.62275  0.37684  1.0000
  C   C333      1.0  0.99093  0.70281  0.35233  1.0000
  Fe  Fe63      1.0  0.56431  0.65021  0.35576  1.0000
  C   C334      1.0  0.81359  0.55086  0.42369  1.0000
  H   H332      1.0  0.93872  0.72419  0.35782  1.0000
  C   C335      1.0  0.53032  0.69845  0.42845  1.0000
  C   C336      1.0  0.57301  0.70681  0.65750  1.0000
  H   H333      1.0  0.58973  0.55636  0.45626  1.0000
  H   H334      1.0  0.76110  0.93951  0.64625  1.0000
  C   C337      1.0  0.97737  0.76527  0.35051  1.0000
  H   H335      1.0  0.52497  0.73680  0.65386  1.0000
  S   S116      1.0  0.69816  0.56032  0.67370  1.0000
  H   H336      1.0  0.99214  0.81958  0.42164  1.0000
  H   H337      1.0  0.96319  0.83054  0.47786  1.0000
  H   H338      1.0  0.90119  0.57199  0.49046  1.0000
  C   C338      1.0  0.90036  0.50561  0.54099  1.0000
  S   S117      1.0  0.51532  0.62290  0.37023  1.0000
  C   C339      1.0  0.90350  0.54559  0.49926  1.0000
  C   C340      1.0  0.54514  0.73097  0.42091  1.0000
  H   H339      1.0  0.62003  0.79406  0.58236  1.0000
  S   S118      1.0  0.61122  0.51584  0.64240  1.0000
  C   C341      1.0  0.55341  0.73820  0.65481  1.0000
  H   H340      1.0  0.53766  0.93290  0.52929  1.0000
  S   S119      1.0  0.55053  0.66571  0.65851  1.0000
  C   C342      1.0  0.94206  0.97854  0.49446  1.0000
  C   C343      1.0  0.80245  0.55271  0.47450  1.0000
  C   C344      1.0  0.75936  0.52166  0.67295  1.0000
  C   C345      1.0  0.52365  0.76102  0.41931  1.0000
  H   H341      1.0  0.77680  0.61538  0.46477  1.0000
  S   S120      1.0  0.80702  0.63090  0.36676  1.0000
  S   S121      1.0  0.61731  0.91746  0.66273  1.0000
  C   C346      1.0  0.74874  0.96126  0.63502  1.0000
  H   H342      1.0  0.79154  0.56595  0.49350  1.0000
  H   H343      1.0  0.62511  0.68492  0.66107  1.0000
  C   C347      1.0  0.82004  0.52046  0.47805  1.0000
  N   N30       1.0  0.79956  0.56755  0.44755  1.0000
  H   H344      1.0  0.61466  0.68079  0.59003  1.0000
  C   C348      1.0  0.54918  0.74063  0.57953  1.0000
  C   C349      1.0  0.78034  0.60089  0.44383  1.0000
  H   H345      1.0  0.52071  0.74179  0.57807  1.0000
  C   C350      1.0  0.69642  0.98727  0.61360  1.0000
  S   S122      1.0  0.65945  0.55565  0.34912  1.0000
  C   C351      1.0  0.62667  0.74207  0.65718  1.0000
  H   H346      1.0  0.97439  0.53666  0.66552  1.0000
  H   H347      1.0  0.93806  0.78343  0.42654  1.0000
  C   C352      1.0  0.73600  0.62466  0.37486  1.0000
  C   C353      1.0  0.52930  0.73447  0.34934  1.0000
  C   C354      1.0  0.97713  0.50738  0.66630  1.0000
  H   H348      1.0  0.61823  0.53192  0.50032  1.0000
  H   H349      1.0  0.65511  0.74342  0.65814  1.0000
  H   H350      1.0  0.73748  0.65147  0.38338  1.0000
  C   C355      1.0  0.60974  0.70887  0.65881  1.0000
  C   C356      1.0  0.51604  0.91996  0.51816  1.0000
  S   S123      1.0  0.50558  0.88105  0.56890  1.0000
  H   H351      1.0  0.52601  0.80311  0.56354  1.0000
  H   H352      1.0  0.53530  0.78611  0.41304  1.0000
  H   H353      1.0  0.78844  0.55865  0.34869  1.0000
  C   C357      1.0  0.50763  0.92940  0.48934  1.0000
  S   S124      1.0  0.90501  0.65228  0.36316  1.0000
  H   H354      1.0  0.52296  0.94962  0.47858  1.0000
  S   S125      1.0  0.65114  0.98608  0.60457  1.0000
  C   C358      1.0  0.70288  0.60851  0.37111  1.0000
  C   C359      1.0  0.99406  0.79109  0.42194  1.0000
  H   H355      1.0  0.91971  0.96373  0.48626  1.0000
  H   H356      1.0  0.95802  0.78632  0.35208  1.0000
  H   H357      1.0  0.79505  0.61890  0.42910  1.0000
  H   H358      1.0  0.51646  0.61296  0.51057  1.0000
  C   C360      1.0  0.56540  0.70771  0.58336  1.0000
  C   C361      1.0  0.93794  0.00047  0.51927  1.0000
  H   H359      1.0  0.77717  0.52017  0.60750  1.0000
  C   C362      1.0  0.76480  0.57239  0.35554  1.0000
  C   C363      1.0  0.57035  0.77132  0.65277  1.0000
  Fe  Fe64      1.0  0.56493  0.53447  0.66932  1.0000
  S   S126      1.0  0.56821  0.70904  0.34650  1.0000
  C   C364      1.0  0.96620  0.73012  0.35355  1.0000
  H   H360      1.0  0.84351  0.50601  0.40768  1.0000
  C   C365      1.0  0.53013  0.77096  0.34352  1.0000
  H   H361      1.0  0.00000  0.68831  0.42388  1.0000
  C   C366      1.0  0.99827  0.71693  0.42323  1.0000
  H   H362      1.0  0.99616  0.91484  0.50754  1.0000
  H   H363      1.0  0.82346  0.50926  0.49952  1.0000
  C   C367      1.0  0.97356  0.50566  0.61318  1.0000
  H   H364      1.0  0.72994  0.53023  0.34165  1.0000
  C   C368      1.0  0.58882  0.84698  0.71541  1.0000
  H   H365      1.0  0.53299  0.63365  0.71752  1.0000
  H   H366      1.0  0.89213  0.98118  0.79264  1.0000
  N   N31       1.0  0.56178  0.86396  0.72943  1.0000
  C   C369      1.0  0.86706  0.98248  0.69448  1.0000
  H   H367      1.0  0.65777  0.89446  0.74237  1.0000
  H   H368      1.0  0.60127  0.97986  0.71205  1.0000
  S   S127      1.0  0.53082  0.94953  0.70454  1.0000
  C   C370      1.0  0.92450  0.99898  0.71458  1.0000
  C   C371      1.0  0.52517  0.85407  0.72328  1.0000
  C   C372      1.0  0.51038  0.59475  0.74630  1.0000
  C   C373      1.0  0.87962  0.97952  0.74676  1.0000
  H   H369      1.0  0.64500  0.84412  0.70854  1.0000
  C   C374      1.0  0.62374  0.85739  0.72012  1.0000
  C   C375      1.0  0.56856  0.89149  0.74819  1.0000
  H   H370      1.0  0.84468  0.96443  0.69929  1.0000
  H   H371      1.0  0.85280  0.97079  0.75054  1.0000
  C   C376      1.0  0.90178  0.98510  0.77066  1.0000
  S   S128      1.0  0.59503  0.57833  0.69171  1.0000
  H   H372      1.0  0.56232  0.51184  0.74435  1.0000
  C   C377      1.0  0.51444  0.61187  0.71974  1.0000
  C   C378      1.0  0.55004  0.97680  0.73192  1.0000
  C   C379      1.0  0.98702  0.51715  0.94890  1.0000
  N   N32       1.0  0.89120  0.98625  0.71915  1.0000
  C   C380      1.0  0.63086  0.88561  0.73905  1.0000
  C   C381      1.0  0.58496  0.98833  0.73013  1.0000
  C   C382      1.0  0.60313  0.90280  0.75325  1.0000
  H   H373      1.0  0.60819  0.92528  0.76758  1.0000
  H   H374      1.0  0.54704  0.90565  0.75863  1.0000
  H   H375      1.0  0.58356  0.82553  0.70017  1.0000
  H   H376      1.0  0.77245  0.54703  0.67527  1.0000
  H   H377      1.0  0.50956  0.85312  0.74371  1.0000
  H   H378      1.0  0.51316  0.87406  0.70869  1.0000
  C   C383      1.0  0.93581  0.99794  0.76618  1.0000
  H   H379      1.0  0.88077  0.97130  0.67509  1.0000
  H   H380      1.0  0.96971  0.51623  0.96769  1.0000
  H   H381      1.0  0.52583  0.60300  0.76500  1.0000
  H   H382      1.0  0.50234  0.97899  0.75742  1.0000
  C   C384      1.0  0.52936  0.98791  0.75573  1.0000
  H   H383      1.0  0.52327  0.82762  0.71252  1.0000
  H   H384      1.0  0.95266  0.00385  0.78464  1.0000
