data_image0
_chemical_formula_structural       FeCS2H2SNSFeHS2HCH2S2CHC6H4C6H6C3H2C6H4C6H3SH4CHSC2HC3HSCHCSC4HC2SHC2NSHCSHFeCFeSHCH2SHFeHCH2CNHCFeHSCSCSH2SHSC6SH2CHC6H5CHC3H2NS2CHC2HC3HFeC3SH3SC7H4C2FeSH4NCHCHSH2S2HFeSH2C3FeS3H4FeCHCHCH2CNCFeH3SH5SC2HS3CH2FeC2SHCH3C6H4C6H3S2H2C3H2C6H4C6H6CNHSCH3SHFeCH2SH2NCNSC3FeHCHFe2HCHSCHCHSFeCH2CFeC2SCHNH2C2HCS2HFeS2CHSC3FeS2NFeS3CFeS2Fe2S2CFeCSNHFeSCFeH2C6H4SC4H3C6HCH2C6H4C6H4CH2SHC2H2CNHSH2CSC2H2C2HCFeHC2H3NC2H2SH3SC2HCHNCHC2H4C3H2FeNH2C2H2C2SCHFeHNCH2CH2C2H2C2SH2CFeHC2H5CH4CH2SHFeSHCFeS2HFeH2SCFeSCFeS3HC6H4C7H4C3H3FeS2HFeCSCFeSCSHSFeS2FeSCHC3H4NC6H5C6HFeSC2HCFeCSCHC2NHC2H2SHC3HSCHNH3CHCHC6H2CSNH2FeHNC2HNHFeCHCH3CHCHCH3NC3HCHCHCSH2C3H4CH5CNC4HC4FeS2CFeS2CSC2SHCFeS2Fe2SCSHFeS2HFeS2FeSCFeSHCFeS2FeS2C6H4C6H4C6HCH2C6H4NHFeC2NH2CFeH3SHSHC2H2C5H2CH3NCH2CSH2CH2CHC3H4CSH2CHCH2SHCH2CFeC2H2CHFeH3SFeH3CH4NHC2H2CNCHC2S2C4H2SCHFeSC2FeS2NHFeCSCFeS2Fe2SHS2HCSFeS2HFeSHSHCS2FeS2C6H4CH2C2HCNC6H3CHC2FeHC6H4C6H4SCHC2HCH2N2HFeC2H2C6H2CFeC2HC2H6FeH2NHCHCH2C3H5CHC2HSH2SHCHCSCNHCNC2HSH3CFeCHCNCH2CNHCNHCH2FeCFe2H4FeSCFeHSCSH2CFeS2FeS2HFeNSHCSFeSCH2C3H2C6H4C6H4FeSC2FeSHSFeSH2FeSHS4FeSC6H4C3H2CSC6HSCSCFeHC2HNHC2H7N2CHC2HNHCHC2SHFeH2FeCHC3HC2H2SHCH2CHCH3SCH6C2NHC2HSHNHSC2HC2SNH3C3H3FeCHC2H4CFeHC2NFeC2FeS2HCFeSHSNCFeS3FeS2CHCFeSHSFeCS2CHSHSHFeS2FeS2C6H4C6H4CHC2HC6H4C2FeSNH3C6H3CH4CH2SFeNHC2FeHCHFeHSH2NHCH2CHC3H5C3HCHCH2C3HC2NHCH3C2SHC2FeC3HCH4CH3C3NC2HCHCFeCH6C2SHCHCFeSH4NHCHFeH2SHSCFeS3HCHCNC2SCFeSH2SCFeH2SHSC2H2C6H4C6H4CHSHSFeH2C9H4C4FeHCH3CFeH4CSCH2SH2CH3SHCSC2HSNH3CSH2C3HSHSCHSHSC3H2C6H4C4NCH2SH2FeHCSCS3C4H3CHC6H2C5H3CH5S2FeCH2CSH2FeN2HSC2H2CFeHC2S2HCHCH3CH4CSHCH3SCFeCH2CH2SCH2C2HCFeCH2S2H2CSHSC2SHSCSCS2H5CHC6H2CHC6H4C4FeH3SC6H4C4H2CSH3SHSH2CNCS2H2FeCHFeHCHCHC2NCHC2HFeCH6CSC3H3NHCH
_chemical_formula_sum              "Fe128 C768 S256 H768 N64"
_cell_length_a       31.7977
_cell_length_b       30.837
_cell_length_c       44.1015
_cell_angle_alpha    90.4133
_cell_angle_beta     90.4161
_cell_angle_gamma    90.0379

_space_group_name_H-M_alt    "P 1"
_space_group_IT_number       1

loop_
  _space_group_symop_operation_xyz
  'x, y, z'

loop_
  _atom_site_type_symbol
  _atom_site_label
  _atom_site_symmetry_multiplicity
  _atom_site_fract_x
  _atom_site_fract_y
  _atom_site_fract_z
  _atom_site_occupancy
  Fe  Fe1       1.0  0.27195  0.53591  0.14582  1.0000
  C   C1        1.0  0.19669  0.04730  0.11131  1.0000
  S   S1        1.0  0.06016  0.24718  0.24375  1.0000
  S   S2        1.0  0.32640  0.07946  0.17225  1.0000
  H   H1        1.0  0.51656  0.45074  0.30609  1.0000
  H   H2        1.0  0.11612  0.31971  0.26413  1.0000
  S   S3        1.0  0.47149  0.19634  0.22926  1.0000
  N   N1        1.0  0.43239  0.39816  0.33453  1.0000
  S   S4        1.0  0.46311  0.38935  0.14334  1.0000
  Fe  Fe2       1.0  0.23575  0.53630  0.33640  1.0000
  H   H3        1.0  0.09753  0.20338  0.05685  1.0000
  S   S5        1.0  0.15518  0.51378  0.06786  1.0000
  S   S6        1.0  0.29871  0.49219  0.18208  1.0000
  H   H4        1.0  0.17017  0.17834  0.06832  1.0000
  C   C2        1.0  0.15621  0.37628  0.26458  1.0000
  H   H5        1.0  0.19598  0.43169  0.25788  1.0000
  H   H6        1.0  0.36921  0.42154  0.33451  1.0000
  S   S7        1.0  0.18261  0.09675  0.28826  1.0000
  S   S8        1.0  0.21445  0.06539  0.20345  1.0000
  C   C3        1.0  0.15115  0.16089  0.05186  1.0000
  H   H7        1.0  0.41234  0.33274  0.33122  1.0000
  C   C4        1.0  0.41760  0.41770  0.15483  1.0000
  C   C5        1.0  0.39876  0.44689  0.13462  1.0000
  C   C6        1.0  0.36270  0.47024  0.14300  1.0000
  C   C7        1.0  0.34483  0.46418  0.17155  1.0000
  C   C8        1.0  0.36384  0.43527  0.19190  1.0000
  C   C9        1.0  0.40021  0.41215  0.18361  1.0000
  H   H8        1.0  0.41187  0.45131  0.11229  1.0000
  H   H9        1.0  0.34863  0.49270  0.12724  1.0000
  H   H10       1.0  0.35027  0.43050  0.21405  1.0000
  H   H11       1.0  0.41448  0.38981  0.19937  1.0000
  C   C10       1.0  0.36552  0.11325  0.18840  1.0000
  C   C11       1.0  0.38583  0.14410  0.17035  1.0000
  C   C12       1.0  0.41777  0.17069  0.18268  1.0000
  C   C13       1.0  0.43008  0.16583  0.21298  1.0000
  C   C14       1.0  0.41005  0.13466  0.23087  1.0000
  C   C15       1.0  0.37765  0.10874  0.21873  1.0000
  H   H12       1.0  0.37671  0.14762  0.14681  1.0000
  H   H13       1.0  0.43322  0.19445  0.16867  1.0000
  H   H14       1.0  0.41950  0.13071  0.25430  1.0000
  H   H15       1.0  0.36251  0.08495  0.23277  1.0000
  H   H16       1.0  0.06345  0.38753  0.05401  1.0000
  H   H17       1.0  0.20803  0.46291  0.20863  1.0000
  C   C16       1.0  0.14613  0.47821  0.31748  1.0000
  C   C17       1.0  0.11409  0.46361  0.29786  1.0000
  C   C18       1.0  0.08141  0.43730  0.30871  1.0000
  H   H18       1.0  0.11436  0.47291  0.27425  1.0000
  H   H19       1.0  0.05660  0.42652  0.29352  1.0000
  C   C19       1.0  0.09321  0.20454  0.25619  1.0000
  C   C20       1.0  0.12186  0.18585  0.23588  1.0000
  C   C21       1.0  0.14907  0.15248  0.24533  1.0000
  C   C22       1.0  0.14805  0.13772  0.27526  1.0000
  C   C23       1.0  0.11921  0.15622  0.29550  1.0000
  C   C24       1.0  0.09170  0.18925  0.28596  1.0000
  H   H20       1.0  0.12332  0.19740  0.21281  1.0000
  H   H21       1.0  0.17139  0.13894  0.22958  1.0000
  H   H22       1.0  0.11807  0.14508  0.31868  1.0000
  H   H23       1.0  0.06948  0.20288  0.30176  1.0000
  C   C25       1.0  0.08445  0.39325  0.10035  1.0000
  C   C26       1.0  0.10906  0.41746  0.12092  1.0000
  C   C27       1.0  0.13149  0.45415  0.11119  1.0000
  C   C28       1.0  0.12879  0.46720  0.08091  1.0000
  C   C29       1.0  0.10387  0.44316  0.06045  1.0000
  C   C30       1.0  0.08207  0.40611  0.07006  1.0000
  H   H24       1.0  0.11057  0.40795  0.14444  1.0000
  H   H25       1.0  0.15034  0.47272  0.12712  1.0000
  H   H26       1.0  0.10172  0.45309  0.03700  1.0000
  S   S9        1.0  0.51350  0.27634  0.16072  1.0000
  H   H27       1.0  0.15975  0.36296  0.17757  1.0000
  H   H28       1.0  0.49761  0.38254  0.33143  1.0000
  H   H29       1.0  0.19044  0.43577  0.17490  1.0000
  H   H30       1.0  0.52413  0.13312  0.26019  1.0000
  C   C31       1.0  0.20494  0.43048  0.19759  1.0000
  H   H31       1.0  0.46093  0.50592  0.29534  1.0000
  S   S10       1.0  0.05610  0.34772  0.11309  1.0000
  C   C32       1.0  0.16784  0.12444  0.03695  1.0000
  C   C33       1.0  0.06670  0.54407  0.34594  1.0000
  H   H32       1.0  0.30213  0.05269  0.11004  1.0000
  C   C34       1.0  0.48411  0.44486  0.31233  1.0000
  C   C35       1.0  0.11005  0.17517  0.04533  1.0000
  C   C36       1.0  0.08532  0.15277  0.02404  1.0000
  H   H33       1.0  0.11827  0.31126  0.20820  1.0000
  S   S11       1.0  0.03092  0.27918  0.32741  1.0000
  C   C37       1.0  0.17898  0.40535  0.24677  1.0000
  H   H34       1.0  0.23710  0.41709  0.19440  1.0000
  C   C38       1.0  0.13406  0.34244  0.25061  1.0000
  S   S12       1.0  0.47470  0.32289  0.22253  1.0000
  C   C39       1.0  0.41144  0.46698  0.31408  1.0000
  C   C40       1.0  0.50275  0.28905  0.05790  1.0000
  C   C41       1.0  0.49024  0.54507  0.14826  1.0000
  C   C42       1.0  0.13524  0.33775  0.21915  1.0000
  H   H35       1.0  0.15560  0.38009  0.28908  1.0000
  C   C43       1.0  0.15859  0.36719  0.20201  1.0000
  C   C44       1.0  0.50427  0.50256  0.14439  1.0000
  S   S13       1.0  0.03907  0.29757  0.02961  1.0000
  H   H36       1.0  0.46991  0.28612  0.05123  1.0000
  C   C45       1.0  0.45300  0.47554  0.30620  1.0000
  C   C46       1.0  0.47315  0.40607  0.32653  1.0000
  N   N2        1.0  0.17964  0.40077  0.21586  1.0000
  S   S14       1.0  0.21942  0.10722  0.04569  1.0000
  H   H37       1.0  0.48492  0.47912  0.13227  1.0000
  C   C47       1.0  0.24195  0.11043  0.12117  1.0000
  S   S15       1.0  0.27152  0.52033  0.09610  1.0000
  H   H38       1.0  0.52264  0.23474  0.03054  1.0000
  Fe  Fe3       1.0  0.21746  0.05623  0.25359  1.0000
  C   C48       1.0  0.14520  0.46666  0.34805  1.0000
  Fe  Fe4       1.0  0.49477  0.34353  0.17607  1.0000
  S   S16       1.0  0.29991  0.50610  0.33656  1.0000
  H   H39       1.0  0.25850  0.11013  0.33347  1.0000
  C   C49       1.0  0.08011  0.42644  0.33942  1.0000
  H   H40       1.0  0.16934  0.06748  0.11524  1.0000
  H   H41       1.0  0.24617  0.11398  0.14607  1.0000
  S   S17       1.0  0.18608  0.51194  0.30336  1.0000
  H   H42       1.0  0.26999  0.12403  0.10970  1.0000
  Fe  Fe5       1.0  0.49872  0.25715  0.20872  1.0000
  H   H43       1.0  0.49256  0.34405  0.08715  1.0000
  C   C50       1.0  0.42138  0.35696  0.34885  1.0000
  H   H44       1.0  0.51780  0.21612  0.28345  1.0000
  H   H45       1.0  0.21463  0.13008  0.11350  1.0000
  C   C51       1.0  0.40155  0.42776  0.32817  1.0000
  N   N3        1.0  0.23629  0.06459  0.11309  1.0000
  H   H46       1.0  0.38712  0.49072  0.30938  1.0000
  C   C52       1.0  0.51579  0.32168  0.07813  1.0000
  Fe  Fe6       1.0  0.20553  0.54587  0.09671  1.0000
  H   H47       1.0  0.09221  0.04710  0.27027  1.0000
  S   S18       1.0  0.30239  0.51554  0.58317  1.0000
  C   C53       1.0  0.24312  0.54042  0.49999  1.0000
  S   S19       1.0  0.44942  0.22711  0.49224  1.0000
  C   C54       1.0  0.49291  0.29590  0.55446  1.0000
  S   S20       1.0  0.50850  0.39725  0.40233  1.0000
  H   H48       1.0  0.44835  0.34401  0.36222  1.0000
  H   H49       1.0  0.09587  0.19456  0.58021  1.0000
  S   S21       1.0  0.32267  0.46808  0.41944  1.0000
  H   H50       1.0  0.16464  0.16310  0.59574  1.0000
  S   S22       1.0  0.21495  0.09345  0.57022  1.0000
  C   C55       1.0  0.45222  0.16997  0.67495  1.0000
  C   C56       1.0  0.45742  0.41767  0.40855  1.0000
  C   C57       1.0  0.42817  0.39456  0.42560  1.0000
  C   C58       1.0  0.38697  0.41042  0.42890  1.0000
  C   C59       1.0  0.37459  0.44910  0.41483  1.0000
  C   C60       1.0  0.40393  0.47238  0.39794  1.0000
  S   S23       1.0  0.52499  0.32132  0.47318  1.0000
  H   H51       1.0  0.43716  0.36428  0.43608  1.0000
  H   H52       1.0  0.36446  0.39232  0.44206  1.0000
  C   C61       1.0  0.29915  0.14530  0.62008  1.0000
  H   H53       1.0  0.37499  0.46984  0.48375  1.0000
  C   C62       1.0  0.42154  0.18039  0.48012  1.0000
  C   C63       1.0  0.43021  0.16001  0.45240  1.0000
  C   C64       1.0  0.40747  0.12281  0.44342  1.0000
  C   C65       1.0  0.37592  0.10580  0.46203  1.0000
  C   C66       1.0  0.36736  0.12609  0.48977  1.0000
  C   C67       1.0  0.39014  0.16321  0.49877  1.0000
  H   H54       1.0  0.45432  0.17299  0.43785  1.0000
  H   H55       1.0  0.41423  0.10739  0.42190  1.0000
  H   H56       1.0  0.34304  0.11340  0.50425  1.0000
  H   H57       1.0  0.38321  0.17885  0.52019  1.0000
  H   H58       1.0  0.07533  0.30030  0.67444  1.0000
  C   C68       1.0  0.51154  0.52822  0.67476  1.0000
  H   H59       1.0  0.23262  0.47267  0.50880  1.0000
  C   C69       1.0  0.16631  0.11630  0.55916  1.0000
  C   C70       1.0  0.10657  0.11861  0.52455  1.0000
  C   C71       1.0  0.14510  0.10044  0.53349  1.0000
  H   H60       1.0  0.09081  0.10655  0.50436  1.0000
  H   H61       1.0  0.15826  0.07406  0.52044  1.0000
  N   N4        1.0  0.27796  0.15167  0.64919  1.0000
  S   S24       1.0  0.07519  0.35521  0.61704  1.0000
  S   S25       1.0  0.03870  0.17206  0.53029  1.0000
  C   C72       1.0  0.44148  0.41464  0.67287  1.0000
  H   H62       1.0  0.47151  0.26943  0.54915  1.0000
  C   C73       1.0  0.08846  0.15234  0.54142  1.0000
  C   C74       1.0  0.11198  0.44131  0.35904  1.0000
  H   H63       1.0  0.05034  0.05172  0.54908  1.0000
  C   C75       1.0  0.10957  0.16842  0.56711  1.0000
  C   C76       1.0  0.14844  0.15038  0.57597  1.0000
  C   C77       1.0  0.46546  0.42966  0.64865  1.0000
  H   H64       1.0  0.28650  0.11628  0.60803  1.0000
  Fe  Fe7       1.0  0.23572  0.53940  0.58626  1.0000
  C   C78       1.0  0.38516  0.46524  0.65974  1.0000
  C   C79       1.0  0.40883  0.47961  0.63516  1.0000
  C   C80       1.0  0.44896  0.46212  0.62982  1.0000
  S   S26       1.0  0.36000  0.07835  0.67490  1.0000
  H   H65       1.0  0.21812  0.13209  0.63166  1.0000
  H   H66       1.0  0.39662  0.50490  0.62068  1.0000
  H   H67       1.0  0.46748  0.47424  0.61122  1.0000
  S   S27       1.0  0.52849  0.28331  0.64250  1.0000
  C   C81       1.0  0.23573  0.14381  0.65126  1.0000
  C   C82       1.0  0.10470  0.39771  0.60085  1.0000
  C   C83       1.0  0.13626  0.41824  0.61818  1.0000
  C   C84       1.0  0.16011  0.45233  0.60597  1.0000
  C   C85       1.0  0.15233  0.46635  0.57637  1.0000
  C   C86       1.0  0.12060  0.44601  0.55909  1.0000
  C   C87       1.0  0.09693  0.41175  0.57123  1.0000
  H   H68       1.0  0.14250  0.40756  0.64108  1.0000
  H   H69       1.0  0.18445  0.46771  0.61951  1.0000
  H   H70       1.0  0.11434  0.45663  0.53617  1.0000
  H   H71       1.0  0.07261  0.39628  0.55770  1.0000
  C   C88       1.0  0.30001  0.16732  0.67370  1.0000
  C   C89       1.0  0.40158  0.43266  0.67852  1.0000
  Fe  Fe8       1.0  0.29926  0.51872  0.38664  1.0000
  S   S28       1.0  0.23366  0.06326  0.48482  1.0000
  H   H72       1.0  0.49143  0.40050  0.57926  1.0000
  H   H73       1.0  0.30664  0.45222  0.49920  1.0000
  H   H74       1.0  0.41488  0.13521  0.64164  1.0000
  H   H75       1.0  0.29420  0.17408  0.60548  1.0000
  N   N5        1.0  0.24042  0.05480  0.35940  1.0000
  C   C90       1.0  0.25540  0.49717  0.50242  1.0000
  H   H76       1.0  0.33347  0.13985  0.62330  1.0000
  C   C91       1.0  0.44532  0.45687  0.39506  1.0000
  H   H77       1.0  0.04643  0.22900  0.47634  1.0000
  S   S29       1.0  0.33621  0.48915  0.66847  1.0000
  H   H78       1.0  0.38913  0.51774  0.50552  1.0000
  H   H79       1.0  0.39478  0.50238  0.38718  1.0000
  S   S30       1.0  0.04127  0.29991  0.53868  1.0000
  S   S31       1.0  0.34788  0.05906  0.45015  1.0000
  H   H80       1.0  0.46882  0.18905  0.65838  1.0000
  Fe  Fe9       1.0  0.49829  0.25567  0.46125  1.0000
  S   S32       1.0  0.51740  0.41154  0.64252  1.0000
  H   H81       1.0  0.23270  0.06040  0.40734  1.0000
  H   H82       1.0  0.38282  0.51991  0.46461  1.0000
  C   C92       1.0  0.24251  0.10185  0.35504  1.0000
  C   C93       1.0  0.47642  0.33570  0.56404  1.0000
  C   C94       1.0  0.29734  0.48590  0.49719  1.0000
  Fe  Fe10      1.0  0.52460  0.33222  0.42290  1.0000
  S   S33       1.0  0.18053  0.51007  0.56056  1.0000
  S   S34       1.0  0.49266  0.26902  0.41136  1.0000
  S   S35       1.0  0.03712  0.39808  0.35453  1.0000
  H   H83       1.0  0.05195  0.29518  0.44502  1.0000
  H   H84       1.0  0.16976  0.47765  0.36334  1.0000
  H   H85       1.0  0.07763  0.52527  0.58238  1.0000
  H   H86       1.0  0.11099  0.43316  0.38287  1.0000
  Fe  Fe11      1.0  0.30646  0.53189  0.63279  1.0000
  C   C95       1.0  0.37055  0.50548  0.48579  1.0000
  H   H87       1.0  0.33336  0.17417  0.67198  1.0000
  C   C96       1.0  0.42165  0.13946  0.66555  1.0000
  H   H88       1.0  0.44271  0.33997  0.56619  1.0000
  C   C97       1.0  0.50374  0.36970  0.57126  1.0000
  H   H89       1.0  0.52272  0.49512  0.67698  1.0000
  H   H90       1.0  0.46782  0.47494  0.38187  1.0000
  C   C98       1.0  0.21469  0.15063  0.67866  1.0000
  N   N6        1.0  0.32616  0.51691  0.48963  1.0000
  C   C99       1.0  0.47127  0.53861  0.68521  1.0000
  Fe  Fe12      1.0  0.23892  0.04757  0.53427  1.0000
  H   H91       1.0  0.26036  0.11783  0.37380  1.0000
  H   H92       1.0  0.07778  0.52772  0.36615  1.0000
  H   H93       1.0  0.18120  0.14435  0.68028  1.0000
  S   S36       1.0  0.23247  0.54377  0.38716  1.0000
  H   H94       1.0  0.39504  0.36135  0.36504  1.0000
  H   H95       1.0  0.21016  0.11547  0.35398  1.0000
  H   H96       1.0  0.29800  0.18496  0.72118  1.0000
  H   H97       1.0  0.26545  0.44770  0.81484  1.0000
  H   H98       1.0  0.32983  0.47331  0.98339  1.0000
  S   S37       1.0  0.49882  0.21333  0.71930  1.0000
  C   C100      1.0  0.35850  0.39382  0.81306  1.0000
  C   C101      1.0  0.23365  0.49801  0.01139  1.0000
  H   H99       1.0  0.23682  0.44656  0.86403  1.0000
  S   S38       1.0  0.47358  0.21633  0.97777  1.0000
  S   S39       1.0  0.25414  0.05580  0.96721  1.0000
  S   S40       1.0  0.19057  0.51054  0.82171  1.0000
  C   C102      1.0  0.14310  0.10215  0.01561  1.0000
  H   H100      1.0  0.09095  0.31685  0.97028  1.0000
  H   H101      1.0  0.35336  0.09385  0.85296  1.0000
  Fe  Fe13      1.0  0.51493  0.24272  0.94072  1.0000
  C   C103      1.0  0.28015  0.17375  0.70157  1.0000
  C   C104      1.0  0.05899  0.32112  0.69133  1.0000
  S   S41       1.0  0.20838  0.11559  0.78026  1.0000
  H   H102      1.0  0.07339  0.24233  0.96783  1.0000
  C   C105      1.0  0.52177  0.10194  0.00309  1.0000
  H   H103      1.0  0.37234  0.05367  0.87849  1.0000
  H   H104      1.0  0.46231  0.06896  0.00216  1.0000
  H   H105      1.0  0.20440  0.48287  0.01818  1.0000
  C   C106      1.0  0.45609  0.39682  0.88016  1.0000
  C   C107      1.0  0.43707  0.38360  0.90702  1.0000
  C   C108      1.0  0.40283  0.40694  0.91872  1.0000
  C   C109      1.0  0.38726  0.44357  0.90365  1.0000
  C   C110      1.0  0.40638  0.45708  0.87686  1.0000
  C   C111      1.0  0.44079  0.43373  0.86517  1.0000
  H   H106      1.0  0.44847  0.35511  0.91866  1.0000
  H   H107      1.0  0.38814  0.39626  0.93943  1.0000
  H   H108      1.0  0.39455  0.48526  0.86508  1.0000
  H   H109      1.0  0.45538  0.44408  0.84435  1.0000
  C   C112      1.0  0.44446  0.16922  0.96863  1.0000
  C   C113      1.0  0.45387  0.14439  0.94289  1.0000
  C   C114      1.0  0.43166  0.10580  0.93685  1.0000
  C   C115      1.0  0.39959  0.09205  0.95627  1.0000
  C   C116      1.0  0.38976  0.11716  0.98178  1.0000
  C   C117      1.0  0.41242  0.15544  0.98807  1.0000
  H   H110      1.0  0.47870  0.15457  0.92788  1.0000
  H   H111      1.0  0.43956  0.08646  0.91714  1.0000
  H   H112      1.0  0.36512  0.10680  0.99691  1.0000
  S   S42       1.0  0.23998  0.52395  0.90428  1.0000
  S   S43       1.0  0.34269  0.46998  0.91854  1.0000
  H   H113      1.0  0.26537  0.42270  0.89467  1.0000
  H   H114      1.0  0.40496  0.17450  0.00801  1.0000
  C   C118      1.0  0.46115  0.17564  0.70585  1.0000
  C   C119      1.0  0.43966  0.15049  0.72713  1.0000
  C   C120      1.0  0.40908  0.12030  0.71776  1.0000
  H   H115      1.0  0.44652  0.15460  0.75105  1.0000
  H   H116      1.0  0.39295  0.10125  0.73447  1.0000
  C   C121      1.0  0.10307  0.40220  0.85418  1.0000
  C   C122      1.0  0.12149  0.43094  0.87522  1.0000
  C   C123      1.0  0.14820  0.46436  0.86552  1.0000
  C   C124      1.0  0.15712  0.46898  0.83470  1.0000
  C   C125      1.0  0.13874  0.44027  0.81365  1.0000
  C   C126      1.0  0.11178  0.40702  0.82334  1.0000
  H   H117      1.0  0.11477  0.42759  0.89911  1.0000
  H   H118      1.0  0.16141  0.48680  0.88192  1.0000
  H   H119      1.0  0.14547  0.44358  0.78976  1.0000
  H   H120      1.0  0.09831  0.38476  0.80696  1.0000
  C   C127      1.0  0.08979  0.19067  0.75314  1.0000
  C   C128      1.0  0.10476  0.15752  0.73402  1.0000
  C   C129      1.0  0.14067  0.13337  0.74220  1.0000
  C   C130      1.0  0.16193  0.14275  0.76936  1.0000
  C   C131      1.0  0.14675  0.17573  0.78840  1.0000
  C   C132      1.0  0.11082  0.19953  0.78038  1.0000
  H   H121      1.0  0.08847  0.15037  0.71295  1.0000
  H   H122      1.0  0.15187  0.10758  0.72761  1.0000
  H   H123      1.0  0.16309  0.18318  0.80942  1.0000
  H   H124      1.0  0.09988  0.22520  0.79513  1.0000
  H   H125      1.0  0.27985  0.09571  0.83825  1.0000
  H   H126      1.0  0.45154  0.51381  0.69514  1.0000
  C   C133      1.0  0.04841  0.24958  0.95174  1.0000
  N   N7        1.0  0.29069  0.40979  0.85099  1.0000
  H   H127      1.0  0.36079  0.54138  0.96409  1.0000
  S   S44       1.0  0.31349  0.07707  0.75814  1.0000
  C   C134      1.0  0.29126  0.42743  0.82260  1.0000
  H   H128      1.0  0.38301  0.35518  0.84971  1.0000
  H   H129      1.0  0.06169  0.48467  0.80954  1.0000
  H   H130      1.0  0.32254  0.36997  0.88318  1.0000
  S   S45       1.0  0.04473  0.22059  0.74271  1.0000
  H   H131      1.0  0.38343  0.42144  0.69758  1.0000
  Fe  Fe14      1.0  0.31845  0.05006  0.71128  1.0000
  C   C135      1.0  0.07203  0.32556  0.94997  1.0000
  H   H132      1.0  0.23299  0.38900  0.86988  1.0000
  H   H133      1.0  0.38539  0.38813  0.79853  1.0000
  S   S46       1.0  0.49778  0.36681  0.86427  1.0000
  H   H134      1.0  0.08302  0.09874  0.99273  1.0000
  H   H135      1.0  0.26357  0.43787  0.99890  1.0000
  N   N8        1.0  0.30821  0.53713  0.99362  1.0000
  C   C136      1.0  0.10191  0.11620  0.00927  1.0000
  N   N9        1.0  0.04290  0.29080  0.94105  1.0000
  S   S47       1.0  0.06978  0.36057  0.86727  1.0000
  C   C137      1.0  0.32532  0.42002  0.80330  1.0000
  C   C138      1.0  0.26678  0.47280  0.00054  1.0000
  C   C139      1.0  0.30414  0.49303  0.99181  1.0000
  Fe  Fe15      1.0  0.30935  0.52562  0.89545  1.0000
  H   H136      1.0  0.15571  0.07405  0.00398  1.0000
  C   C140      1.0  0.35711  0.37517  0.84175  1.0000
  H   H137      1.0  0.09355  0.33262  0.93086  1.0000
  Fe  Fe16      1.0  0.24427  0.06456  0.75404  1.0000
  Fe  Fe17      1.0  0.52352  0.31046  0.89141  1.0000
  H   H138      1.0  0.45404  0.38985  0.68763  1.0000
  C   C141      1.0  0.34553  0.07586  0.87390  1.0000
  H   H139      1.0  0.32601  0.43457  0.78097  1.0000
  S   S48       1.0  0.49758  0.24259  0.89127  1.0000
  C   C142      1.0  0.32282  0.38366  0.86058  1.0000
  H   H140      1.0  0.06123  0.30581  0.71402  1.0000
  C   C143      1.0  0.25466  0.41725  0.87087  1.0000
  H   H141      1.0  0.05427  0.35558  0.95557  1.0000
  S   S49       1.0  0.03355  0.16948  0.01543  1.0000
  Fe  Fe18      1.0  0.23355  0.54372  0.85574  1.0000
  C   C144      1.0  0.23721  0.16543  0.70399  1.0000
  H   H142      1.0  0.22148  0.17051  0.72548  1.0000
  H   H143      1.0  0.34267  0.09876  0.89335  1.0000
  C   C145      1.0  0.04812  0.50777  0.82529  1.0000
  Fe  Fe19      1.0  0.24536  0.05203  0.01752  1.0000
  C   C146      1.0  0.49455  0.06835  0.99431  1.0000
  C   C147      1.0  0.23835  0.54286  0.01368  1.0000
  S   S50       1.0  0.30292  0.54122  0.84591  1.0000
  C   C148      1.0  0.27526  0.06641  0.85128  1.0000
  H   H144      1.0  0.07585  0.35266  0.69243  1.0000
  N   N10       1.0  0.30634  0.05129  0.87008  1.0000
  H   H145      1.0  0.21254  0.05622  0.83343  1.0000
  H   H146      1.0  0.51059  0.12823  0.01739  1.0000
  C   C149      1.0  0.39973  0.11484  0.68698  1.0000
  C   C150      1.0  0.07088  0.54518  0.83302  1.0000
  H   H147      1.0  0.36483  0.86375  0.23523  1.0000
  C   C151      1.0  0.04899  0.82082  0.17274  1.0000
  S   S51       1.0  0.29647  0.60339  0.13978  1.0000
  S   S52       1.0  0.34662  0.60225  0.05905  1.0000
  H   H148      1.0  0.31589  0.86891  0.21489  1.0000
  Fe  Fe20      1.0  0.22841  0.62275  0.13682  1.0000
  S   S53       1.0  0.20888  0.68632  0.15875  1.0000
  S   S54       1.0  0.22502  0.61444  0.08609  1.0000
  C   C152      1.0  0.11458  0.01328  0.30958  1.0000
  H   H149      1.0  0.50401  0.91345  0.30415  1.0000
  S   S55       1.0  0.37970  0.58620  0.30278  1.0000
  C   C153      1.0  0.37867  0.94300  0.21759  1.0000
  C   C154      1.0  0.12210  0.97284  0.32256  1.0000
  C   C155      1.0  0.47105  0.75381  0.07536  1.0000
  Fe  Fe21      1.0  0.48003  0.83396  0.15383  1.0000
  S   S56       1.0  0.47467  0.84688  0.20384  1.0000
  S   S57       1.0  0.46601  0.88551  0.11905  1.0000
  N   N11       1.0  0.50267  0.82131  0.06088  1.0000
  Fe  Fe22      1.0  0.45144  0.77816  0.20658  1.0000
  S   S58       1.0  0.39366  0.76599  0.23501  1.0000
  S   S59       1.0  0.28698  0.04133  0.25478  1.0000
  S   S60       1.0  0.45141  0.76773  0.15611  1.0000
  C   C156      1.0  0.06910  0.98120  0.23413  1.0000
  Fe  Fe23      1.0  0.26754  0.97189  0.24784  1.0000
  S   S61       1.0  0.26731  0.97422  0.19672  1.0000
  S   S62       1.0  0.29069  0.91261  0.27316  1.0000
  Fe  Fe24      1.0  0.28047  0.96031  0.02109  1.0000
  Fe  Fe25      1.0  0.19975  0.99439  0.20084  1.0000
  S   S63       1.0  0.14164  0.97837  0.17328  1.0000
  S   S64       1.0  0.19853  0.98634  0.25120  1.0000
  C   C157      1.0  0.07561  0.78762  0.16277  1.0000
  Fe  Fe26      1.0  0.06130  0.80261  0.06434  1.0000
  C   C158      1.0  0.50495  0.78274  0.07597  1.0000
  S   S65       1.0  0.12065  0.80854  0.09286  1.0000
  N   N12       1.0  0.36435  0.91013  0.19924  1.0000
  H   H150      1.0  0.43427  0.77454  0.29552  1.0000
  Fe  Fe27      1.0  0.08317  0.81079  0.33487  1.0000
  S   S66       1.0  0.08251  0.81358  0.28398  1.0000
  C   C159      1.0  0.46579  0.78704  0.29906  1.0000
  Fe  Fe28      1.0  0.51789  0.74434  0.16317  1.0000
  H   H151      1.0  0.34944  0.68206  0.19621  1.0000
  H   H152      1.0  0.06162  0.84824  0.18540  1.0000
  C   C160      1.0  0.13682  0.93074  0.15132  1.0000
  C   C161      1.0  0.16832  0.89914  0.15082  1.0000
  C   C162      1.0  0.16318  0.86172  0.13272  1.0000
  C   C163      1.0  0.12676  0.85600  0.11491  1.0000
  C   C164      1.0  0.09543  0.88769  0.11541  1.0000
  C   C165      1.0  0.10039  0.92485  0.13365  1.0000
  H   H153      1.0  0.19650  0.90350  0.16440  1.0000
  H   H154      1.0  0.18746  0.83719  0.13261  1.0000
  H   H155      1.0  0.06734  0.88368  0.10172  1.0000
  H   H156      1.0  0.07599  0.94930  0.13387  1.0000
  S   S67       1.0  0.03824  0.73514  0.05372  1.0000
  C   C166      1.0  0.21928  0.82414  0.02177  1.0000
  C   C167      1.0  0.34491  0.87132  0.31191  1.0000
  C   C168      1.0  0.33471  0.91070  0.29778  1.0000
  C   C169      1.0  0.36016  0.94700  0.30298  1.0000
  H   H157      1.0  0.12130  0.72950  0.13547  1.0000
  H   H158      1.0  0.11818  0.90351  0.31605  1.0000
  H   H159      1.0  0.35256  0.97752  0.29232  1.0000
  C   C170      1.0  0.41772  0.88780  0.09934  1.0000
  C   C171      1.0  0.41062  0.92218  0.07930  1.0000
  C   C172      1.0  0.37173  0.92657  0.06435  1.0000
  C   C173      1.0  0.33965  0.89651  0.06931  1.0000
  C   C174      1.0  0.34704  0.86148  0.08881  1.0000
  C   C175      1.0  0.38608  0.85699  0.10371  1.0000
  H   H160      1.0  0.43513  0.94592  0.07564  1.0000
  C   C176      1.0  0.43473  0.76455  0.05913  1.0000
  H   H161      1.0  0.32242  0.83790  0.09252  1.0000
  H   H162      1.0  0.39150  0.83007  0.11883  1.0000
  C   C177      1.0  0.38231  0.63572  0.28333  1.0000
  C   C178      1.0  0.35001  0.66638  0.28530  1.0000
  C   C179      1.0  0.35394  0.70645  0.27059  1.0000
  C   C180      1.0  0.38973  0.71565  0.25334  1.0000
  C   C181      1.0  0.42162  0.68470  0.25097  1.0000
  C   C182      1.0  0.41797  0.64493  0.26603  1.0000
  H   H163      1.0  0.32228  0.65946  0.29841  1.0000
  H   H164      1.0  0.32906  0.73026  0.27240  1.0000
  H   H165      1.0  0.44919  0.69135  0.23759  1.0000
  H   H166      1.0  0.44301  0.62128  0.26435  1.0000
  C   C183      1.0  0.16922  0.68643  0.18655  1.0000
  C   C184      1.0  0.14738  0.64863  0.19388  1.0000
  C   C185      1.0  0.11561  0.64986  0.21587  1.0000
  C   C186      1.0  0.10558  0.68879  0.23083  1.0000
  C   C187      1.0  0.12770  0.72655  0.22371  1.0000
  C   C188      1.0  0.15940  0.72534  0.20161  1.0000
  H   H167      1.0  0.15456  0.61851  0.18241  1.0000
  H   H168      1.0  0.09858  0.62052  0.22120  1.0000
  H   H169      1.0  0.12028  0.75669  0.23511  1.0000
  H   H170      1.0  0.17634  0.75470  0.19617  1.0000
  C   C189      1.0  0.35354  0.64959  0.03733  1.0000
  H   H171      1.0  0.07780  0.95286  0.21975  1.0000
  H   H172      1.0  0.24050  0.96076  0.31911  1.0000
  S   S68       1.0  0.05604  0.74363  0.33674  1.0000
  H   H173      1.0  0.08618  0.69104  0.15284  1.0000
  C   C190      1.0  0.19085  0.00354  0.10385  1.0000
  C   C191      1.0  0.35064  0.86901  0.21243  1.0000
  H   H174      1.0  0.39477  0.70183  0.33119  1.0000
  H   H175      1.0  0.32537  0.84307  0.30786  1.0000
  C   C192      1.0  0.23862  0.62015  0.24388  1.0000
  N   N13       1.0  0.06002  0.75343  0.14622  1.0000
  H   H176      1.0  0.03429  0.98195  0.23623  1.0000
  S   S69       1.0  0.31039  0.02595  0.02679  1.0000
  H   H177      1.0  0.24014  0.68439  0.22543  1.0000
  H   H178      1.0  0.07999  0.01052  0.22190  1.0000
  C   C193      1.0  0.25743  0.65439  0.22832  1.0000
  S   S70       1.0  0.28961  0.90304  0.05248  1.0000
  C   C194      1.0  0.03949  0.58591  0.29396  1.0000
  C   C195      1.0  0.52313  0.89187  0.28944  1.0000
  H   H179      1.0  0.39744  0.01939  0.16410  1.0000
  H   H180      1.0  0.40203  0.00895  0.21975  1.0000
  C   C196      1.0  0.09387  0.57251  0.33109  1.0000
  C   C197      1.0  0.26054  0.58131  0.24739  1.0000
  H   H181      1.0  0.40808  0.74256  0.05860  1.0000
  C   C198      1.0  0.46763  0.83155  0.04422  1.0000
  Fe  Fe29      1.0  0.29119  0.58980  0.08986  1.0000
  H   H182      1.0  0.10066  0.61600  0.29333  1.0000
  C   C199      1.0  0.31847  0.61190  0.21967  1.0000
  C   C200      1.0  0.21115  0.74620  0.08646  1.0000
  H   H183      1.0  0.15937  0.99011  0.10219  1.0000
  H   H184      1.0  0.13514  0.97069  0.34530  1.0000
  H   H185      1.0  0.29342  0.97500  0.09677  1.0000
  N   N14       1.0  0.29688  0.65002  0.21652  1.0000
  C   C201      1.0  0.43296  0.80361  0.04340  1.0000
  C   C202      1.0  0.09540  0.93861  0.27697  1.0000
  H   H186      1.0  0.50539  0.60839  0.16638  1.0000
  H   H187      1.0  0.18065  0.72900  0.08893  1.0000
  S   S71       1.0  0.51549  0.74939  0.21402  1.0000
  H   H188      1.0  0.46618  0.86170  0.03172  1.0000
  H   H189      1.0  0.08742  0.90928  0.26448  1.0000
  H   H190      1.0  0.41600  0.97168  0.32521  1.0000
  S   S72       1.0  0.26032  0.60367  0.32893  1.0000
  C   C203      1.0  0.39606  0.94360  0.32165  1.0000
  C   C204      1.0  0.26607  0.99503  0.10102  1.0000
  H   H191      1.0  0.38057  0.93863  0.24188  1.0000
  C   C205      1.0  0.38816  0.98870  0.17398  1.0000
  H   H192      1.0  0.21434  0.83010  0.07009  1.0000
  N   N15       1.0  0.21458  0.76372  0.05574  1.0000
  C   C206      1.0  0.47491  0.83034  0.29251  1.0000
  H   H193      1.0  0.23725  0.72321  0.09117  1.0000
  C   C207      1.0  0.11255  0.93518  0.30618  1.0000
  C   C208      1.0  0.37272  0.95533  0.15553  1.0000
  H   H194      1.0  0.37016  0.95983  0.13123  1.0000
  H   H195      1.0  0.24631  0.55439  0.25932  1.0000
  H   H196      1.0  0.10896  0.78980  0.16785  1.0000
  H   H197      1.0  0.29486  0.67934  0.04955  1.0000
  C   C209      1.0  0.22580  0.97728  0.09871  1.0000
  C   C210      1.0  0.51553  0.57494  0.16377  1.0000
  C   C211      1.0  0.36061  0.91612  0.16864  1.0000
  H   H198      1.0  0.20712  0.62362  0.25291  1.0000
  H   H199      1.0  0.21225  0.77209  0.10407  1.0000
  Fe  Fe30      1.0  0.32424  0.57414  0.33320  1.0000
  N   N16       1.0  0.08851  0.97838  0.26429  1.0000
  H   H200      1.0  0.12198  0.04288  0.32197  1.0000
  H   H201      1.0  0.29967  0.68769  0.17659  1.0000
  C   C212      1.0  0.39085  0.98275  0.20525  1.0000
  C   C213      1.0  0.09763  0.01548  0.28025  1.0000
  H   H202      1.0  0.22168  0.94332  0.09275  1.0000
  H   H203      1.0  0.38810  0.83760  0.34163  1.0000
  C   C214      1.0  0.31497  0.68590  0.19927  1.0000
  C   C215      1.0  0.21605  0.73557  0.03167  1.0000
  S   S73       1.0  0.06500  0.68880  0.25793  1.0000
  C   C216      1.0  0.08808  0.71831  0.13660  1.0000
  H   H204      1.0  0.34953  0.60804  0.21004  1.0000
  Fe  Fe31      1.0  0.05061  0.74876  0.28605  1.0000
  H   H205      1.0  0.34810  0.89054  0.15424  1.0000
  N   N17       1.0  0.51470  0.84633  0.29658  1.0000
  C   C217      1.0  0.21590  0.80757  0.05111  1.0000
  H   H206      1.0  0.36028  0.84109  0.19798  1.0000
  H   H207      1.0  0.21521  0.70087  0.03539  1.0000
  C   C218      1.0  0.30078  0.57715  0.23533  1.0000
  H   H208      1.0  0.07948  0.70653  0.11353  1.0000
  H   H209      1.0  0.36653  0.95340  0.04913  1.0000
  C   C219      1.0  0.23878  0.98243  0.33862  1.0000
  C   C220      1.0  0.40630  0.90422  0.33571  1.0000
  H   H210      1.0  0.44999  0.85111  0.28409  1.0000
  H   H211      1.0  0.40489  0.81231  0.03068  1.0000
  C   C221      1.0  0.08004  0.59363  0.30500  1.0000
  C   C222      1.0  0.32313  0.68229  0.03626  1.0000
  S   S74       1.0  0.20395  0.55613  0.14718  1.0000
  H   H212      1.0  0.47302  0.72334  0.08749  1.0000
  H   H213      1.0  0.31004  0.71725  0.21130  1.0000
  C   C223      1.0  0.38041  0.86812  0.33101  1.0000
  Fe  Fe32      1.0  0.28217  0.04500  0.20390  1.0000
  H   H214      1.0  0.33550  0.74974  0.34277  1.0000
  C   C224      1.0  0.27077  0.03898  0.10837  1.0000
  C   C225      1.0  0.49770  0.76008  0.30984  1.0000
  H   H215      1.0  0.45996  0.55489  0.13905  1.0000
  H   H216      1.0  0.49131  0.72636  0.31495  1.0000
  H   H217      1.0  0.12567  0.57767  0.33951  1.0000
  H   H218      1.0  0.51563  0.89804  0.26520  1.0000
  H   H219      1.0  0.21268  0.56272  0.02203  1.0000
  C   C226      1.0  0.24201  0.02735  0.33491  1.0000
  H   H220      1.0  0.30259  0.70284  0.34950  1.0000
  H   H221      1.0  0.52890  0.88474  0.05656  1.0000
  H   H222      1.0  0.41407  0.62882  0.02095  1.0000
  H   H223      1.0  0.31800  0.54696  0.23770  1.0000
  C   C227      1.0  0.39030  0.65390  0.02013  1.0000
  H   H224      1.0  0.24562  0.04016  0.31232  1.0000
  H   H225      1.0  0.45363  0.65812  0.35113  1.0000
  S   S75       1.0  0.32873  0.58451  0.38349  1.0000
  H   H226      1.0  0.24020  0.70508  0.53248  1.0000
  Fe  Fe33      1.0  0.26228  0.60897  0.37980  1.0000
  S   S76       1.0  0.24445  0.67434  0.39967  1.0000
  H   H227      1.0  0.11286  0.00652  0.54424  1.0000
  C   C228      1.0  0.30310  0.00213  0.62652  1.0000
  Fe  Fe34      1.0  0.43856  0.78835  0.44175  1.0000
  S   S77       1.0  0.44137  0.77911  0.39121  1.0000
  S   S78       1.0  0.37972  0.77567  0.46885  1.0000
  H   H228      1.0  0.30809  0.74438  0.37801  1.0000
  Fe  Fe35      1.0  0.46857  0.84610  0.39000  1.0000
  H   H229      1.0  0.06828  0.82117  0.40288  1.0000
  H   H230      1.0  0.45369  0.63522  0.40487  1.0000
  S   S79       1.0  0.46074  0.85720  0.43989  1.0000
  C   C229      1.0  0.23466  0.03870  0.38789  1.0000
  Fe  Fe36      1.0  0.27635  0.95840  0.52235  1.0000
  S   S80       1.0  0.27306  0.96675  0.47190  1.0000
  C   C230      1.0  0.03934  0.03803  0.52772  1.0000
  Fe  Fe37      1.0  0.20938  0.99521  0.48004  1.0000
  S   S81       1.0  0.14986  0.98383  0.45306  1.0000
  S   S82       1.0  0.21028  0.98143  0.52977  1.0000
  S   S83       1.0  0.13455  0.69060  0.51852  1.0000
  H   H231      1.0  0.43455  0.63635  0.50494  1.0000
  C   C231      1.0  0.14721  0.93844  0.42885  1.0000
  C   C232      1.0  0.11333  0.93456  0.40850  1.0000
  C   C233      1.0  0.11131  0.89965  0.38795  1.0000
  C   C234      1.0  0.14322  0.86851  0.38769  1.0000
  C   C235      1.0  0.17688  0.87211  0.40828  1.0000
  C   C236      1.0  0.17880  0.90691  0.42895  1.0000
  H   H232      1.0  0.08878  0.95886  0.40843  1.0000
  H   H233      1.0  0.20147  0.84785  0.40822  1.0000
  H   H234      1.0  0.20476  0.90940  0.44481  1.0000
  H   H235      1.0  0.44455  0.96921  0.40565  1.0000
  C   C237      1.0  0.45276  0.84179  0.52406  1.0000
  C   C238      1.0  0.21090  0.67788  0.43126  1.0000
  C   C239      1.0  0.19365  0.71822  0.43946  1.0000
  C   C240      1.0  0.16855  0.72234  0.46550  1.0000
  C   C241      1.0  0.16168  0.68635  0.48392  1.0000
  C   C242      1.0  0.17835  0.64597  0.47544  1.0000
  C   C243      1.0  0.20246  0.64160  0.44900  1.0000
  H   H236      1.0  0.19980  0.74635  0.42562  1.0000
  H   H237      1.0  0.15538  0.75348  0.47167  1.0000
  H   H238      1.0  0.17267  0.61797  0.48946  1.0000
  H   H239      1.0  0.21524  0.61034  0.44267  1.0000
  C   C244      1.0  0.34065  0.68023  0.52500  1.0000
  C   C245      1.0  0.34277  0.71872  0.50809  1.0000
  C   C246      1.0  0.37794  0.72751  0.49008  1.0000
  H   H240      1.0  0.31351  0.67350  0.53882  1.0000
  H   H241      1.0  0.31714  0.74171  0.50892  1.0000
  H   H242      1.0  0.19596  0.97659  0.66691  1.0000
  Fe  Fe38      1.0  0.31966  0.58557  0.57623  1.0000
  S   S84       1.0  0.32835  0.60019  0.62579  1.0000
  S   S85       1.0  0.37179  0.60077  0.54326  1.0000
  H   H243      1.0  0.08145  0.95779  0.54740  1.0000
  Fe  Fe39      1.0  0.25967  0.61730  0.62508  1.0000
  C   C247      1.0  0.35551  0.88337  0.43965  1.0000
  S   S86       1.0  0.25270  0.60826  0.57472  1.0000
  C   C248      1.0  0.19987  0.90793  0.67476  1.0000
  Fe  Fe40      1.0  0.46472  0.82261  0.65892  1.0000
  S   S87       1.0  0.44102  0.88474  0.63826  1.0000
  C   C249      1.0  0.20666  0.84633  0.50972  1.0000
  S   S88       1.0  0.45593  0.75252  0.64637  1.0000
  H   H244      1.0  0.43853  0.70447  0.47573  1.0000
  S   S89       1.0  0.29577  0.89267  0.54001  1.0000
  Fe  Fe41      1.0  0.09304  0.83357  0.56957  1.0000
  S   S90       1.0  0.09711  0.81903  0.51957  1.0000
  S   S91       1.0  0.12593  0.89458  0.58583  1.0000
  Fe  Fe42      1.0  0.09636  0.74894  0.53325  1.0000
  S   S92       1.0  0.09839  0.76383  0.58335  1.0000
  C   C250      1.0  0.05468  0.61000  0.60666  1.0000
  H   H245      1.0  0.23024  0.93096  0.37080  1.0000
  C   C251      1.0  0.16398  0.86203  0.63732  1.0000
  C   C252      1.0  0.15227  0.89877  0.62095  1.0000
  C   C253      1.0  0.16345  0.94005  0.63193  1.0000
  H   H246      1.0  0.18337  0.83524  0.49243  1.0000
  H   H247      1.0  0.40720  0.98813  0.47056  1.0000
  H   H248      1.0  0.15501  0.83013  0.62922  1.0000
  H   H249      1.0  0.44538  0.86456  0.54294  1.0000
  N   N18       1.0  0.05171  0.85171  0.66939  1.0000
  C   C254      1.0  0.40334  0.88498  0.60895  1.0000
  C   C255      1.0  0.39312  0.92464  0.59547  1.0000
  C   C256      1.0  0.36082  0.92708  0.57376  1.0000
  C   C257      1.0  0.33842  0.88985  0.56547  1.0000
  C   C258      1.0  0.34922  0.84988  0.57840  1.0000
  C   C259      1.0  0.38175  0.84738  0.60010  1.0000
  H   H250      1.0  0.40968  0.95384  0.60233  1.0000
  H   H251      1.0  0.35271  0.95802  0.56406  1.0000
  H   H252      1.0  0.33180  0.82096  0.57212  1.0000
  H   H253      1.0  0.38931  0.81671  0.61060  1.0000
  H   H254      1.0  0.41784  0.71281  0.56960  1.0000
  C   C260      1.0  0.26056  0.94308  0.60758  1.0000
  C   C261      1.0  0.37363  0.65030  0.52372  1.0000
  C   C262      1.0  0.41119  0.69796  0.48935  1.0000
  C   C263      1.0  0.40885  0.65932  0.50589  1.0000
  C   C264      1.0  0.27097  0.98700  0.60754  1.0000
  C   C265      1.0  0.23319  0.96572  0.36760  1.0000
  H   H255      1.0  0.23580  0.93091  0.59276  1.0000
  Fe  Fe43      1.0  0.52555  0.83003  0.44519  1.0000
  S   S93       1.0  0.14236  0.82506  0.36172  1.0000
  C   C266      1.0  0.08514  0.75678  0.41702  1.0000
  C   C267      1.0  0.41209  0.98071  0.41028  1.0000
  H   H256      1.0  0.21852  0.79236  0.60707  1.0000
  C   C268      1.0  0.03837  0.77659  0.67990  1.0000
  Fe  Fe44      1.0  0.52586  0.74678  0.65241  1.0000
  C   C269      1.0  0.18800  0.86663  0.66407  1.0000
  S   S94       1.0  0.30577  0.02351  0.53158  1.0000
  C   C270      1.0  0.22624  0.77150  0.52100  1.0000
  H   H257      1.0  0.23570  0.71858  0.58801  1.0000
  C   C271      1.0  0.19984  0.67563  0.67585  1.0000
  C   C272      1.0  0.03929  0.89254  0.65511  1.0000
  N   N19       1.0  0.05902  0.00288  0.51512  1.0000
  H   H258      1.0  0.19769  0.83808  0.67644  1.0000
  C   C273      1.0  0.35701  0.89096  0.47085  1.0000
  C   C274      1.0  0.21293  0.81957  0.56209  1.0000
  H   H259      1.0  0.09234  0.69190  0.43413  1.0000
  H   H260      1.0  0.34395  0.86731  0.48631  1.0000
  S   S95       1.0  0.23728  0.67978  0.64678  1.0000
  H   H261      1.0  0.11308  0.69006  0.63963  1.0000
  C   C275      1.0  0.07116  0.71915  0.43117  1.0000
  C   C276      1.0  0.12375  0.61047  0.58650  1.0000
  C   C277      1.0  0.13470  0.64562  0.60518  1.0000
  H   H262      1.0  0.37283  0.90714  0.39583  1.0000
  S   S96       1.0  0.45202  0.90159  0.35855  1.0000
  C   C278      1.0  0.23317  0.73730  0.54107  1.0000
  H   H263      1.0  0.22940  0.76560  0.49687  1.0000
  N   N20       1.0  0.31330  0.93012  0.64576  1.0000
  H   H264      1.0  0.11559  0.96568  0.51536  1.0000
  H   H265      1.0  0.34920  0.98516  0.66008  1.0000
  H   H266      1.0  0.47889  0.85570  0.51055  1.0000
  C   C279      1.0  0.06457  0.64517  0.62563  1.0000
  H   H267      1.0  0.34185  0.85353  0.43086  1.0000
  C   C280      1.0  0.28172  0.91503  0.62728  1.0000
  H   H268      1.0  0.39251  0.65362  0.43756  1.0000
  C   C281      1.0  0.48197  0.61240  0.66929  1.0000
  C   C282      1.0  0.27270  0.57180  0.49230  1.0000
  C   C283      1.0  0.43279  0.77343  0.54777  1.0000
  C   C284      1.0  0.10489  0.66296  0.62490  1.0000
  C   C285      1.0  0.22048  0.78627  0.58287  1.0000
  C   C286      1.0  0.23028  0.74482  0.57219  1.0000
  H   H269      1.0  0.04062  0.55683  0.56022  1.0000
  H   H270      1.0  0.25407  0.00931  0.59295  1.0000
  C   C287      1.0  0.33427  0.90039  0.66680  1.0000
  S   S97       1.0  0.50283  0.76154  0.45118  1.0000
  N   N21       1.0  0.39133  0.95086  0.43115  1.0000
  H   H271      1.0  0.16616  0.65917  0.60447  1.0000
  H   H272      1.0  0.14719  0.59705  0.57135  1.0000
  Fe  Fe45      1.0  0.29785  0.03384  0.48148  1.0000
  H   H273      1.0  0.39458  0.98269  0.38844  1.0000
  N   N22       1.0  0.36099  0.70227  0.37280  1.0000
  C   C288      1.0  0.50499  0.78635  0.53769  1.0000
  C   C289      1.0  0.42754  0.66681  0.36572  1.0000
  H   H274      1.0  0.19361  0.87575  0.52097  1.0000
  N   N23       1.0  0.46383  0.79924  0.53637  1.0000
  H   H275      1.0  0.11709  0.75890  0.40857  1.0000
  Fe  Fe46      1.0  0.50800  0.75733  0.40038  1.0000
  C   C290      1.0  0.32411  0.97308  0.64556  1.0000
  H   H276      1.0  0.49252  0.68920  0.57250  1.0000
  C   C291      1.0  0.04473  0.98538  0.48836  1.0000
  H   H277      1.0  0.27267  0.88116  0.62778  1.0000
  H   H278      1.0  0.23613  0.85565  0.49811  1.0000
  H   H279      1.0  0.04099  0.65859  0.64070  1.0000
  C   C292      1.0  0.39347  0.66458  0.41432  1.0000
  H   H280      1.0  0.33727  0.58391  0.48142  1.0000
  C   C293      1.0  0.37305  0.91379  0.42000  1.0000
  H   H281      1.0  0.15444  0.96863  0.61934  1.0000
  C   C294      1.0  0.42744  0.65375  0.39590  1.0000
  H   H282      1.0  0.37644  0.93530  0.50625  1.0000
  H   H283      1.0  0.08527  0.89715  0.37217  1.0000
  H   H284      1.0  0.41380  0.01414  0.41982  1.0000
  N   N24       1.0  0.21528  0.81170  0.53155  1.0000
  C   C295      1.0  0.51585  0.74652  0.55058  1.0000
  C   C296      1.0  0.39284  0.95863  0.46174  1.0000
  C   C297      1.0  0.37561  0.92889  0.48203  1.0000
  H   H285      1.0  0.31168  0.03616  0.62658  1.0000
  C   C298      1.0  0.48437  0.71999  0.56220  1.0000
  H   H286      1.0  0.22639  0.98161  0.41499  1.0000
  C   C299      1.0  0.31426  0.55933  0.48696  1.0000
  H   H287      1.0  0.33369  0.69681  0.41673  1.0000
  C   C300      1.0  0.18704  0.94467  0.65883  1.0000
  S   S98       1.0  0.23805  0.55018  0.63658  1.0000
  H   H288      1.0  0.20522  0.85168  0.57052  1.0000
  H   H289      1.0  0.42494  0.83893  0.50878  1.0000
  C   C301      1.0  0.36024  0.68896  0.40234  1.0000
  C   C302      1.0  0.23110  0.99401  0.39239  1.0000
  C   C303      1.0  0.44254  0.73342  0.56080  1.0000
  H   H290      1.0  0.21079  0.54952  0.50446  1.0000
  H   H291      1.0  0.18366  0.60918  0.66622  1.0000
  H   H292      1.0  0.40017  0.78357  0.54655  1.0000
  H   H293      1.0  0.06745  0.91070  0.64739  1.0000
  C   C304      1.0  0.32516  0.72608  0.36009  1.0000
  H   H294      1.0  0.26375  0.60564  0.49090  1.0000
  H   H295      1.0  0.09441  0.55250  0.54861  1.0000
  H   H296      1.0  0.33790  0.86768  0.65646  1.0000
  H   H297      1.0  0.05979  0.95694  0.47867  1.0000
  H   H298      1.0  0.47080  0.64550  0.66716  1.0000
  C   C305      1.0  0.09390  0.98219  0.53137  1.0000
  N   N25       1.0  0.08407  0.59329  0.58730  1.0000
  C   C306      1.0  0.07358  0.55515  0.56870  1.0000
  C   C307      1.0  0.17804  0.63696  0.68060  1.0000
  C   C308      1.0  0.05776  0.79173  0.41366  1.0000
  C   C309      1.0  0.45640  0.58095  0.68232  1.0000
  H   H299      1.0  0.36635  0.91196  0.67292  1.0000
  C   C310      1.0  0.52205  0.60091  0.65910  1.0000
  C   C311      1.0  0.02972  0.71701  0.44155  1.0000
  C   C312      1.0  0.39399  0.69134  0.35453  1.0000
  C   C313      1.0  0.05361  0.57514  0.85327  1.0000
  Fe  Fe47      1.0  0.30273  0.61130  0.86093  1.0000
  S   S99       1.0  0.31541  0.59520  0.90976  1.0000
  S   S100      1.0  0.33437  0.67176  0.84333  1.0000
  C   C314      1.0  0.20313  0.61295  0.77559  1.0000
  Fe  Fe48      1.0  0.24537  0.59501  0.91445  1.0000
  S   S101      1.0  0.22164  0.62533  0.95780  1.0000
  S   S102      1.0  0.23265  0.61521  0.86651  1.0000
  C   C315      1.0  0.44053  0.00120  0.75604  1.0000
  S   S103      1.0  0.04336  0.81529  0.83278  1.0000
  C   C316      1.0  0.32945  0.71884  0.01786  1.0000
  C   C317      1.0  0.48902  0.70951  0.78784  1.0000
  S   S104      1.0  0.41197  0.68531  0.71166  1.0000
  H   H300      1.0  0.21803  0.59786  0.79577  1.0000
  C   C318      1.0  0.28352  0.66981  0.72854  1.0000
  Fe  Fe49      1.0  0.43537  0.78066  0.95474  1.0000
  S   S105      1.0  0.45248  0.74860  0.91098  1.0000
  S   S106      1.0  0.37250  0.76880  0.97732  1.0000
  Fe  Fe50      1.0  0.52661  0.80354  0.70903  1.0000
  Fe  Fe51      1.0  0.47179  0.81420  0.89495  1.0000
  S   S107      1.0  0.45531  0.82755  0.84593  1.0000
  C   C319      1.0  0.27626  0.56197  0.00496  1.0000
  S   S108      1.0  0.44919  0.84747  0.93722  1.0000
  H   H301      1.0  0.10430  0.69479  0.00983  1.0000
  Fe  Fe52      1.0  0.31855  0.00841  0.77375  1.0000
  S   S109      1.0  0.32895  0.98190  0.72703  1.0000
  S   S110      1.0  0.35872  0.00087  0.81568  1.0000
  H   H302      1.0  0.31742  0.69020  0.92551  1.0000
  Fe  Fe53      1.0  0.25832  0.97637  0.72433  1.0000
  S   S111      1.0  0.24902  0.99727  0.77290  1.0000
  S   S112      1.0  0.05931  0.82405  0.01588  1.0000
  Fe  Fe54      1.0  0.51786  0.74390  0.93003  1.0000
  S   S113      1.0  0.29138  0.95626  0.97081  1.0000
  C   C320      1.0  0.07943  0.81509  0.92900  1.0000
  Fe  Fe55      1.0  0.22824  0.98798  0.96631  1.0000
  S   S114      1.0  0.17672  0.97326  0.93220  1.0000
  H   H303      1.0  0.34340  0.59229  0.97927  1.0000
  C   C321      1.0  0.24799  0.58816  0.73399  1.0000
  Fe  Fe56      1.0  0.10680  0.78328  0.83146  1.0000
  S   S115      1.0  0.11264  0.78789  0.78078  1.0000
  S   S116      1.0  0.16240  0.79344  0.86307  1.0000
  Fe  Fe57      1.0  0.08251  0.72225  0.78009  1.0000
  S   S117      1.0  0.10224  0.66502  0.75123  1.0000
  S   S118      1.0  0.08048  0.71561  0.83074  1.0000
  C   C322      1.0  0.17516  0.92396  0.91197  1.0000
  C   C323      1.0  0.14329  0.91759  0.89024  1.0000
  C   C324      1.0  0.13975  0.87797  0.87458  1.0000
  C   C325      1.0  0.16817  0.84454  0.88054  1.0000
  C   C326      1.0  0.20073  0.85122  0.90176  1.0000
  C   C327      1.0  0.20416  0.89085  0.91756  1.0000
  H   H304      1.0  0.12080  0.94316  0.88585  1.0000
  H   H305      1.0  0.11469  0.87316  0.85819  1.0000
  H   H306      1.0  0.22277  0.82544  0.90650  1.0000
  H   H307      1.0  0.22882  0.89556  0.93428  1.0000
  C   C328      1.0  0.42473  0.87388  0.83883  1.0000
  C   C329      1.0  0.40355  0.87789  0.81096  1.0000
  C   C330      1.0  0.38142  0.91606  0.80403  1.0000
  C   C331      1.0  0.38106  0.95052  0.82484  1.0000
  C   C332      1.0  0.40171  0.94616  0.85284  1.0000
  C   C333      1.0  0.42324  0.90782  0.85993  1.0000
  H   H308      1.0  0.40466  0.85162  0.79457  1.0000
  H   H309      1.0  0.36567  0.91929  0.78234  1.0000
  H   H310      1.0  0.40165  0.97278  0.86897  1.0000
  H   H311      1.0  0.43976  0.90512  0.88136  1.0000
  C   C334      1.0  0.17211  0.65068  0.95849  1.0000
  C   C335      1.0  0.15512  0.66265  0.98657  1.0000
  C   C336      1.0  0.11711  0.68563  0.98807  1.0000
  C   C337      1.0  0.09521  0.69560  0.96144  1.0000
  C   C338      1.0  0.11171  0.68284  0.93331  1.0000
  C   C339      1.0  0.15029  0.66068  0.93180  1.0000
  H   H312      1.0  0.17123  0.65372  0.00725  1.0000
  C   C340      1.0  0.22097  0.79564  0.99709  1.0000
  H   H313      1.0  0.09483  0.69049  0.91263  1.0000
  H   H314      1.0  0.16317  0.65162  0.91004  1.0000
  C   C341      1.0  0.35555  0.67496  0.80663  1.0000
  C   C342      1.0  0.37110  0.71490  0.79647  1.0000
  C   C343      1.0  0.38848  0.71861  0.76738  1.0000
  C   C344      1.0  0.39083  0.68218  0.74843  1.0000
  C   C345      1.0  0.37552  0.64218  0.75867  1.0000
  C   C346      1.0  0.35770  0.63859  0.78762  1.0000
  H   H315      1.0  0.36983  0.74310  0.81120  1.0000
  H   H316      1.0  0.40009  0.74961  0.75970  1.0000
  H   H317      1.0  0.37732  0.61384  0.74413  1.0000
  H   H318      1.0  0.34596  0.60767  0.79533  1.0000
  N   N26       1.0  0.48139  0.93742  0.76666  1.0000
  H   H319      1.0  0.28924  0.56880  0.69750  1.0000
  Fe  Fe58      1.0  0.04619  0.81357  0.78187  1.0000
  C   C347      1.0  0.13993  0.67021  0.72243  1.0000
  C   C348      1.0  0.16197  0.70889  0.71790  1.0000
  N   N27       1.0  0.50822  0.03549  0.97585  1.0000
  H   H320      1.0  0.42578  0.01244  0.70894  1.0000
  H   H321      1.0  0.15648  0.73650  0.73254  1.0000
  C   C349      1.0  0.50339  0.90916  0.78817  1.0000
  Fe  Fe59      1.0  0.45369  0.74078  0.69674  1.0000
  H   H322      1.0  0.27977  0.59686  0.00703  1.0000
  H   H323      1.0  0.42488  0.69315  0.98842  1.0000
  H   H324      1.0  0.45187  0.99836  0.98172  1.0000
  S   S119      1.0  0.23212  0.91210  0.70728  1.0000
  H   H325      1.0  0.25796  0.96209  0.89717  1.0000
  S   S120      1.0  0.49928  0.77107  0.97551  1.0000
  H   H326      1.0  0.08157  0.74596  0.71078  1.0000
  C   C350      1.0  0.52183  0.72734  0.84493  1.0000
  C   C351      1.0  0.49266  0.69372  0.84127  1.0000
  H   H327      1.0  0.24853  0.78840  0.83855  1.0000
  H   H328      1.0  0.09084  0.78405  0.92070  1.0000
  C   C352      1.0  0.26263  0.99124  0.88404  1.0000
  C   C353      1.0  0.21912  0.75103  0.00200  1.0000
  C   C354      1.0  0.34405  0.79337  0.87347  1.0000
  C   C355      1.0  0.26689  0.75215  0.87821  1.0000
  C   C356      1.0  0.31246  0.80220  0.85231  1.0000
  H   H329      1.0  0.20115  0.98895  0.86326  1.0000
  H   H330      1.0  0.48291  0.67493  0.86075  1.0000
  C   C357      1.0  0.33627  0.76392  0.89672  1.0000
  H   H331      1.0  0.37443  0.80909  0.87189  1.0000
  H   H332      1.0  0.46689  0.00771  0.94314  1.0000
  H   H333      1.0  0.31816  0.82503  0.83419  1.0000
  N   N28       1.0  0.29820  0.74358  0.89876  1.0000
  C   C358      1.0  0.09368  0.88367  0.95374  1.0000
  H   H334      1.0  0.49535  0.96887  0.96625  1.0000
  H   H335      1.0  0.20838  0.74176  0.69091  1.0000
  C   C359      1.0  0.29103  0.71369  0.92390  1.0000
  S   S121      1.0  0.52336  0.73124  0.70189  1.0000
  H   H336      1.0  0.10171  0.55084  0.82336  1.0000
  H   H337      1.0  0.14033  0.83423  0.94614  1.0000
  C   C360      1.0  0.44139  0.99131  0.72511  1.0000
  H   H338      1.0  0.45302  0.65921  0.80942  1.0000
  H   H339      1.0  0.11550  0.90636  0.96435  1.0000
  C   C361      1.0  0.30032  0.01436  0.88649  1.0000
  H   H340      1.0  0.28952  0.73205  0.94562  1.0000
  C   C362      1.0  0.14811  0.63432  0.70373  1.0000
  C   C363      1.0  0.27890  0.59518  0.71211  1.0000
  C   C364      1.0  0.25285  0.66156  0.75035  1.0000
  H   H341      1.0  0.32035  0.64257  0.69235  1.0000
  H   H342      1.0  0.23645  0.73644  0.87988  1.0000
  H   H343      1.0  0.24326  0.68763  0.76541  1.0000
  H   H344      1.0  0.10421  0.88036  0.69239  1.0000
  C   C365      1.0  0.47611  0.68485  0.81252  1.0000
  S   S122      1.0  0.37442  0.04204  0.94900  1.0000
  H   H345      1.0  0.22097  0.85893  0.01832  1.0000
  H   H346      1.0  0.22393  0.80815  0.97427  1.0000
  C   C366      1.0  0.27356  0.78155  0.85468  1.0000
  H   H347      1.0  0.07070  0.60454  0.85923  1.0000
  C   C367      1.0  0.46106  0.97392  0.77660  1.0000
  H   H348      1.0  0.18692  0.64329  0.78271  1.0000
  H   H349      1.0  0.12540  0.81268  0.71753  1.0000
  S   S123      1.0  0.04693  0.72334  0.96273  1.0000
  H   H350      1.0  0.49314  0.87493  0.78491  1.0000
  C   C368      1.0  0.23077  0.00635  0.86496  1.0000
  H   H351      1.0  0.37109  0.55497  0.00352  1.0000
  H   H352      1.0  0.17822  0.59088  0.76664  1.0000
  C   C369      1.0  0.10770  0.84339  0.94338  1.0000
  Fe  Fe60      1.0  0.31658  0.02431  0.97603  1.0000
  C   C370      1.0  0.07363  0.77551  0.69885  1.0000
  C   C371      1.0  0.36598  0.72280  0.00038  1.0000
  H   H353      1.0  0.49855  0.89855  0.72861  1.0000
  H   H354      1.0  0.23437  0.55606  0.73607  1.0000
  C   C372      1.0  0.47924  0.00092  0.96626  1.0000
  H   H355      1.0  0.46306  0.94583  0.69118  1.0000
  Fe  Fe61      1.0  0.51483  0.83591  0.95476  1.0000
  H   H356      1.0  0.22044  0.72843  0.98303  1.0000
  H   H357      1.0  0.49675  0.91810  0.81213  1.0000
  H   H358      1.0  0.36086  0.75724  0.91313  1.0000
  S   S124      1.0  0.45642  0.81182  0.70895  1.0000
  Fe  Fe62      1.0  0.03113  0.75888  0.00603  1.0000
  H   H359      1.0  0.30624  0.74439  0.01731  1.0000
  H   H360      1.0  0.47649  0.70282  0.76536  1.0000
  H   H361      1.0  0.46003  0.98190  0.80059  1.0000
  C   C373      1.0  0.29644  0.63642  0.70925  1.0000
  H   H362      1.0  0.26156  0.69471  0.92079  1.0000
  H   H363      1.0  0.31555  0.89737  0.68783  1.0000
  H   H364      1.0  0.52685  0.76304  0.77331  1.0000
  H   H365      1.0  0.32478  0.00253  0.90156  1.0000
  N   N29       1.0  0.23495  0.62133  0.75245  1.0000
  H   H366      1.0  0.13114  0.60432  0.70710  1.0000
  C   C374      1.0  0.48225  0.92737  0.73641  1.0000
  C   C375      1.0  0.46227  0.95405  0.71517  1.0000
  H   H367      1.0  0.03985  0.92534  0.95915  1.0000
  H   H368      1.0  0.29752  0.70177  0.72670  1.0000
  C   C376      1.0  0.39652  0.69032  0.00170  1.0000
  N   N30       1.0  0.03795  0.82611  0.92584  1.0000
  C   C377      1.0  0.09799  0.81283  0.70278  1.0000
  H   H369      1.0  0.42379  0.02965  0.76418  1.0000
  C   C378      1.0  0.23706  0.04415  0.84841  1.0000
  C   C379      1.0  0.51775  0.74334  0.79243  1.0000
  S   S125      1.0  0.21484  0.98659  0.01616  1.0000
  S   S126      1.0  0.24829  0.04316  0.70506  1.0000
  C   C380      1.0  0.08607  0.85106  0.68822  1.0000
  C   C381      1.0  0.19149  0.71173  0.69440  1.0000
  C   C382      1.0  0.34788  0.55743  0.98467  1.0000
  C   C383      1.0  0.05136  0.89456  0.95049  1.0000
  H   H370      1.0  0.42515  0.58947  0.69017  1.0000
  H   H371      1.0  0.84188  0.32514  0.04666  1.0000
  S   S127      1.0  0.95537  0.33739  0.06415  1.0000
  C   C384      1.0  0.69756  0.32196  0.28483  1.0000
  H   H372      1.0  0.68363  0.34007  0.30339  1.0000
  Fe  Fe63      1.0  0.93339  0.26842  0.06832  1.0000
  S   S128      1.0  0.87035  0.25564  0.08992  1.0000
  C   C385      1.0  0.73237  0.27741  0.23632  1.0000
  C   C386      1.0  0.62314  0.13583  0.23212  1.0000
  Fe  Fe64      1.0  0.93044  0.32013  0.28660  1.0000
  S   S129      1.0  0.93952  0.32568  0.33719  1.0000
  S   S130      1.0  0.86756  0.34323  0.26813  1.0000
  N   N31       1.0  0.74029  0.31769  0.28290  1.0000
  H   H373      1.0  0.79172  0.29260  0.25744  1.0000
  Fe  Fe65      1.0  0.96419  0.25780  0.33429  1.0000
  C   C387      1.0  0.58184  0.12199  0.23630  1.0000
  S   S131      1.0  0.95012  0.25005  0.28457  1.0000
  C   C388      1.0  0.57081  0.36085  0.10647  1.0000
  Fe  Fe66      1.0  0.79753  0.46395  0.12159  1.0000
  S   S132      1.0  0.78378  0.45975  0.07162  1.0000
  S   S133      1.0  0.85468  0.42646  0.13735  1.0000
  Fe  Fe67      1.0  0.00522  0.34666  0.32579  1.0000
  Fe  Fe68      1.0  0.71591  0.46336  0.08483  1.0000
  S   S134      1.0  0.66107  0.42196  0.06907  1.0000
  H   H374      1.0  0.66876  0.26851  0.22020  1.0000
  S   S135      1.0  0.72958  0.46184  0.13496  1.0000
  S   S136      1.0  0.71325  0.53614  0.08177  1.0000
  H   H375      1.0  0.57908  0.38964  0.09273  1.0000
  C   C389      1.0  0.78651  0.29393  0.02801  1.0000
  S   S137      1.0  0.72931  0.46170  0.30100  1.0000
  Fe  Fe69      1.0  0.80925  0.09046  0.21689  1.0000
  S   S138      1.0  0.82361  0.10210  0.26615  1.0000
  S   S139      1.0  0.86086  0.10029  0.18265  1.0000
  H   H376      1.0  0.74441  0.13544  0.10350  1.0000
  Fe  Fe70      1.0  0.75669  0.12506  0.26972  1.0000
  S   S140      1.0  0.74082  0.18705  0.29531  1.0000
  H   H377      1.0  0.74640  0.26028  0.21736  1.0000
  S   S141      1.0  0.74469  0.11938  0.21953  1.0000
  H   H378      1.0  0.75136  0.34430  0.32723  1.0000
  C   C390      1.0  0.94360  0.18804  0.21038  1.0000
  S   S142      1.0  0.55982  0.36303  0.19091  1.0000
  S   S143      1.0  0.55515  0.36618  0.28206  1.0000
  Fe  Fe71      1.0  0.57725  0.29448  0.17906  1.0000
  S   S144      1.0  0.64026  0.28355  0.15684  1.0000
  S   S145      1.0  0.56441  0.26995  0.22568  1.0000
  C   C391      1.0  0.64612  0.17681  0.08457  1.0000
  C   C392      1.0  0.68115  0.20326  0.09009  1.0000
  C   C393      1.0  0.67949  0.23541  0.11285  1.0000
  C   C394      1.0  0.64274  0.24140  0.12986  1.0000
  C   C395      1.0  0.60796  0.21476  0.12436  1.0000
  C   C396      1.0  0.60967  0.18262  0.10177  1.0000
  H   H379      1.0  0.70936  0.19906  0.07682  1.0000
  H   H380      1.0  0.70660  0.25579  0.11723  1.0000
  H   H381      1.0  0.57967  0.21883  0.13748  1.0000
  H   H382      1.0  0.58253  0.16212  0.09763  1.0000
  C   C397      1.0  0.69639  0.18692  0.31904  1.0000
  H   H383      1.0  0.88447  0.23911  0.18611  1.0000
  H   H384      1.0  0.67078  0.18169  0.24606  1.0000
  C   C398      1.0  0.63403  0.15159  0.33851  1.0000
  C   C399      1.0  0.63848  0.17113  0.24877  1.0000
  H   H385      1.0  0.67839  0.12122  0.30856  1.0000
  C   C400      1.0  0.82674  0.14583  0.34074  1.0000
  N   N32       1.0  0.74445  0.28621  0.03141  1.0000
  C   C401      1.0  0.67956  0.43791  0.29600  1.0000
  C   C402      1.0  0.66747  0.42386  0.26691  1.0000
  C   C403      1.0  0.62888  0.40264  0.26229  1.0000
  C   C404      1.0  0.60238  0.39507  0.28684  1.0000
  C   C405      1.0  0.61418  0.40960  0.31590  1.0000
  C   C406      1.0  0.65275  0.43103  0.32049  1.0000
  H   H386      1.0  0.68821  0.42905  0.24791  1.0000
  H   H387      1.0  0.62003  0.39154  0.23985  1.0000
  H   H388      1.0  0.59372  0.40378  0.33496  1.0000
  C   C407      1.0  0.96682  0.44653  0.09755  1.0000
  H   H389      1.0  0.60912  0.47521  0.19324  1.0000
  C   C408      1.0  0.68878  0.28179  0.23804  1.0000
  C   C409      1.0  0.86401  0.07898  0.34937  1.0000
  Fe  Fe72      1.0  0.72345  0.05163  0.23043  1.0000
  H   H390      1.0  0.67618  0.10254  0.11831  1.0000
  C   C410      1.0  0.86419  0.36552  0.23153  1.0000
  C   C411      1.0  0.82524  0.38079  0.22084  1.0000
  C   C412      1.0  0.82173  0.39934  0.19188  1.0000
  C   C413      1.0  0.85724  0.40277  0.17354  1.0000
  C   C414      1.0  0.89612  0.38747  0.18425  1.0000
  C   C415      1.0  0.89962  0.36886  0.21315  1.0000
  H   H391      1.0  0.79773  0.37871  0.23505  1.0000
  H   H392      1.0  0.79164  0.41114  0.18384  1.0000
  H   H393      1.0  0.92374  0.39021  0.17020  1.0000
  H   H394      1.0  0.92975  0.35719  0.22119  1.0000
  C   C416      1.0  0.86703  0.21179  0.11507  1.0000
  C   C417      1.0  0.83121  0.20693  0.13319  1.0000
  C   C418      1.0  0.82872  0.17290  0.15420  1.0000
  C   C419      1.0  0.86187  0.14332  0.15675  1.0000
  C   C420      1.0  0.89715  0.14770  0.13814  1.0000
  C   C421      1.0  0.89990  0.18199  0.11755  1.0000
  H   H395      1.0  0.80559  0.22987  0.13125  1.0000
  H   H396      1.0  0.80126  0.16951  0.16832  1.0000
  H   H397      1.0  0.92270  0.12463  0.13983  1.0000
  H   H398      1.0  0.92736  0.18511  0.10345  1.0000
  S   S146      1.0  0.77158  0.13668  0.03610  1.0000
  C   C422      1.0  0.91573  0.10198  0.04692  1.0000
  H   H399      1.0  0.63735  0.30799  0.26407  1.0000
  C   C423      1.0  0.72340  0.30298  0.05578  1.0000
  C   C424      1.0  0.84735  0.47107  0.28493  1.0000
  H   H400      1.0  0.98880  0.47996  0.33483  1.0000
  C   C425      1.0  0.67117  0.30389  0.26257  1.0000
  H   H401      1.0  0.99271  0.42232  0.09632  1.0000
  H   H402      1.0  0.77743  0.37148  0.29653  1.0000
  N   N33       1.0  0.94878  0.45492  0.06746  1.0000
  N   N34       1.0  0.94230  0.09390  0.02328  1.0000
  H   H403      1.0  0.54563  0.36992  0.12257  1.0000
  Fe  Fe73      1.0  0.73082  0.53451  0.13110  1.0000
  C   C426      1.0  0.54359  0.49051  0.15602  1.0000
  C   C427      1.0  0.96262  0.29659  0.15333  1.0000
  H   H404      1.0  0.62432  0.21948  0.28237  1.0000
  H   H405      1.0  0.96880  0.18580  0.22794  1.0000
  C   C428      1.0  0.75782  0.29574  0.25907  1.0000
  C   C429      1.0  0.61209  0.19224  0.26940  1.0000
  C   C430      1.0  0.97357  0.45171  0.04230  1.0000
  C   C431      1.0  0.76760  0.33931  0.30527  1.0000
  C   C432      1.0  0.92195  0.28419  0.16117  1.0000
  C   C433      1.0  0.78717  0.33710  0.07392  1.0000
  H   H406      1.0  0.86403  0.14053  0.06353  1.0000
  H   H407      1.0  0.64318  0.11910  0.21602  1.0000
  C   C434      1.0  0.62490  0.37294  0.02438  1.0000
  Fe  Fe74      1.0  0.70420  0.11683  0.03068  1.0000
  C   C435      1.0  0.91619  0.24872  0.18033  1.0000
  C   C436      1.0  0.90778  0.46798  0.06482  1.0000
  H   H408      1.0  0.63204  0.50531  0.16221  1.0000
  C   C437      1.0  0.80839  0.31968  0.04909  1.0000
  C   C438      1.0  0.98996  0.23736  0.18295  1.0000
  H   H409      1.0  0.97949  0.47711  0.10744  1.0000
  H   H410      1.0  0.00523  0.07580  0.03286  1.0000
  H   H411      1.0  0.89499  0.30163  0.15217  1.0000
  H   H412      1.0  0.59625  0.37660  0.03717  1.0000
  H   H413      1.0  0.59880  0.35146  0.12020  1.0000
  H   H414      1.0  0.70543  0.25303  0.33395  1.0000
  Fe  Fe75      1.0  0.01862  0.31129  0.07735  1.0000
  H   H415      1.0  0.91305  0.18970  0.22243  1.0000
  H   H416      1.0  0.82158  0.45174  0.29507  1.0000
  N   N35       1.0  0.55720  0.32525  0.08650  1.0000
  H   H417      1.0  0.59772  0.24183  0.04580  1.0000
  C   C439      1.0  0.79916  0.52414  0.26284  1.0000
  H   H418      1.0  0.53164  0.17649  0.31192  1.0000
  C   C440      1.0  0.74368  0.10371  0.11384  1.0000
  H   H419      1.0  0.85995  0.49396  0.30238  1.0000
  H   H420      1.0  0.88833  0.47161  0.08479  1.0000
  C   C441      1.0  0.55641  0.14369  0.25728  1.0000
  C   C442      1.0  0.54438  0.20020  0.29548  1.0000
  C   C443      1.0  0.61022  0.50718  0.18178  1.0000
  H   H421      1.0  0.94270  0.43306  0.11303  1.0000
  H   H422      1.0  0.96763  0.32402  0.13849  1.0000
  H   H423      1.0  0.79630  0.31970  0.30980  1.0000
  H   H424      1.0  0.00624  0.44211  0.04434  1.0000
  H   H425      1.0  0.62369  0.53105  0.19824  1.0000
  C   C444      1.0  0.84759  0.48832  0.23053  1.0000
  H   H426      1.0  0.85776  0.48682  0.03416  1.0000
  C   C445      1.0  0.66194  0.39320  0.03450  1.0000
  C   C446      1.0  0.79817  0.53932  0.20926  1.0000
  H   H427      1.0  0.02865  0.28219  0.15803  1.0000
  S   S147      1.0  0.64601  0.13643  0.05627  1.0000
  H   H428      1.0  0.94379  0.15805  0.19625  1.0000
  H   H429      1.0  0.87299  0.46536  0.22719  1.0000
  S   S148      1.0  0.80055  0.53652  0.12278  1.0000
  H   H430      1.0  0.81050  0.09467  0.11134  1.0000
  C   C447      1.0  0.99857  0.50669  0.35040  1.0000
  H   H431      1.0  0.82573  0.17866  0.33207  1.0000
  C   C448      1.0  0.67079  0.15025  0.32113  1.0000
  S   S149      1.0  0.99529  0.24333  0.08541  1.0000
  C   C449      1.0  0.83129  0.51018  0.20535  1.0000
  N   N36       1.0  0.02705  0.53643  0.33482  1.0000
  H   H432      1.0  0.89118  0.13496  0.32793  1.0000
  C   C450      1.0  0.57454  0.26430  0.05469  1.0000
  N   N37       1.0  0.95004  0.22607  0.19117  1.0000
  C   C451      1.0  0.99689  0.27308  0.16427  1.0000
  C   C452      1.0  0.78099  0.08061  0.11856  1.0000
  H   H433      1.0  0.69013  0.29691  0.05849  1.0000
  S   S150      1.0  0.99459  0.34621  0.27539  1.0000
  H   H434      1.0  0.56139  0.22546  0.30886  1.0000
  H   H435      1.0  0.66192  0.44171  0.34299  1.0000
  H   H436      1.0  0.72730  0.34272  0.09630  1.0000
  C   C453      1.0  0.88527  0.13455  0.04484  1.0000
  Fe  Fe76      1.0  0.00991  0.23201  0.03620  1.0000
  C   C454      1.0  0.68558  0.22462  0.33525  1.0000
  H   H437      1.0  0.87265  0.44791  0.27860  1.0000
  C   C455      1.0  0.74430  0.32895  0.07726  1.0000
  N   N38       1.0  0.56821  0.52002  0.17123  1.0000
  C   C456      1.0  0.97487  0.06049  0.02604  1.0000
  H   H438      1.0  0.01676  0.21879  0.19092  1.0000
  H   H439      1.0  0.80410  0.35652  0.09067  1.0000
  C   C457      1.0  0.53238  0.26020  0.04619  1.0000
  N   N39       1.0  0.83118  0.49513  0.25876  1.0000
  H   H440      1.0  0.91753  0.08282  0.06742  1.0000
  C   C458      1.0  0.70545  0.08531  0.12222  1.0000
  N   N40       1.0  0.57174  0.17819  0.27362  1.0000
  H   H441      1.0  0.61391  0.12329  0.33940  1.0000
  C   C459      1.0  0.89028  0.47677  0.03631  1.0000
  H   H442      1.0  0.56967  0.09460  0.22335  1.0000
  H   H443      1.0  0.61925  0.30055  0.08140  1.0000
  Fe  Fe77      1.0  0.74731  0.49163  0.34612  1.0000
  C   C460      1.0  0.58647  0.29734  0.07490  1.0000
  Fe  Fe78      1.0  0.54151  0.33683  0.23609  1.0000
  Fe  Fe79      1.0  0.78294  0.53269  0.07368  1.0000
  H   H444      1.0  0.78631  0.52970  0.28525  1.0000
  H   H445      1.0  0.72751  0.40419  0.02521  1.0000
  H   H446      1.0  0.89194  0.05914  0.34691  1.0000
  H   H447      1.0  0.84391  0.50406  0.18292  1.0000
  Fe  Fe80      1.0  0.78701  0.06655  0.02701  1.0000
  S   S151      1.0  0.73120  0.05923  0.28081  1.0000
  C   C461      1.0  0.86337  0.12124  0.33832  1.0000
  Fe  Fe81      1.0  0.01534  0.27628  0.27795  1.0000
  H   H448      1.0  0.55431  0.45743  0.15269  1.0000
  S   S152      1.0  0.71922  0.04602  0.02647  1.0000
  C   C462      1.0  0.64884  0.22588  0.35290  1.0000
  S   S153      1.0  0.96266  0.35951  0.48878  1.0000
  H   H449      1.0  0.87652  0.48033  0.49144  1.0000
  H   H450      1.0  0.72304  0.26665  0.59501  1.0000
  C   C463      1.0  0.54705  0.36362  0.56885  1.0000
  Fe  Fe82      1.0  0.77959  0.47399  0.41023  1.0000
  S   S154      1.0  0.78222  0.42496  0.44802  1.0000
  S   S155      1.0  0.71557  0.48933  0.39129  1.0000
  Fe  Fe83      1.0  0.78370  0.10376  0.46413  1.0000
  S   S156      1.0  0.80285  0.10236  0.51318  1.0000
  S   S157      1.0  0.78502  0.16421  0.43552  1.0000
  H   H451      1.0  0.58246  0.51267  0.64772  1.0000
  Fe  Fe84      1.0  0.74333  0.06501  0.52038  1.0000
  N   N41       1.0  0.84101  0.06015  0.60101  1.0000
  S   S158      1.0  0.72113  0.07209  0.47229  1.0000
  H   H452      1.0  0.96042  0.34762  0.40724  1.0000
  C   C464      1.0  0.72485  0.34732  0.61627  1.0000
  S   S159      1.0  0.64428  0.29669  0.49661  1.0000
  Fe  Fe85      1.0  0.82270  0.54110  0.37026  1.0000
  S   S160      1.0  0.57539  0.18948  0.37477  1.0000
  C   C465      1.0  0.79147  0.12807  0.35477  1.0000
  H   H453      1.0  0.93508  0.11177  0.63790  1.0000
  H   H454      1.0  0.58248  0.12815  0.49819  1.0000
  C   C466      1.0  0.70328  0.39732  0.53874  1.0000
  C   C467      1.0  0.69276  0.35551  0.52814  1.0000
  C   C468      1.0  0.65506  0.34837  0.51210  1.0000
  H   H455      1.0  0.73306  0.40302  0.55005  1.0000
  H   H456      1.0  0.71445  0.32896  0.53150  1.0000
  C   C469      1.0  0.83306  0.17634  0.41784  1.0000
  C   C470      1.0  0.86765  0.14879  0.42095  1.0000
  C   C471      1.0  0.90507  0.15772  0.40551  1.0000
  C   C472      1.0  0.90820  0.19421  0.38687  1.0000
  C   C473      1.0  0.87387  0.22228  0.38409  1.0000
  C   C474      1.0  0.83635  0.21335  0.39963  1.0000
  H   H457      1.0  0.86559  0.12045  0.43512  1.0000
  H   H458      1.0  0.93168  0.13610  0.40787  1.0000
  H   H459      1.0  0.74530  0.09020  0.39943  1.0000
  H   H460      1.0  0.80968  0.23485  0.39720  1.0000
  C   C475      1.0  0.91199  0.37599  0.47738  1.0000
  C   C476      1.0  0.87588  0.36146  0.49211  1.0000
  C   C477      1.0  0.83598  0.37589  0.48252  1.0000
  C   C478      1.0  0.83215  0.40493  0.45825  1.0000
  C   C479      1.0  0.86824  0.41892  0.44330  1.0000
  C   C480      1.0  0.90801  0.40443  0.45284  1.0000
  H   H461      1.0  0.87881  0.33916  0.51079  1.0000
  H   H462      1.0  0.80807  0.36492  0.49411  1.0000
  H   H463      1.0  0.86557  0.44136  0.42463  1.0000
  H   H464      1.0  0.93588  0.41579  0.44139  1.0000
  Fe  Fe86      1.0  0.97395  0.31932  0.53074  1.0000
  S   S161      1.0  0.96350  0.34199  0.57859  1.0000
  C   C481      1.0  0.93209  0.33434  0.66240  1.0000
  C   C482      1.0  0.85575  0.48588  0.51121  1.0000
  Fe  Fe87      1.0  0.94381  0.27304  0.58751  1.0000
  S   S162      1.0  0.88491  0.25820  0.61413  1.0000
  H   H465      1.0  0.69816  0.39087  0.42246  1.0000
  S   S163      1.0  0.94854  0.25261  0.53877  1.0000
  Fe  Fe88      1.0  0.79028  0.46652  0.63310  1.0000
  S   S164      1.0  0.80370  0.47318  0.58337  1.0000
  H   H466      1.0  0.02253  0.39204  0.66810  1.0000
  H   H467      1.0  0.60610  0.40611  0.41188  1.0000
  Fe  Fe89      1.0  0.73828  0.49951  0.57946  1.0000
  S   S165      1.0  0.69036  0.48578  0.54244  1.0000
  H   H468      1.0  0.63282  0.11152  0.51382  1.0000
  S   S166      1.0  0.72296  0.48724  0.62809  1.0000
  S   S167      1.0  0.00862  0.25068  0.60039  1.0000
  S   S168      1.0  0.70176  0.07125  0.56155  1.0000
  S   S169      1.0  0.61318  0.34219  0.65607  1.0000
  Fe  Fe90      1.0  0.59874  0.27487  0.63956  1.0000
  S   S170      1.0  0.63408  0.25794  0.59667  1.0000
  C   C483      1.0  0.68432  0.12339  0.57194  1.0000
  C   C484      1.0  0.65912  0.12865  0.59771  1.0000
  C   C485      1.0  0.64383  0.16987  0.60592  1.0000
  C   C486      1.0  0.65345  0.20584  0.58818  1.0000
  C   C487      1.0  0.67900  0.20058  0.56260  1.0000
  C   C488      1.0  0.69479  0.15955  0.55465  1.0000
  H   H469      1.0  0.65107  0.10075  0.61125  1.0000
  H   H470      1.0  0.62420  0.17369  0.62571  1.0000
  H   H471      1.0  0.68644  0.22846  0.54884  1.0000
  H   H472      1.0  0.71445  0.15576  0.53488  1.0000
  C   C489      1.0  0.67605  0.43205  0.53330  1.0000
  C   C490      1.0  0.62725  0.38284  0.50759  1.0000
  C   C491      1.0  0.63779  0.42454  0.51812  1.0000
  H   H473      1.0  0.59809  0.37769  0.49533  1.0000
  H   H474      1.0  0.61658  0.45132  0.51393  1.0000
  C   C492      1.0  0.02186  0.27891  0.44691  1.0000
  S   S171      1.0  0.81426  0.53271  0.64568  1.0000
  C   C493      1.0  0.88241  0.20745  0.63213  1.0000
  C   C494      1.0  0.91390  0.17649  0.62781  1.0000
  C   C495      1.0  0.91078  0.13575  0.64163  1.0000
  C   C496      1.0  0.80399  0.05839  0.61658  1.0000
  C   C497      1.0  0.84086  0.40216  0.68662  1.0000
  C   C498      1.0  0.84807  0.19767  0.65074  1.0000
  H   H475      1.0  0.94042  0.18366  0.61346  1.0000
  S   S172      1.0  0.60561  0.24590  0.68573  1.0000
  C   C499      1.0  0.62279  0.18937  0.35434  1.0000
  S   S173      1.0  0.80251  0.40356  0.65766  1.0000
  C   C500      1.0  0.66362  0.18720  0.47662  1.0000
  Fe  Fe91      1.0  0.01516  0.23481  0.55085  1.0000
  H   H476      1.0  0.61306  0.16567  0.52020  1.0000
  C   C501      1.0  0.77951  0.26410  0.56860  1.0000
  C   C502      1.0  0.81523  0.28679  0.55958  1.0000
  H   H477      1.0  0.64581  0.12421  0.40183  1.0000
  N   N42       1.0  0.79248  0.08676  0.36581  1.0000
  H   H478      1.0  0.83485  0.16241  0.57414  1.0000
  C   C503      1.0  0.94898  0.27495  0.43506  1.0000
  C   C504      1.0  0.60957  0.51138  0.43444  1.0000
  H   H479      1.0  0.58386  0.25053  0.53334  1.0000
  H   H480      1.0  0.88068  0.09773  0.57255  1.0000
  H   H481      1.0  0.56859  0.38959  0.57504  1.0000
  H   H482      1.0  0.66864  0.20535  0.49743  1.0000
  H   H483      1.0  0.85908  0.46904  0.68240  1.0000
  H   H484      1.0  0.59617  0.31890  0.55748  1.0000
  H   H485      1.0  0.74764  0.09266  0.62968  1.0000
  N   N43       1.0  0.63650  0.15272  0.47569  1.0000
  N   N44       1.0  0.75591  0.32667  0.59645  1.0000
  C   C505      1.0  0.63032  0.13000  0.44926  1.0000
  H   H486      1.0  0.92145  0.28768  0.42356  1.0000
  C   C506      1.0  0.65125  0.14193  0.42282  1.0000
  C   C507      1.0  0.67870  0.17723  0.42355  1.0000
  H   H487      1.0  0.65679  0.36475  0.44385  1.0000
  N   N45       1.0  0.01488  0.32645  0.68222  1.0000
  H   H488      1.0  0.01373  0.49129  0.37041  1.0000
  C   C508      1.0  0.79128  0.34878  0.58823  1.0000
  H   H489      1.0  0.76736  0.15975  0.60250  1.0000
  C   C509      1.0  0.84496  0.15683  0.66462  1.0000
  C   C510      1.0  0.77693  0.09412  0.61727  1.0000
  S   S174      1.0  0.79837  0.54320  0.41789  1.0000
  H   H490      1.0  0.72471  0.38311  0.61344  1.0000
  Fe  Fe92      1.0  0.55851  0.24218  0.40857  1.0000
  H   H491      1.0  0.83878  0.27113  0.54558  1.0000
  H   H492      1.0  0.69253  0.33556  0.61091  1.0000
  Fe  Fe93      1.0  0.58788  0.29075  0.46541  1.0000
  C   C511      1.0  0.59503  0.47376  0.42003  1.0000
  H   H493      1.0  0.98984  0.08550  0.52300  1.0000
  C   C512      1.0  0.01895  0.24159  0.46461  1.0000
  C   C513      1.0  0.82139  0.32931  0.56964  1.0000
  C   C514      1.0  0.66721  0.47034  0.45560  1.0000
  H   H494      1.0  0.87553  0.49398  0.53132  1.0000
  C   C515      1.0  0.56245  0.32347  0.55906  1.0000
  C   C516      1.0  0.64566  0.50967  0.45254  1.0000
  H   H495      1.0  0.84974  0.34678  0.56368  1.0000
  H   H496      1.0  0.69808  0.39300  0.46317  1.0000
  S   S175      1.0  0.56136  0.22420  0.45772  1.0000
  H   H497      1.0  0.79659  0.38153  0.59626  1.0000
  C   C517      1.0  0.75028  0.28454  0.58748  1.0000
  H   H498      1.0  0.00895  0.35948  0.42606  1.0000
  H   H499      1.0  0.69547  0.18670  0.40331  1.0000
  C   C518      1.0  0.82561  0.13316  0.58586  1.0000
  H   H500      1.0  0.82365  0.22159  0.65421  1.0000
  C   C519      1.0  0.78794  0.13174  0.60186  1.0000
  H   H501      1.0  0.73241  0.34007  0.64036  1.0000
  H   H502      1.0  0.69574  0.46937  0.46923  1.0000
  H   H503      1.0  0.64040  0.25519  0.36503  1.0000
  S   S176      1.0  0.87268  0.07319  0.67516  1.0000
  C   C520      1.0  0.67759  0.39358  0.44262  1.0000
  H   H504      1.0  0.72277  0.54089  0.49369  1.0000
  H   H505      1.0  0.59321  0.54196  0.43141  1.0000
  H   H506      1.0  0.65728  0.53890  0.46359  1.0000
  H   H507      1.0  0.56681  0.47451  0.40604  1.0000
  H   H508      1.0  0.00864  0.32533  0.39247  1.0000
  H   H509      1.0  0.53124  0.23152  0.52634  1.0000
  C   C521      1.0  0.78415  0.51335  0.50198  1.0000
  C   C522      1.0  0.87622  0.12565  0.65986  1.0000
  N   N46       1.0  0.82636  0.52130  0.50477  1.0000
  H   H510      1.0  0.89994  0.33714  0.65417  1.0000
  C   C523      1.0  0.85164  0.09659  0.58530  1.0000
  C   C524      1.0  0.94634  0.29532  0.67450  1.0000
  H   H511      1.0  0.70641  0.22746  0.45146  1.0000
  S   S177      1.0  0.80960  0.46993  0.36457  1.0000
  H   H512      1.0  0.60899  0.10254  0.44847  1.0000
  N   N47       1.0  0.65298  0.43370  0.44112  1.0000
  H   H513      1.0  0.97759  0.19192  0.48111  1.0000
  S   S178      1.0  0.95565  0.20328  0.36767  1.0000
  C   C525      1.0  0.99144  0.33369  0.41353  1.0000
  C   C526      1.0  0.94488  0.23774  0.45275  1.0000
  H   H514      1.0  0.77468  0.23083  0.56131  1.0000
  C   C527      1.0  0.95943  0.36955  0.66060  1.0000
  C   C528      1.0  0.68488  0.20012  0.45058  1.0000
  S   S179      1.0  0.59020  0.30641  0.41583  1.0000
  N   N48       1.0  0.98712  0.29508  0.43243  1.0000
  H   H515      1.0  0.92525  0.26780  0.67577  1.0000
  H   H516      1.0  0.96311  0.05388  0.47460  1.0000
  H   H517      1.0  0.77178  0.48083  0.50484  1.0000
  C   C529      1.0  0.61736  0.43501  0.42354  1.0000
  C   C530      1.0  0.98021  0.22081  0.46736  1.0000
  C   C531      1.0  0.61519  0.13879  0.50334  1.0000
  H   H518      1.0  0.83912  0.45509  0.51611  1.0000
  H   H519      1.0  0.87611  0.25059  0.36984  1.0000
  H   H520      1.0  0.91454  0.22206  0.45489  1.0000
  Fe  Fe94      1.0  0.54342  0.34914  0.66234  1.0000
  C   C532      1.0  0.82806  0.06212  0.36311  1.0000
  H   H521      1.0  0.76340  0.14773  0.35700  1.0000
  C   C533      1.0  0.75477  0.06906  0.38014  1.0000
  C   C534      1.0  0.98815  0.29185  0.68424  1.0000
  H   H522      1.0  0.72866  0.06715  0.36331  1.0000
  H   H523      1.0  0.81817  0.14928  0.67861  1.0000
  H   H524      1.0  0.94858  0.39999  0.65118  1.0000
  H   H525      1.0  0.97014  0.52436  0.35828  1.0000
  C   C535      1.0  0.55204  0.24766  0.54338  1.0000
  Fe  Fe95      1.0  0.82300  0.54153  0.59554  1.0000
  H   H526      1.0  0.55453  0.22708  0.56388  1.0000
  C   C536      1.0  0.00511  0.05737  0.51305  1.0000
  C   C537      1.0  0.00107  0.36496  0.67052  1.0000
  N   N49       1.0  0.53543  0.29031  0.55190  1.0000
  Fe  Fe96      1.0  0.02921  0.31801  0.58717  1.0000
  C   C538      1.0  0.75040  0.14492  0.88474  1.0000
  C   C539      1.0  0.94005  0.11832  0.99754  1.0000
  Fe  Fe97      1.0  0.95802  0.34046  0.78836  1.0000
  S   S180      1.0  0.95845  0.33355  0.83913  1.0000
  S   S181      1.0  0.93087  0.40117  0.76779  1.0000
  H   H527      1.0  0.96882  0.19896  0.91356  1.0000
  C   C540      1.0  0.66143  0.21063  0.75397  1.0000
  Fe  Fe98      1.0  0.95364  0.26178  0.83030  1.0000
  S   S182      1.0  0.91949  0.20615  0.85300  1.0000
  H   H528      1.0  0.61241  0.11750  0.73212  1.0000
  S   S183      1.0  0.94690  0.26949  0.77970  1.0000
  N   N50       1.0  0.66943  0.38295  0.87396  1.0000
  C   C541      1.0  0.74465  0.53335  0.98430  1.0000
  Fe  Fe99      1.0  0.78063  0.47743  0.90694  1.0000
  S   S184      1.0  0.79152  0.46721  0.85713  1.0000
  S   S185      1.0  0.78331  0.42640  0.94309  1.0000
  S   S186      1.0  0.54618  0.32651  0.71076  1.0000
  Fe  Fe100     1.0  0.73246  0.50595  0.85065  1.0000
  S   S187      1.0  0.67865  0.49261  0.81821  1.0000
  S   S188      1.0  0.71855  0.51053  0.90038  1.0000
  C   C542      1.0  0.91507  0.47274  0.01053  1.0000
  H   H529      1.0  0.68774  0.26236  0.01051  1.0000
  C   C543      1.0  0.73467  0.18160  0.89970  1.0000
  Fe  Fe101     1.0  0.77104  0.08189  0.76424  1.0000
  S   S189      1.0  0.75876  0.14096  0.79365  1.0000
  H   H530      1.0  0.92290  0.13497  0.81171  1.0000
  S   S190      1.0  0.75810  0.08305  0.71408  1.0000
  Fe  Fe102     1.0  0.77169  0.14257  0.98530  1.0000
  C   C544      1.0  0.61703  0.14919  0.74244  1.0000
  S   S191      1.0  0.79875  0.20504  0.96705  1.0000
  S   S192      1.0  0.79134  0.07370  0.97635  1.0000
  C   C545      1.0  0.77922  0.43938  0.74383  1.0000
  H   H531      1.0  0.66673  0.07879  0.88948  1.0000
  S   S193      1.0  0.70272  0.12823  0.98070  1.0000
  H   H532      1.0  0.69792  0.47666  0.72485  1.0000
  S   S194      1.0  0.66860  0.32373  0.73594  1.0000
  H   H533      1.0  0.74803  0.53419  0.00935  1.0000
  Fe  Fe103     1.0  0.59922  0.28616  0.93029  1.0000
  S   S195      1.0  0.58900  0.28870  0.87998  1.0000
  S   S196      1.0  0.66180  0.31102  0.94773  1.0000
  Fe  Fe104     1.0  0.56449  0.22115  0.88419  1.0000
  S   S197      1.0  0.57839  0.16596  0.85171  1.0000
  S   S198      1.0  0.57994  0.21633  0.93380  1.0000
  C   C546      1.0  0.70826  0.14801  0.80914  1.0000
  C   C547      1.0  0.69898  0.18632  0.82514  1.0000
  C   C548      1.0  0.65919  0.19238  0.83825  1.0000
  C   C549      1.0  0.62851  0.16006  0.83541  1.0000
  C   C550      1.0  0.63770  0.12198  0.81917  1.0000
  C   C551      1.0  0.67745  0.11591  0.80609  1.0000
  H   H534      1.0  0.72273  0.21130  0.82751  1.0000
  H   H535      1.0  0.65236  0.22186  0.85067  1.0000
  H   H536      1.0  0.61401  0.09694  0.81681  1.0000
  H   H537      1.0  0.68421  0.08637  0.79371  1.0000
  C   C552      1.0  0.67770  0.44657  0.79441  1.0000
  C   C553      1.0  0.64393  0.44105  0.77407  1.0000
  C   C554      1.0  0.64119  0.40386  0.75555  1.0000
  C   C555      1.0  0.67222  0.37193  0.75739  1.0000
  C   C556      1.0  0.70622  0.37759  0.77753  1.0000
  C   C557      1.0  0.70906  0.41491  0.79594  1.0000
  H   H538      1.0  0.61955  0.46546  0.77287  1.0000
  H   H539      1.0  0.61483  0.39968  0.74015  1.0000
  H   H540      1.0  0.73030  0.35289  0.77902  1.0000
  H   H541      1.0  0.73514  0.41888  0.81156  1.0000
  C   C558      1.0  0.99246  0.52921  0.85768  1.0000
  H   H542      1.0  0.96221  0.11302  0.97932  1.0000
  C   C559      1.0  0.66123  0.34341  0.98072  1.0000
  C   C560      1.0  0.89257  0.43790  0.71886  1.0000
  H   H543      1.0  0.59594  0.33200  0.99038  1.0000
  C   C561      1.0  0.83284  0.20520  0.93568  1.0000
  C   C562      1.0  0.84606  0.16652  0.92214  1.0000
  C   C563      1.0  0.87246  0.16761  0.89675  1.0000
  C   C564      1.0  0.88586  0.20728  0.88469  1.0000
  C   C565      1.0  0.87267  0.24603  0.89826  1.0000
  C   C566      1.0  0.84634  0.24494  0.92377  1.0000
  H   H544      1.0  0.83583  0.13576  0.93113  1.0000
  H   H545      1.0  0.88255  0.13749  0.88636  1.0000
  H   H546      1.0  0.88238  0.27684  0.88902  1.0000
  H   H547      1.0  0.83617  0.27507  0.93414  1.0000
  C   C567      1.0  0.89884  0.39952  0.73513  1.0000
  C   C568      1.0  0.87675  0.36205  0.72669  1.0000
  Fe  Fe105     1.0  0.01730  0.26390  0.77922  1.0000
  S   S199      1.0  0.81749  0.53916  0.91037  1.0000
  N   N51       1.0  0.72588  0.10878  0.88087  1.0000
  H   H548      1.0  0.88108  0.33246  0.73936  1.0000
  H   H549      1.0  0.73347  0.39769  0.88327  1.0000
  H   H550      1.0  0.68856  0.33253  0.84372  1.0000
  C   C569      1.0  0.91563  0.37886  0.96694  1.0000
  C   C570      1.0  0.90947  0.40714  0.94256  1.0000
  C   C571      1.0  0.86892  0.42186  0.93511  1.0000
  C   C572      1.0  0.83433  0.40811  0.95192  1.0000
  C   C573      1.0  0.84044  0.37968  0.97624  1.0000
  C   C574      1.0  0.88106  0.36510  0.98379  1.0000
  H   H551      1.0  0.93613  0.41781  0.92944  1.0000
  H   H552      1.0  0.86443  0.44364  0.91623  1.0000
  H   H553      1.0  0.81369  0.36907  0.98925  1.0000
  C   C575      1.0  0.82612  0.47467  0.77948  1.0000
  H   H554      1.0  0.62572  0.33915  0.81056  1.0000
  H   H555      1.0  0.90622  0.18705  0.70669  1.0000
  H   H556      1.0  0.68219  0.15393  0.72957  1.0000
  H   H557      1.0  0.01621  0.12505  0.76224  1.0000
  C   C576      1.0  0.55510  0.23098  0.78680  1.0000
  H   H558      1.0  0.57101  0.39399  0.82260  1.0000
  H   H559      1.0  0.58407  0.49951  0.95789  1.0000
  S   S200      1.0  0.96703  0.36267  0.97657  1.0000
  Fe  Fe106     1.0  0.72172  0.05843  0.97652  1.0000
  N   N52       1.0  0.70081  0.52415  0.97611  1.0000
  H   H560      1.0  0.00700  0.33229  0.91235  1.0000
  C   C577      1.0  0.84748  0.36353  0.70264  1.0000
  C   C578      1.0  0.69868  0.38887  0.01753  1.0000
  Fe  Fe107     1.0  0.82336  0.53239  0.85989  1.0000
  H   H561      1.0  0.71845  0.05379  0.85185  1.0000
  C   C579      1.0  0.69365  0.18114  0.91068  1.0000
  H   H562      1.0  0.76803  0.40978  0.73299  1.0000
  Fe  Fe108     1.0  0.82301  0.05564  0.70938  1.0000
  H   H563      1.0  0.85154  0.47309  0.79601  1.0000
  S   S201      1.0  0.02368  0.25244  0.82917  1.0000
  H   H564      1.0  0.95932  0.27394  0.89469  1.0000
  H   H565      1.0  0.58495  0.12699  0.00013  1.0000
  N   N53       1.0  0.76276  0.47866  0.73582  1.0000
  H   H566      1.0  0.63213  0.26208  0.77899  1.0000
  C   C580      1.0  0.58397  0.16980  0.75759  1.0000
  H   H567      1.0  0.63695  0.14316  0.91494  1.0000
  H   H568      1.0  0.75459  0.04697  0.88330  1.0000
  C   C581      1.0  0.80863  0.51454  0.77160  1.0000
  H   H569      1.0  0.73210  0.45433  0.69603  1.0000
  C   C582      1.0  0.68740  0.48208  0.97413  1.0000
  C   C583      1.0  0.66475  0.35645  0.84915  1.0000
  C   C584      1.0  0.66901  0.14399  0.90679  1.0000
  H   H570      1.0  0.63478  0.43899  0.96645  1.0000
  H   H571      1.0  0.90930  0.46708  0.72550  1.0000
  H   H572      1.0  0.71660  0.34460  0.89559  1.0000
  H   H573      1.0  0.69151  0.22715  0.75266  1.0000
  H   H574      1.0  0.72879  0.51188  0.70108  1.0000
  C   C585      1.0  0.59880  0.39102  0.83688  1.0000
  C   C586      1.0  0.01135  0.29960  0.92079  1.0000
  C   C587      1.0  0.70708  0.37909  0.89314  1.0000
  H   H575      1.0  0.97554  0.16264  0.72549  1.0000
  C   C588      1.0  0.98954  0.22470  0.92145  1.0000
  H   H576      1.0  0.80339  0.28006  0.00895  1.0000
  C   C589      1.0  0.72864  0.48048  0.71335  1.0000
  H   H577      1.0  0.75417  0.21022  0.90274  1.0000
  H   H578      1.0  0.84420  0.18530  0.74095  1.0000
  C   C590      1.0  0.56328  0.10157  0.99303  1.0000
  C   C591      1.0  0.74301  0.07011  0.86592  1.0000
  C   C592      1.0  0.62773  0.23021  0.76897  1.0000
  H   H579      1.0  0.68108  0.20949  0.92220  1.0000
  C   C593      1.0  0.64526  0.47248  0.96765  1.0000
  C   C594      1.0  0.77647  0.51593  0.74976  1.0000
  N   N54       1.0  0.58983  0.20951  0.77101  1.0000
  H   H580      1.0  0.56612  0.24500  0.80873  1.0000
  C   C595      1.0  0.72241  0.25846  0.00933  1.0000
  H   H581      1.0  0.58068  0.44286  0.86689  1.0000
  H   H582      1.0  0.85316  0.15988  0.79395  1.0000
  H   H583      1.0  0.55354  0.15396  0.75847  1.0000
  C   C596      1.0  0.62456  0.34798  0.99767  1.0000
  C   C597      1.0  0.91932  0.14608  0.78856  1.0000
  S   S202      1.0  0.83799  0.05979  0.75903  1.0000
  H   H584      1.0  0.97652  0.45671  0.99351  1.0000
  C   C598      1.0  0.02181  0.21595  0.94211  1.0000
  C   C599      1.0  0.99462  0.13394  0.78101  1.0000
  Fe  Fe109     1.0  0.61471  0.31414  0.70266  1.0000
  C   C600      1.0  0.90951  0.17553  0.72974  1.0000
  C   C601      1.0  0.69828  0.36402  0.99064  1.0000
  C   C602      1.0  0.62933  0.35999  0.83030  1.0000
  H   H585      1.0  0.70949  0.45574  0.97741  1.0000
  C   C603      1.0  0.98418  0.26678  0.91078  1.0000
  H   H586      1.0  0.76615  0.50815  0.97508  1.0000
  H   H587      1.0  0.72686  0.36050  0.97762  1.0000
  H   H588      1.0  0.64445  0.43614  0.89918  1.0000
  H   H589      1.0  0.88573  0.34324  0.00255  1.0000
  C   C604      1.0  0.87484  0.17470  0.74895  1.0000
  H   H590      1.0  0.78214  0.14578  0.87591  1.0000
  H   H591      1.0  0.82414  0.40565  0.77209  1.0000
  H   H592      1.0  0.70133  0.39129  0.91653  1.0000
  C   C605      1.0  0.68589  0.10774  0.89206  1.0000
  C   C606      1.0  0.81086  0.43677  0.76593  1.0000
  C   C607      1.0  0.94867  0.16148  0.74048  1.0000
  N   N55       1.0  0.95308  0.14673  0.76952  1.0000
  C   C608      1.0  0.60420  0.41844  0.86187  1.0000
  C   C609      1.0  0.87978  0.16021  0.77865  1.0000
  H   H593      1.0  0.90800  0.17041  0.97424  1.0000
  C   C610      1.0  0.64013  0.41423  0.88012  1.0000
  H   H594      1.0  0.99216  0.10540  0.79612  1.0000
  C   C611      1.0  0.90976  0.15098  0.99462  1.0000
  Fe  Fe110     1.0  0.53653  0.25971  0.69055  1.0000
  C   C612      1.0  0.65607  0.16971  0.74084  1.0000
  H   H595      1.0  0.60897  0.06767  0.96579  1.0000
  H   H596      1.0  0.00897  0.16142  0.79385  1.0000
  H   H597      1.0  0.54168  0.25690  0.77229  1.0000
  H   H598      1.0  0.90168  0.47904  0.98828  1.0000
  H   H599      1.0  0.99486  0.43449  0.84568  1.0000
  H   H600      1.0  0.96171  0.52333  0.86735  1.0000
  C   C613      1.0  0.61686  0.50637  0.96302  1.0000
  C   C614      1.0  0.86390  0.43916  0.69454  1.0000
  S   S203      1.0  0.02797  0.33567  0.78326  1.0000
  H   H601      1.0  0.76908  0.07858  0.85034  1.0000
  C   C615      1.0  0.98635  0.46058  0.82950  1.0000
  H   H602      1.0  0.95171  0.46589  0.82993  1.0000
  C   C616      1.0  0.57675  0.06834  0.97380  1.0000
  Fe  Fe111     1.0  0.02811  0.32504  0.83345  1.0000
  S   S204      1.0  0.53557  0.31276  0.94160  1.0000
  H   H603      1.0  0.82961  0.33480  0.69664  1.0000
  H   H604      1.0  0.73168  0.26705  0.98583  1.0000
  H   H605      1.0  0.52952  0.20773  0.79219  1.0000
  H   H606      1.0  0.02641  0.18335  0.95060  1.0000
  N   N56       1.0  0.00922  0.50048  0.83730  1.0000
  H   H607      1.0  0.99385  0.44933  0.80614  1.0000
  C   C617      1.0  0.95706  0.46037  0.01349  1.0000
  H   H608      1.0  0.73048  0.22395  0.01332  1.0000
  Fe  Fe112     1.0  0.97377  0.31882  0.01689  1.0000
  H   H609      1.0  0.99933  0.26118  0.69307  1.0000
  H   H610      1.0  0.85897  0.18468  0.01669  1.0000
  S   S205      1.0  0.88378  0.54392  0.83493  1.0000
  H   H611      1.0  0.82003  0.54410  0.78238  1.0000
  S   S206      1.0  0.94596  0.25239  0.01955  1.0000
  C   C618      1.0  0.88226  0.15908  0.01849  1.0000
  Fe  Fe113     1.0  0.01757  0.84140  0.28972  1.0000
  S   S207      1.0  0.70146  0.57737  0.16710  1.0000
  S   S208      1.0  0.81952  0.57073  0.03890  1.0000
  S   S209      1.0  0.58869  0.84458  0.23886  1.0000
  H   H612      1.0  0.85734  0.68213  0.11439  1.0000
  C   C619      1.0  0.87591  0.82056  0.31804  1.0000
  H   H613      1.0  0.81529  0.62030  0.09490  1.0000
  C   C620      1.0  0.70499  0.04443  0.13551  1.0000
  N   N57       1.0  0.78026  0.04062  0.13180  1.0000
  C   C621      1.0  0.88416  0.63002  0.03671  1.0000
  C   C622      1.0  0.90801  0.66539  0.04771  1.0000
  S   S210      1.0  0.02105  0.84404  0.34052  1.0000
  C   C623      1.0  0.74292  0.02251  0.14035  1.0000
  Fe  Fe114     1.0  0.97398  0.76323  0.06065  1.0000
  S   S211      1.0  0.92525  0.73057  0.08962  1.0000
  H   H614      1.0  0.98184  0.55084  0.30046  1.0000
  H   H615      1.0  0.97193  0.69017  0.33124  1.0000
  S   S212      1.0  0.78705  0.02193  0.22346  1.0000
  C   C624      1.0  0.81906  0.87381  0.32527  1.0000
  Fe  Fe115     1.0  0.79723  0.03554  0.27299  1.0000
  H   H616      1.0  0.81974  0.98808  0.11979  1.0000
  H   H617      1.0  0.95713  0.78121  0.14381  1.0000
  S   S213      1.0  0.99573  0.89754  0.26107  1.0000
  H   H618      1.0  0.98512  0.84412  0.17360  1.0000
  S   S214      1.0  0.82836  0.98925  0.30573  1.0000
  C   C625      1.0  0.92168  0.93881  0.04892  1.0000
  C   C626      1.0  0.89178  0.96764  0.06109  1.0000
  H   H619      1.0  0.93800  0.91626  0.06353  1.0000
  H   H620      1.0  0.88517  0.96701  0.08510  1.0000
  C   C627      1.0  0.87609  0.96608  0.29350  1.0000
  C   C628      1.0  0.89846  0.93878  0.31312  1.0000
  C   C629      1.0  0.93506  0.91760  0.30330  1.0000
  C   C630      1.0  0.95009  0.92428  0.27397  1.0000
  C   C631      1.0  0.92850  0.95272  0.25466  1.0000
  C   C632      1.0  0.89145  0.97341  0.26433  1.0000
  H   H621      1.0  0.86927  0.76659  0.02466  1.0000
  H   H622      1.0  0.95179  0.89640  0.31853  1.0000
  H   H623      1.0  0.94003  0.95826  0.23199  1.0000
  H   H624      1.0  0.87466  0.99471  0.24909  1.0000
  C   C633      1.0  0.64371  0.97768  0.21597  1.0000
  C   C634      1.0  0.66080  0.95323  0.23963  1.0000
  C   C635      1.0  0.64366  0.91241  0.24651  1.0000
  C   C636      1.0  0.60974  0.89566  0.22956  1.0000
  C   C637      1.0  0.59268  0.92012  0.20590  1.0000
  C   C638      1.0  0.60954  0.96110  0.19922  1.0000
  H   H625      1.0  0.68711  0.96578  0.25268  1.0000
  H   H626      1.0  0.65694  0.89361  0.26484  1.0000
  H   H627      1.0  0.56652  0.90750  0.19272  1.0000
  H   H628      1.0  0.59618  0.97985  0.18089  1.0000
  C   C639      1.0  0.01337  0.55676  0.30912  1.0000
  H   H629      1.0  0.55685  0.90034  0.29283  1.0000
  S   S215      1.0  0.66400  0.02919  0.20691  1.0000
  H   H630      1.0  0.56215  0.84073  0.04438  1.0000
  S   S216      1.0  0.53795  0.68667  0.13478  1.0000
  Fe  Fe116     1.0  0.99309  0.84543  0.02559  1.0000
  H   H631      1.0  0.57799  0.83243  0.30976  1.0000
  H   H632      1.0  0.74225  0.99085  0.15092  1.0000
  C   C640      1.0  0.53817  0.77665  0.31398  1.0000
  C   C641      1.0  0.54622  0.82008  0.30712  1.0000
  C   C642      1.0  0.94576  0.67783  0.34413  1.0000
  C   C643      1.0  0.65781  0.60980  0.15682  1.0000
  C   C644      1.0  0.64457  0.64320  0.17636  1.0000
  C   C645      1.0  0.60861  0.66802  0.16943  1.0000
  C   C646      1.0  0.58537  0.65919  0.14302  1.0000
  C   C647      1.0  0.59868  0.62587  0.12348  1.0000
  C   C648      1.0  0.63475  0.60133  0.13030  1.0000
  H   H633      1.0  0.66214  0.64991  0.19698  1.0000
  H   H634      1.0  0.59859  0.69356  0.18470  1.0000
  H   H635      1.0  0.58069  0.61866  0.10313  1.0000
  H   H636      1.0  0.64411  0.57532  0.11530  1.0000
  C   C649      1.0  0.85080  0.61331  0.05378  1.0000
  C   C650      1.0  0.84151  0.63210  0.08188  1.0000
  C   C651      1.0  0.86518  0.66743  0.09280  1.0000
  C   C652      1.0  0.89826  0.68444  0.07571  1.0000
  Fe  Fe117     1.0  0.99352  0.77700  0.33792  1.0000
  H   H637      1.0  0.96620  0.03556  0.04301  1.0000
  C   C653      1.0  0.81929  0.01600  0.13586  1.0000
  H   H638      1.0  0.00541  0.72352  0.12681  1.0000
  H   H639      1.0  0.75593  0.56873  0.24135  1.0000
  H   H640      1.0  0.87133  0.78479  0.31806  1.0000
  C   C654      1.0  0.53873  0.85093  0.06159  1.0000
  Fe  Fe118     1.0  0.53901  0.81754  0.20713  1.0000
  H   H641      1.0  0.82214  0.00432  0.15953  1.0000
  H   H642      1.0  0.53303  0.77416  0.08873  1.0000
  H   H643      1.0  0.57425  0.58541  0.18689  1.0000
  H   H644      1.0  0.55352  0.85163  0.08450  1.0000
  C   C655      1.0  0.99039  0.78331  0.14942  1.0000
  S   S217      1.0  0.98525  0.77676  0.28740  1.0000
  C   C656      1.0  0.87018  0.99683  0.04228  1.0000
  H   H645      1.0  0.90783  0.82770  0.32720  1.0000
  H   H646      1.0  0.82228  0.88397  0.30188  1.0000
  S   S218      1.0  0.54667  0.81004  0.15686  1.0000
  H   H647      1.0  0.56318  0.75589  0.32239  1.0000
  H   H648      1.0  0.58175  0.62872  0.35045  1.0000
  C   C657      1.0  0.78970  0.89509  0.34359  1.0000
  H   H649      1.0  0.93355  0.67825  0.03440  1.0000
  H   H650      1.0  0.94931  0.61407  0.32443  1.0000
  H   H651      1.0  0.87481  0.83185  0.29415  1.0000
  S   S219      1.0  0.99730  0.82931  0.07518  1.0000
  H   H652      1.0  0.88735  0.93378  0.33595  1.0000
  C   C658      1.0  0.78196  0.54642  0.23816  1.0000
  S   S220      1.0  0.88517  0.56312  0.35173  1.0000
  C   C659      1.0  0.55460  0.56176  0.17525  1.0000
  C   C660      1.0  0.93306  0.63457  0.34037  1.0000
  H   H653      1.0  0.67541  0.02983  0.14216  1.0000
  S   S221      1.0  0.83349  0.03324  0.05829  1.0000
  N   N58       1.0  0.84409  0.84177  0.33693  1.0000
  H   H654      1.0  0.76554  0.67919  0.03661  1.0000
  H   H655      1.0  0.77064  0.92114  0.33437  1.0000
  H   H656      1.0  0.84751  0.03623  0.13135  1.0000
  C   C661      1.0  0.01795  0.75077  0.13974  1.0000
  S   S222      1.0  0.76192  0.56294  0.34925  1.0000
  H   H657      1.0  0.81024  0.73985  0.05586  1.0000
  H   H658      1.0  0.78492  0.55636  0.18998  1.0000
  C   C662      1.0  0.81601  0.72565  0.03368  1.0000
  C   C663      1.0  0.79102  0.69158  0.02292  1.0000
  C   C664      1.0  0.00610  0.81856  0.16601  1.0000
  H   H659      1.0  0.02842  0.60271  0.27387  1.0000
  S   S223      1.0  0.69749  0.60684  0.42389  1.0000
  H   H660      1.0  0.95212  0.60889  0.54651  1.0000
  S   S224      1.0  0.72861  0.95933  0.43238  1.0000
  C   C665      1.0  0.89906  0.61806  0.35670  1.0000
  H   H661      1.0  0.99437  0.67226  0.56309  1.0000
  S   S225      1.0  0.56569  0.86370  0.48076  1.0000
  H   H662      1.0  0.94462  0.71776  0.44015  1.0000
  S   S226      1.0  0.81693  0.04202  0.45187  1.0000
  C   C666      1.0  0.91751  0.97211  0.51359  1.0000
  C   C667      1.0  0.95204  0.95728  0.53055  1.0000
  C   C668      1.0  0.97254  0.91855  0.52249  1.0000
  H   H663      1.0  0.96316  0.97593  0.54987  1.0000
  H   H664      1.0  0.99951  0.90789  0.53542  1.0000
  C   C669      1.0  0.68308  0.93341  0.44594  1.0000
  C   C670      1.0  0.66321  0.90164  0.42800  1.0000
  C   C671      1.0  0.62704  0.88037  0.43842  1.0000
  C   C672      1.0  0.61054  0.89068  0.46689  1.0000
  C   C673      1.0  0.63035  0.92256  0.48482  1.0000
  C   C674      1.0  0.66650  0.94396  0.47438  1.0000
  H   H665      1.0  0.67587  0.89330  0.40602  1.0000
  H   H666      1.0  0.61243  0.85547  0.42461  1.0000
  H   H667      1.0  0.61739  0.93112  0.50663  1.0000
  H   H668      1.0  0.68149  0.96861  0.48827  1.0000
  C   C675      1.0  0.65180  0.63209  0.40933  1.0000
  C   C676      1.0  0.63344  0.66599  0.42601  1.0000
  C   C677      1.0  0.59690  0.68679  0.41540  1.0000
  C   C678      1.0  0.57805  0.67344  0.38816  1.0000
  N   N59       1.0  0.53616  0.55916  0.66159  1.0000
  C   C679      1.0  0.63302  0.61869  0.38203  1.0000
  H   H669      1.0  0.64777  0.67651  0.44715  1.0000
  H   H670      1.0  0.58339  0.71315  0.42835  1.0000
  S   S227      1.0  0.02255  0.83349  0.57099  1.0000
  H   H671      1.0  0.91653  0.68652  0.64165  1.0000
  H   H672      1.0  0.99847  0.98911  0.45238  1.0000
  Fe  Fe119     1.0  0.73569  0.55879  0.39646  1.0000
  H   H673      1.0  0.87408  0.62267  0.62505  1.0000
  C   C680      1.0  0.94413  0.62588  0.56722  1.0000
  S   S228      1.0  0.56281  0.70867  0.61789  1.0000
  C   C681      1.0  0.64273  0.87002  0.62519  1.0000
  S   S229      1.0  0.98782  0.72986  0.61523  1.0000
  S   S230      1.0  0.88102  0.56623  0.57157  1.0000
  S   S231      1.0  0.98439  0.84597  0.48647  1.0000
  C   C682      1.0  0.59612  0.63921  0.37157  1.0000
  C   C683      1.0  0.95871  0.89438  0.49736  1.0000
  C   C684      1.0  0.92439  0.90944  0.48023  1.0000
  C   C685      1.0  0.90364  0.94805  0.48843  1.0000
  H   H674      1.0  0.91362  0.89104  0.46069  1.0000
  H   H675      1.0  0.87715  0.95934  0.47514  1.0000
  H   H676      1.0  0.75012  0.61520  0.48595  1.0000
  C   C686      1.0  0.67251  0.62831  0.65496  1.0000
  H   H677      1.0  0.87093  0.00763  0.62353  1.0000
  C   C687      1.0  0.61850  0.68323  0.66251  1.0000
  C   C688      1.0  0.60593  0.67909  0.63218  1.0000
  C   C689      1.0  0.62676  0.64951  0.61324  1.0000
  C   C690      1.0  0.65995  0.62413  0.62460  1.0000
  C   C691      1.0  0.86869  0.02216  0.60057  1.0000
  C   C692      1.0  0.84173  0.56235  0.50107  1.0000
  H   H678      1.0  0.61710  0.64598  0.58978  1.0000
  H   H679      1.0  0.67565  0.60120  0.60990  1.0000
  C   C693      1.0  0.91000  0.61166  0.58452  1.0000
  C   C694      1.0  0.90021  0.63354  0.61147  1.0000
  C   C695      1.0  0.92432  0.66968  0.62084  1.0000
  C   C696      1.0  0.95793  0.68441  0.60315  1.0000
  C   C697      1.0  0.96792  0.66210  0.57645  1.0000
  H   H680      1.0  0.58510  0.56388  0.62902  1.0000
  H   H681      1.0  0.00023  0.81561  0.65056  1.0000
  H   H682      1.0  0.54851  0.73639  0.55194  1.0000
  C   C698      1.0  0.01651  0.78841  0.42411  1.0000
  H   H683      1.0  0.94001  0.77555  0.44076  1.0000
  H   H684      1.0  0.87384  0.70950  0.39648  1.0000
  H   H685      1.0  0.95968  0.74870  0.47393  1.0000
  H   H686      1.0  0.54171  0.62557  0.64908  1.0000
  H   H687      1.0  0.65891  0.94655  0.55736  1.0000
  S   S232      1.0  0.71350  0.59651  0.67003  1.0000
  S   S233      1.0  0.77307  0.99985  0.51264  1.0000
  Fe  Fe120     1.0  0.83128  0.03754  0.50171  1.0000
  C   C699      1.0  0.68985  0.97880  0.60897  1.0000
  H   H688      1.0  0.60310  0.70625  0.67723  1.0000
  H   H689      1.0  0.02326  0.59625  0.60748  1.0000
  C   C700      1.0  0.01025  0.00361  0.47324  1.0000
  S   S234      1.0  0.94078  0.75911  0.36944  1.0000
  H   H690      1.0  0.70764  0.98058  0.63075  1.0000
  H   H691      1.0  0.01908  0.68784  0.45274  1.0000
  Fe  Fe121     1.0  0.75575  0.01001  0.46383  1.0000
  N   N60       1.0  0.00288  0.75121  0.43762  1.0000
  N   N61       1.0  0.66942  0.93653  0.60464  1.0000
  H   H692      1.0  0.90119  0.03102  0.59385  1.0000
  S   S235      1.0  0.89390  0.02195  0.52350  1.0000
  C   C701      1.0  0.62782  0.85781  0.59653  1.0000
  C   C702      1.0  0.77159  0.58897  0.49144  1.0000
  H   H693      1.0  0.82694  0.62932  0.49174  1.0000
  H   H694      1.0  0.71236  0.98527  0.59036  1.0000
  C   C703      1.0  0.92461  0.70492  0.36444  1.0000
  Fe  Fe122     1.0  0.74772  0.55422  0.63648  1.0000
  H   H695      1.0  0.86036  0.80449  0.37583  1.0000
  C   C704      1.0  0.89043  0.68863  0.38081  1.0000
  C   C705      1.0  0.95966  0.74801  0.44874  1.0000
  S   S236      1.0  0.02601  0.74380  0.53040  1.0000
  S   S237      1.0  0.53508  0.81792  0.65985  1.0000
  H   H696      1.0  0.99543  0.81576  0.42134  1.0000
  C   C706      1.0  0.99045  0.03992  0.48569  1.0000
  H   H697      1.0  0.66579  0.00495  0.60920  1.0000
  C   C707      1.0  0.87752  0.64524  0.37685  1.0000
  H   H698      1.0  0.80833  0.84091  0.40910  1.0000
  H   H699      1.0  0.87511  0.56869  0.50381  1.0000
  H   H700      1.0  0.01912  0.88681  0.63478  1.0000
  C   C708      1.0  0.65461  0.92502  0.57648  1.0000
  H   H701      1.0  0.62240  0.87617  0.54950  1.0000
  H   H702      1.0  0.61167  0.82701  0.59345  1.0000
  H   H703      1.0  0.85116  0.63276  0.38949  1.0000
  H   H704      1.0  0.85653  0.99778  0.58404  1.0000
  C   C709      1.0  0.66371  0.90965  0.62883  1.0000
  S   S238      1.0  0.75838  0.56866  0.58732  1.0000
  H   H705      1.0  0.64689  0.59255  0.36902  1.0000
  C   C710      1.0  0.65159  0.65780  0.67388  1.0000
  H   H706      1.0  0.67536  0.91875  0.65116  1.0000
  H   H707      1.0  0.01910  0.74783  0.67674  1.0000
  H   H708      1.0  0.60205  0.95402  0.67413  1.0000
  S   S239      1.0  0.53568  0.82395  0.39493  1.0000
  C   C711      1.0  0.63383  0.88539  0.57194  1.0000
  Fe  Fe123     1.0  0.02786  0.76202  0.57963  1.0000
  C   C712      1.0  0.81464  0.59680  0.49442  1.0000
  H   H709      1.0  0.63799  0.84900  0.64455  1.0000
  H   H710      1.0  0.82869  0.02896  0.37113  1.0000
  C   C713      1.0  0.57858  0.54824  0.65114  1.0000
  H   H711      1.0  0.76317  0.89955  0.38837  1.0000
  H   H712      1.0  0.79570  0.02958  0.62914  1.0000
  S   S240      1.0  0.53171  0.69865  0.37457  1.0000
  C   C714      1.0  0.02782  0.81517  0.66520  1.0000
  H   H713      1.0  0.76010  0.03590  0.38921  1.0000
  H   H714      1.0  0.60242  0.55973  0.66795  1.0000
  C   C715      1.0  0.81116  0.85029  0.38553  1.0000
  C   C716      1.0  0.78575  0.88318  0.37389  1.0000
  H   H715      1.0  0.02183  0.91281  0.67174  1.0000
  C   C717      1.0  0.84041  0.82984  0.36662  1.0000
  Fe  Fe124     1.0  0.02663  0.81555  0.52186  1.0000
  C   C718      1.0  0.75620  0.54709  0.49546  1.0000
  H   H716      1.0  0.52972  0.80681  0.52875  1.0000
  H   H717      1.0  0.95311  0.58763  0.80695  1.0000
  S   S241      1.0  0.73874  0.63133  0.92708  1.0000
  S   S242      1.0  0.01666  0.74798  0.77691  1.0000
  H   H718      1.0  0.98401  0.66085  0.81498  1.0000
  H   H719      1.0  0.88882  0.68924  0.88084  1.0000
  C   C719      1.0  0.88052  0.81494  0.74650  1.0000
  S   S243      1.0  0.84301  0.94072  0.78972  1.0000
  H   H720      1.0  0.85820  0.61589  0.87306  1.0000
  S   S244      1.0  0.68790  0.01705  0.94116  1.0000
  C   C720      1.0  0.80000  0.67258  0.99480  1.0000
  C   C721      1.0  0.93907  0.60975  0.82312  1.0000
  S   S245      1.0  0.56806  0.83610  0.74431  1.0000
  H   H721      1.0  0.54512  0.81777  0.83051  1.0000
  S   S246      1.0  0.67976  0.99083  0.69461  1.0000
  C   C722      1.0  0.95657  0.65117  0.82763  1.0000
  S   S247      1.0  0.02023  0.86485  0.75038  1.0000
  C   C723      1.0  0.01421  0.56711  0.86578  1.0000
  S   S248      1.0  0.95975  0.73180  0.85474  1.0000
  S   S249      1.0  0.80151  0.98620  0.71111  1.0000
  H   H722      1.0  0.83007  0.86015  0.82892  1.0000
  H   H723      1.0  0.58349  0.90088  0.92545  1.0000
  H   H724      1.0  0.66122  0.66121  0.69737  1.0000
  H   H725      1.0  0.55860  0.89343  0.69260  1.0000
  H   H726      1.0  0.00024  0.59044  0.88127  1.0000
  C   C724      1.0  0.67305  0.55756  0.97220  1.0000
  H   H727      1.0  0.91687  0.97059  0.97535  1.0000
  C   C725      1.0  0.64972  0.97931  0.95361  1.0000
  C   C726      1.0  0.63008  0.95130  0.93257  1.0000
  C   C727      1.0  0.59844  0.92224  0.94183  1.0000
  C   C728      1.0  0.58607  0.92123  0.97223  1.0000
  C   C729      1.0  0.60560  0.94931  0.99317  1.0000
  C   C730      1.0  0.63729  0.97806  0.98396  1.0000
  H   H728      1.0  0.63934  0.95207  0.90902  1.0000
  H   H729      1.0  0.82875  0.85611  0.75845  1.0000
  C   C731      1.0  0.02365  0.86500  0.93676  1.0000
  H   H730      1.0  0.65152  0.99968  0.00036  1.0000
  C   C732      1.0  0.89384  0.92323  0.77933  1.0000
  C   C733      1.0  0.91595  0.89540  0.79875  1.0000
  C   C734      1.0  0.95459  0.87744  0.78997  1.0000
  C   C735      1.0  0.97201  0.88787  0.76194  1.0000
  C   C736      1.0  0.95035  0.91642  0.74269  1.0000
  C   C737      1.0  0.91127  0.93396  0.75130  1.0000
  H   H731      1.0  0.90294  0.88720  0.82055  1.0000
  H   H732      1.0  0.97082  0.85546  0.80495  1.0000
  H   H733      1.0  0.96366  0.92477  0.72100  1.0000
  H   H734      1.0  0.89449  0.95541  0.73614  1.0000
  C   C738      1.0  0.64820  0.94937  0.70998  1.0000
  C   C739      1.0  0.65960  0.92763  0.73654  1.0000
  C   C740      1.0  0.63458  0.89327  0.74719  1.0000
  C   C741      1.0  0.59851  0.88002  0.73107  1.0000
  Fe  Fe125     1.0  0.75615  0.57190  0.89978  1.0000
  H   H735      1.0  0.99054  0.87323  0.93520  1.0000
  H   H736      1.0  0.68786  0.93696  0.74873  1.0000
  H   H737      1.0  0.64369  0.87644  0.76765  1.0000
  S   S250      1.0  0.76516  0.57059  0.84940  1.0000
  C   C742      1.0  0.68566  0.64660  0.92286  1.0000
  C   C743      1.0  0.67050  0.68382  0.93767  1.0000
  C   C744      1.0  0.62760  0.69485  0.93581  1.0000
  C   C745      1.0  0.59973  0.66817  0.91955  1.0000
  C   C746      1.0  0.61502  0.63112  0.90470  1.0000
  C   C747      1.0  0.65788  0.62059  0.90609  1.0000
  H   H738      1.0  0.69185  0.70405  0.95073  1.0000
  H   H739      1.0  0.61595  0.72338  0.94744  1.0000
  H   H740      1.0  0.59359  0.61047  0.89201  1.0000
  H   H741      1.0  0.66925  0.59208  0.89436  1.0000
  C   C748      1.0  0.90378  0.59676  0.83965  1.0000
  C   C749      1.0  0.88555  0.62559  0.86035  1.0000
  C   C750      1.0  0.90292  0.66706  0.86476  1.0000
  C   C751      1.0  0.93857  0.67981  0.84857  1.0000
  H   H742      1.0  0.59609  0.94896  0.01668  1.0000
  H   H743      1.0  0.98704  0.78218  0.92941  1.0000
  C   C752      1.0  0.63080  0.54923  0.96523  1.0000
  S   S251      1.0  0.54512  0.88717  0.98491  1.0000
  H   H744      1.0  0.87208  0.77162  0.82809  1.0000
  H   H745      1.0  0.98890  0.81200  0.89413  1.0000
  H   H746      1.0  0.86331  0.02031  0.99669  1.0000
  S   S252      1.0  0.96945  0.90574  0.00183  1.0000
  H   H747      1.0  0.78065  0.64588  0.98671  1.0000
  S   S253      1.0  0.74568  0.01471  0.77111  1.0000
  H   H748      1.0  0.82163  0.68158  0.93080  1.0000
  H   H749      1.0  0.02426  0.76780  0.90083  1.0000
  C   C753      1.0  0.84929  0.74058  0.01616  1.0000
  N   N62       1.0  0.83330  0.68675  0.97806  1.0000
  C   C754      1.0  0.84183  0.66656  0.94853  1.0000
  S   S254      1.0  0.53879  0.80770  0.91089  1.0000
  S   S255      1.0  0.96459  0.78149  0.01200  1.0000
  H   H750      1.0  0.88378  0.73220  0.97489  1.0000
  H   H751      1.0  0.68355  0.59094  0.97424  1.0000
  Fe  Fe126     1.0  0.73750  0.01376  0.72046  1.0000
  C   C755      1.0  0.90982  0.96955  0.99930  1.0000
  H   H752      1.0  0.87541  0.67007  0.94211  1.0000
  Fe  Fe127     1.0  0.81184  0.99248  0.76129  1.0000
  H   H753      1.0  0.92603  0.74207  0.79393  1.0000
  C   C756      1.0  0.90456  0.76680  0.78581  1.0000
  H   H754      1.0  0.55908  0.00999  0.95005  1.0000
  C   C757      1.0  0.87359  0.78343  0.80499  1.0000
  H   H755      1.0  0.53789  0.91101  0.78451  1.0000
  C   C758      1.0  0.00806  0.79568  0.91183  1.0000
  C   C759      1.0  0.90826  0.78298  0.75649  1.0000
  N   N63       1.0  0.84620  0.81447  0.79490  1.0000
  C   C760      1.0  0.84933  0.83024  0.76606  1.0000
  H   H756      1.0  0.60908  0.57595  0.96161  1.0000
  C   C761      1.0  0.58685  0.90233  0.70481  1.0000
  C   C762      1.0  0.81533  0.83316  0.81579  1.0000
  H   H757      1.0  0.88387  0.82870  0.72409  1.0000
  Fe  Fe128     1.0  0.01749  0.74784  0.82764  1.0000
  C   C763      1.0  0.56325  0.78790  0.82523  1.0000
  H   H758      1.0  0.78785  0.84666  0.80331  1.0000
  H   H759      1.0  0.80339  0.80835  0.83172  1.0000
  H   H760      1.0  0.97913  0.04300  0.00415  1.0000
  H   H761      1.0  0.58230  0.79367  0.80459  1.0000
  H   H762      1.0  0.93304  0.77134  0.74175  1.0000
  H   H763      1.0  0.83477  0.63123  0.94898  1.0000
  C   C764      1.0  0.85751  0.72071  0.98818  1.0000
  S   S256      1.0  0.54534  0.67846  0.91828  1.0000
  C   C765      1.0  0.87935  0.99770  0.01134  1.0000
  C   C766      1.0  0.54848  0.03561  0.96513  1.0000
  C   C767      1.0  0.61144  0.93695  0.69443  1.0000
  H   H764      1.0  0.53443  0.73402  0.86734  1.0000
  H   H765      1.0  0.75517  0.56491  0.97501  1.0000
  H   H766      1.0  0.58550  0.78144  0.84423  1.0000
  N   N64       1.0  0.53412  0.75153  0.82066  1.0000
  H   H767      1.0  0.89147  0.61574  0.01491  1.0000
  C   C768      1.0  0.93082  0.93975  0.01795  1.0000
  H   H768      1.0  0.76270  0.54699  0.74387  1.0000
