data_image0
_chemical_formula_structural       SNCSCNC3HNHCH4FeC3HC2HSH4CFeCHCSCHC2Fe2SHFeCHCH2S2FeS2FeH2C3SC4H2CH4CHC2SCH4CH2C2HCSCH2FeSFeSCFeSFeS2FeS2H2CH2CFeCH2CNH2CSCSC2HNHCFeHSHCFeHCH2CHC5HC3HSC6H5C3HCH2CSH3N2CHC2HCFeCSH2C2H2SCH2CSH2CHSH2SCHCFeH2C4H3NCH3CH3SCHCHFeS2C2FeS2CHFeSHFeSFeCSC2HSCH4CHCSHCH3CSH2C7H4C2H2SCH2CHCFeSHSCFeH5CNC2SC3HCHCH3CSH2CFeS2FeSCFeSFeS3C2SHFeCSHCS2C6H3C3HCHNHC6H2SHCHC3HC2H2FeC2H3CH2C2H4NC2H2CNC2HC2HCH2C2SC2HCHNH6C2HCHSHNH4FeC2HCHC2SFeH3CFeS2FeSHFeHFeS2HFeS2FeS2FeSFeS3HC2H2FeSFeS2FeHCHCSC4HCH2CHC6H4C6H5C8H3CSHNSH2FeHCHCSCNC4HCH5CH2SFeCH3CH2SCHC2H2C2SHC5SNC4NH2CHCH2CHCH4FeHC2H4CNSCSHFeS2FeHSFeS2FeSFeS2C2H3FeS2FeS2C6H3C6H2SC3H2C6H5FeSHCHNSHC2H2SH2C2HC3HCHCHCNC2HCH3CSFeH3C6HC3HC2H2FeSHSC2SHC2SFeCNC2H4CNC6H9CH3CH3SHC2FeCHCH2SCHCHSNHFeS2FeH2CS2HSCFeSHFeS2C3SHFeHFeSHCH2FeSHFeS2FeSFeS3C7H3C6H4CHCHC6H4C3NH2CHFeCHC6H5CHC9HC3H2CH2FeCH2CNCH3C2SC3S4HC2H4NHSCHCHNC6H9C2HSCHC2HC2HNCHN2C2SH2CSH2SCHCHC2FeH9FeCSFeHSCNFeHS2CFeS2CFeS3CHCSHC6H4C2HCH3NHCH3NHSCHC2HC2HCSC3HCH2FeH2CH4CH2CH3SC2HCHCFeCHNC3HCH2CH7SCH2C2FeSHFeS2FeS2FeSFeS3C6H4C6H3C6H5FeC2HC4HNC2H2C2HCH2NH2SC2SCH3SCHSH5CH3CHC3H2CHSHNC2H4CH2CHSHNHCFeSFeHC2H2FeS2FeS2Fe2CS2HCFeCS3CFeS2HC4SHFeSCH2SHSC7H4C6H4C6H2C6H2CHCHSHC2H3C6H5CNH3FeC3NC2HNC6H6CH2SH2C2SH2CH2C2HSH4CNSH2CNC2H4SNHC2H3CH3FeC2HCH2SCFeHCH2S2CHCHSHFeCFeS2CFeCFeHS2FeSFeS2FeSFeS3C2HC6H5CH2C4HC6H5CSCH2NC6H3CH4SH2CHCHNC2HCH4CFeH2C2HCNH3C2H3C3NSCFeS2FeSFeS3C3H2C2HC6H4SFeCH2CFeS2NSCFe2S3FeS2Fe2SHS2C6H4CH4CHC4H2CHC4H2CHC3SCH3C2H2SC2FeCHNHNCHCHSCFeHSH4NC6H6S2H2FeCHSC2SH2FeH2NHCHFeCSCH2NCHC2H2CH2NH3CSFeS2FeSCFeSFeS3HFeS2H2S2CHC2HSC3H2C2NFeC3H3C2H6C6H4C2HCNSHCHCHFeH4C4HNC6HCHCH2CHCH4C3HS2C2HC3H2SCH2C4HCSCHCH2FeS2FeS2C2FeCS2H2SFeS3FeS2FeS2FeSFeS3CSC3HC6H3C4H2CH2C6H5C2FeC3NH5CNH4C6H4C4NHC2H2CH2Fe2H5CHSCHCFeH3SHFeH2C2H2CNH6SHCHCHCHCHSNC5H4C2NHCNC5H3CHC3HC2HC2SCH7S2HNHCHC2SCFeSHFeS2CFeS2FeS2FeSFeCS3CNHC2HC6H6C7H4C8H4C2HNH2SNCFeHC2H2C6SCSCSCH3NH2C2H5FeCHCHCH2C2H3CH4C4H3NH2CHCHCH4FeHCHC3HCHC3H4FeS3FeSFeS3CH2FeNFeCFeHSFeHCS2CFeCH8CHCNH2SC7H4C3H2C6H4C2HC2H5C3SC2S2CH2CHFeC3SCH3CNCHC2HCH2CHCHNCNHC3NH2SCH3C2H2C2H2C2FeS2H2Fe2S2C2HCS2H2SC2SHCHC2NHFeHC3HSC2HFeH2CHCHC2FeC4HFeCH5FeCFeH2CHCSCSH3CHC2HCHCHCH4NC2H2SCSHC4H7CHSC2HCHNC2HCSC2NH2C2HC2SH2CH2FeS2FeS2FeSFeS3CH3CH4CN2C2SH2CFeS3C3SCHCHC7H3CHC6H4C3SHCH2CHSCNHSCH2C3H3C2FeHCH3C2H4CHC2HC3H4CHNC7H6C2H2C2HNH3CHCHCSHSCH3CHCSHCH2CHCSC2H3CFeHC6H5CSCH2C3H2CHCHCHCHCHCHCH5CNSCFeHFeS2FeS2FeSFeSC2HCHSC2HC6H4C2HC4H3SHFeNC6H8NSCHCNCSH2C2HC2HCSCH3NHCH2SHC2SFeHFeCH2CHCHSH2CSHCSH2SCS2FeS2FeS2FeSFeS3CHNH2C6H4C8H4CHC3NCH5CSHSCNC3HNC6H8SH3C2H3C2SHC3H2CHC2H2CH2C2H2FeC2H3NHC2H4C2SH3NHSFeSCFeSFeSFeS3CS2HSHFeS2FeS2FeS3FeSCHSFeHCSC7H4CSC6H10C2H2NHC6H4NHCH2C6H3FeHCHCFeHNCH2SC2HCFeHCHC2NC6H8NC6H6SCFeH5C6H4CHSC2HSCHC2H5CHCH3CFe2SHFeSHFeS2FeS2FeSCFe2SCSH2CHC3SC3H3C6H5C2SCH2CHC7H4C2NCHCH2CHSC2NHCHSCH2SNC3FeCHCHCH6CH3CNC2H2CSHC2HCHCSFeS2FeSCFeSFeS3FeS2FeS2Fe2S3HFeS2HFeSFeS2FeSCSHC4H3SHCNHC4H3C3HC6H4C2HCHCHSC6H8CFeH5CH3CHNC6H8NC6H2C3H3C2HCFeC2H2CNCFeNC3HSC3HC2H2CHCH6CH3CHSC2HCH2SHS2
_chemical_formula_sum              "S448 N112 C1344 H1344 Fe224"
_cell_length_a       46.7673
_cell_length_b       47.5755
_cell_length_c       86.1132
_cell_angle_alpha    86.3165
_cell_angle_beta     85.9427
_cell_angle_gamma    114.743

_space_group_name_H-M_alt    "P 1"
_space_group_IT_number       1

loop_
  _space_group_symop_operation_xyz
  'x, y, z'

loop_
  _atom_site_type_symbol
  _atom_site_label
  _atom_site_symmetry_multiplicity
  _atom_site_fract_x
  _atom_site_fract_y
  _atom_site_fract_z
  _atom_site_occupancy
  S   S1        1.0  0.39439  0.28419  0.07617  1.0000
  N   N1        1.0  0.37858  0.03663  0.09131  1.0000
  C   C1        1.0  0.39967  0.23394  0.10575  1.0000
  S   S2        1.0  0.38137  0.09688  0.13730  1.0000
  C   C2        1.0  0.44124  0.31538  0.09477  1.0000
  N   N2        1.0  0.31209  0.03528  0.19747  1.0000
  C   C3        1.0  0.38495  0.04347  0.23841  1.0000
  C   C4        1.0  0.28011  0.33398  0.08850  1.0000
  C   C5        1.0  0.40198  0.20819  0.99722  1.0000
  H   H1        1.0  0.37975  0.10165  0.19117  1.0000
  N   N3        1.0  0.45106  0.24722  0.11438  1.0000
  H   H2        1.0  0.48399  0.00943  0.17542  1.0000
  C   C6        1.0  0.35231  0.08237  0.21361  1.0000
  H   H3        1.0  0.32108  0.05647  0.23423  1.0000
  H   H4        1.0  0.03118  0.33545  0.10633  1.0000
  H   H5        1.0  0.40288  0.17034  0.09055  1.0000
  H   H6        1.0  0.45977  0.26964  0.13538  1.0000
  Fe  Fe1       1.0  0.45070  0.04870  0.16004  1.0000
  C   C7        1.0  0.30556  0.03448  0.21328  1.0000
  C   C8        1.0  0.35553  0.02890  0.08134  1.0000
  C   C9        1.0  0.39698  0.02067  0.09227  1.0000
  H   H7        1.0  0.44816  0.11761  0.12639  1.0000
  C   C10       1.0  0.35866  0.08315  0.19746  1.0000
  C   C11       1.0  0.44501  0.16537  0.09575  1.0000
  H   H8        1.0  0.48017  0.22391  0.11842  1.0000
  S   S3        1.0  0.47061  0.19240  0.08022  1.0000
  H   H9        1.0  0.04995  0.32755  0.08941  1.0000
  H   H10       1.0  0.33955  0.28789  0.23104  1.0000
  H   H11       1.0  0.36490  0.30577  0.09983  1.0000
  H   H12       1.0  0.30039  0.01190  0.17675  1.0000
  C   C12       1.0  0.38353  0.03360  0.22326  1.0000
  Fe  Fe2       1.0  0.38540  0.01731  0.17827  1.0000
  C   C13       1.0  0.40634  0.12346  0.12149  1.0000
  H   H13       1.0  0.36422  0.16759  0.99031  1.0000
  C   C14       1.0  0.32552  0.05799  0.22159  1.0000
  S   S4        1.0  0.46996  0.22849  0.03724  1.0000
  C   C15       1.0  0.38461  0.06306  0.10049  1.0000
  H   H14       1.0  0.38452  0.33427  0.12296  1.0000
  C   C16       1.0  0.33799  0.30871  0.23448  1.0000
  C   C17       1.0  0.45743  0.15006  0.10588  1.0000
  Fe  Fe3       1.0  0.42088  0.22471  0.03516  1.0000
  Fe  Fe4       1.0  0.42398  0.26537  0.06192  1.0000
  S   S5        1.0  0.40578  0.21362  0.06114  1.0000
  H   H15       1.0  0.39251  0.05911  0.11197  1.0000
  Fe  Fe5       1.0  0.45596  0.22151  0.06335  1.0000
  C   C18       1.0  0.44298  0.25947  0.12702  1.0000
  H   H16       1.0  0.36918  0.13430  0.11342  1.0000
  C   C19       1.0  0.38939  0.31326  0.10197  1.0000
  H   H17       1.0  0.28554  0.01491  0.21966  1.0000
  H   H18       1.0  0.40193  0.04715  0.21395  1.0000
  S   S6        1.0  0.47353  0.27281  0.06569  1.0000
  S   S7        1.0  0.43426  0.27560  0.03578  1.0000
  Fe  Fe6       1.0  0.39753  0.06294  0.14908  1.0000
  S   S8        1.0  0.39004  0.19663  0.01742  1.0000
  S   S9        1.0  0.41895  0.06771  0.17191  1.0000
  Fe  Fe7       1.0  0.48268  0.27899  0.03942  1.0000
  H   H19       1.0  0.38327  0.22461  0.09709  1.0000
  H   H20       1.0  0.43631  0.22504  0.09379  1.0000
  C   C20       1.0  0.40970  0.30607  0.09185  1.0000
  C   C21       1.0  0.39130  0.24660  0.11850  1.0000
  C   C22       1.0  0.43818  0.12907  0.11864  1.0000
  S   S10       1.0  0.43180  0.04812  0.13675  1.0000
  C   C23       1.0  0.39385  0.13870  0.11136  1.0000
  C   C24       1.0  0.40043  0.32933  0.11503  1.0000
  C   C25       1.0  0.34994  0.00413  0.07226  1.0000
  C   C26       1.0  0.33811  0.05933  0.18951  1.0000
  H   H21       1.0  0.34361  0.05986  0.17701  1.0000
  H   H22       1.0  0.36861  0.10007  0.22002  1.0000
  C   C27       1.0  0.41298  0.15927  0.09843  1.0000
  H   H23       1.0  0.44177  0.25086  0.00027  1.0000
  H   H24       1.0  0.34093  0.04153  0.08056  1.0000
  H   H25       1.0  0.48215  0.15456  0.10389  1.0000
  H   H26       1.0  0.40321  0.08467  0.09398  1.0000
  C   C28       1.0  0.41308  0.25957  0.12921  1.0000
  H   H27       1.0  0.36832  0.24719  0.11981  1.0000
  C   C29       1.0  0.42799  0.23627  0.99191  1.0000
  C   C30       1.0  0.45227  0.33141  0.10783  1.0000
  S   S11       1.0  0.36103  0.01397  0.15627  1.0000
  C   C31       1.0  0.42983  0.23451  0.10385  1.0000
  H   H28       1.0  0.36287  0.06670  0.10316  1.0000
  H   H29       1.0  0.41496  0.02649  0.10032  1.0000
  H   H30       1.0  0.40711  0.27028  0.13893  1.0000
  H   H31       1.0  0.25471  0.32188  0.08820  1.0000
  C   C32       1.0  0.29412  0.32846  0.10144  1.0000
  H   H32       1.0  0.45713  0.31017  0.08700  1.0000
  H   H33       1.0  0.27976  0.31218  0.11134  1.0000
  C   C33       1.0  0.29116  0.00975  0.18923  1.0000
  C   C34       1.0  0.48199  0.24615  0.11250  1.0000
  H   H34       1.0  0.26718  0.00926  0.18978  1.0000
  C   C35       1.0  0.35805  0.00650  0.22016  1.0000
  S   S12       1.0  0.35878  0.33148  0.20349  1.0000
  C   C36       1.0  0.34621  0.33437  0.22317  1.0000
  H   H35       1.0  0.34443  0.22212  0.99257  1.0000
  H   H36       1.0  0.49019  0.24737  0.09991  1.0000
  Fe  Fe8       1.0  0.29621  0.30286  0.33297  1.0000
  S   S13       1.0  0.26238  0.25188  0.33652  1.0000
  Fe  Fe9       1.0  0.29741  0.30443  0.29655  1.0000
  S   S14       1.0  0.26402  0.25378  0.29785  1.0000
  C   C37       1.0  0.30177  0.32734  0.45561  1.0000
  Fe  Fe10      1.0  0.23642  0.26375  0.31770  1.0000
  S   S15       1.0  0.18241  0.24419  0.31809  1.0000
  Fe  Fe11      1.0  0.29256  0.24594  0.31639  1.0000
  S   S16       1.0  0.31607  0.21200  0.31561  1.0000
  S   S17       1.0  0.32796  0.29665  0.31386  1.0000
  Fe  Fe12      1.0  0.28983  0.03141  0.31600  1.0000
  S   S18       1.0  0.34186  0.04290  0.31326  1.0000
  S   S19       1.0  0.26564  0.06356  0.32111  1.0000
  H   H37       1.0  0.02293  0.31283  0.48149  1.0000
  H   H38       1.0  0.33553  0.21441  0.48640  1.0000
  C   C38       1.0  0.03243  0.30228  0.36502  1.0000
  H   H39       1.0  0.29044  0.17653  0.28569  1.0000
  H   H40       1.0  0.37969  0.28344  0.43916  1.0000
  C   C39       1.0  0.29305  0.09401  0.28278  1.0000
  Fe  Fe13      1.0  0.04518  0.30630  0.30925  1.0000
  C   C40       1.0  0.08494  0.29949  0.34944  1.0000
  H   H41       1.0  0.31290  0.28673  0.37358  1.0000
  H   H42       1.0  0.14875  0.28460  0.27793  1.0000
  C   C41       1.0  0.43510  0.01848  0.48709  1.0000
  N   N4        1.0  0.40137  0.28830  0.46050  1.0000
  H   H43       1.0  0.10539  0.29862  0.34313  1.0000
  H   H44       1.0  0.38884  0.31968  0.44690  1.0000
  C   C42       1.0  0.32794  0.30977  0.25022  1.0000
  S   S20       1.0  0.46096  0.10433  0.46435  1.0000
  C   C43       1.0  0.42508  0.25531  0.47000  1.0000
  S   S21       1.0  0.26816  0.31468  0.31540  1.0000
  C   C44       1.0  0.43980  0.01673  0.36047  1.0000
  C   C45       1.0  0.43477  0.30315  0.48124  1.0000
  H   H45       1.0  0.27222  0.07198  0.28519  1.0000
  N   N5        1.0  0.06091  0.27289  0.35678  1.0000
  H   H46       1.0  0.18782  0.25051  0.26555  1.0000
  C   C46       1.0  0.29001  0.12210  0.28212  1.0000
  Fe  Fe14      1.0  0.99401  0.31971  0.32764  1.0000
  H   H47       1.0  0.46237  0.03566  0.35613  1.0000
  S   S22       1.0  0.01281  0.28111  0.29160  1.0000
  H   H48       1.0  0.46804  0.03463  0.44935  1.0000
  C   C47       1.0  0.32190  0.30812  0.37911  1.0000
  Fe  Fe15      1.0  0.42830  0.11044  0.48363  1.0000
  H   H49       1.0  0.32193  0.28991  0.25874  1.0000
  C   C48       1.0  0.36636  0.01826  0.46715  1.0000
  H   H50       1.0  0.31282  0.18718  0.26652  1.0000
  H   H51       1.0  0.48720  0.09005  0.41075  1.0000
  C   C49       1.0  0.31277  0.17921  0.27892  1.0000
  H   H52       1.0  0.19711  0.31059  0.31768  1.0000
  C   C50       1.0  0.03485  0.27398  0.36454  1.0000
  C   C51       1.0  0.32316  0.09454  0.28112  1.0000
  C   C52       1.0  0.08303  0.32806  0.34944  1.0000
  C   C53       1.0  0.15916  0.26557  0.31640  1.0000
  C   C54       1.0  0.17225  0.29794  0.31631  1.0000
  H   H53       1.0  0.28710  0.31607  0.46695  1.0000
  C   C55       1.0  0.12088  0.29816  0.31231  1.0000
  C   C56       1.0  0.10761  0.26572  0.31270  1.0000
  C   C57       1.0  0.12668  0.24957  0.31473  1.0000
  H   H54       1.0  0.41543  0.02637  0.34173  1.0000
  S   S23       1.0  0.09848  0.32010  0.30952  1.0000
  C   C58       1.0  0.30141  0.17063  0.31834  1.0000
  C   C59       1.0  0.32317  0.15722  0.31750  1.0000
  C   C60       1.0  0.31278  0.12460  0.31854  1.0000
  C   C61       1.0  0.28037  0.10486  0.32051  1.0000
  C   C62       1.0  0.25864  0.11828  0.32155  1.0000
  C   C63       1.0  0.26902  0.15090  0.32041  1.0000
  H   H55       1.0  0.34828  0.17220  0.31594  1.0000
  H   H56       1.0  0.32982  0.11472  0.31781  1.0000
  H   H57       1.0  0.23351  0.10330  0.32315  1.0000
  H   H58       1.0  0.25195  0.16076  0.32109  1.0000
  H   H59       1.0  0.33224  0.19765  0.28413  1.0000
  C   C64       1.0  0.41542  0.30882  0.47104  1.0000
  C   C65       1.0  0.22738  0.30957  0.27821  1.0000
  C   C66       1.0  0.44014  0.27658  0.48049  1.0000
  H   H60       1.0  0.47884  0.05777  0.39954  1.0000
  C   C67       1.0  0.06198  0.24285  0.35510  1.0000
  H   H61       1.0  0.32591  0.07297  0.28186  1.0000
  H   H62       1.0  0.08278  0.25311  0.31123  1.0000
  C   C68       1.0  0.34593  0.15067  0.27820  1.0000
  S   S24       1.0  0.35356  0.33485  0.42133  1.0000
  H   H63       1.0  0.37327  0.12342  0.27767  1.0000
  H   H64       1.0  0.26653  0.12142  0.28391  1.0000
  H   H65       1.0  0.36676  0.17273  0.27656  1.0000
  N   N6        1.0  0.31630  0.14995  0.27998  1.0000
  N   N7        1.0  0.19621  0.28948  0.27822  1.0000
  C   C69       1.0  0.45033  0.02922  0.45926  1.0000
  H   H66       1.0  0.32800  0.28656  0.40074  1.0000
  C   C70       1.0  0.18168  0.33236  0.27788  1.0000
  C   C71       1.0  0.34981  0.12299  0.27880  1.0000
  H   H67       1.0  0.11627  0.22449  0.31484  1.0000
  C   C72       1.0  0.33060  0.30814  0.39452  1.0000
  Fe  Fe16      1.0  0.33053  0.01645  0.29182  1.0000
  C   C73       1.0  0.18726  0.25612  0.27784  1.0000
  S   S25       1.0  0.37641  0.09485  0.48102  1.0000
  H   H68       1.0  0.16326  0.24206  0.28410  1.0000
  H   H69       1.0  0.35474  0.02313  0.47769  1.0000
  C   C74       1.0  0.36110  0.02630  0.25066  1.0000
  C   C75       1.0  0.15317  0.31407  0.31434  1.0000
  H   H70       1.0  0.39311  0.24442  0.45230  1.0000
  H   H71       1.0  0.05312  0.23446  0.34384  1.0000
  S   S26       1.0  0.36300  0.04093  0.26925  1.0000
  C   C76       1.0  0.40536  0.26143  0.46014  1.0000
  H   H72       1.0  0.04726  0.22507  0.36485  1.0000
  H   H73       1.0  0.20360  0.24894  0.28403  1.0000
  C   C77       1.0  0.38038  0.29431  0.45025  1.0000
  S   S27       1.0  0.00895  0.28017  0.32968  1.0000
  H   H74       1.0  0.01526  0.25283  0.36993  1.0000
  H   H75       1.0  0.42786  0.23380  0.46986  1.0000
  C   C78       1.0  0.17350  0.30051  0.27783  1.0000
  H   H76       1.0  0.24551  0.30097  0.27822  1.0000
  S   S28       1.0  0.27906  0.00710  0.29401  1.0000
  H   H77       1.0  0.37129  0.31704  0.35240  1.0000
  H   H78       1.0  0.40464  0.06458  0.24067  1.0000
  S   S29       1.0  0.35740  0.16638  0.48901  1.0000
  C   C79       1.0  0.41316  0.01149  0.35223  1.0000
  H   H79       1.0  0.35603  0.28506  0.45635  1.0000
  C   C80       1.0  0.00540  0.29345  0.48917  1.0000
  Fe  Fe17      1.0  0.99649  0.31932  0.29155  1.0000
  H   H80       1.0  0.08663  0.24502  0.35505  1.0000
  H   H81       1.0  0.41207  0.32998  0.47154  1.0000
  C   C81       1.0  0.40499  0.01609  0.48451  1.0000
  C   C82       1.0  0.42014  0.02708  0.45711  1.0000
  C   C83       1.0  0.34282  0.33579  0.40186  1.0000
  C   C84       1.0  0.45793  0.02526  0.47436  1.0000
  H   H82       1.0  0.01131  0.30305  0.37072  1.0000
  H   H83       1.0  0.29087  0.31229  0.44633  1.0000
  H   H84       1.0  0.36760  0.03538  0.45742  1.0000
  N   N8        1.0  0.39808  0.02103  0.46969  1.0000
  C   C85       1.0  0.05651  0.32938  0.35725  1.0000
  H   H85       1.0  0.32590  0.32868  0.45631  1.0000
  H   H86       1.0  0.41468  0.03085  0.44536  1.0000
  H   H87       1.0  0.48156  0.02766  0.47614  1.0000
  C   C86       1.0  0.32484  0.33576  0.37091  1.0000
  H   H88       1.0  0.29396  0.02639  0.48837  1.0000
  H   H89       1.0  0.49043  0.17197  0.45369  1.0000
  H   H90       1.0  0.40686  0.33454  0.37449  1.0000
  S   S30       1.0  0.47222  0.00601  0.38411  1.0000
  C   C87       1.0  0.49218  0.12847  0.44975  1.0000
  H   H91       1.0  0.40989  0.33515  0.34106  1.0000
  C   C88       1.0  0.32596  0.33660  0.25488  1.0000
  H   H92       1.0  0.45508  0.27205  0.48842  1.0000
  Fe  Fe18      1.0  0.36671  0.06630  0.50423  1.0000
  S   S31       1.0  0.41855  0.07938  0.50612  1.0000
  S   S32       1.0  0.39743  0.29274  0.52018  1.0000
  C   C89       1.0  0.46681  0.21693  0.70923  1.0000
  C   C90       1.0  0.46266  0.21210  0.69345  1.0000
  Fe  Fe19      1.0  0.41862  0.11930  0.51867  1.0000
  S   S33       1.0  0.44649  0.13827  0.53927  1.0000
  S   S34       1.0  0.36637  0.10438  0.51843  1.0000
  C   C91       1.0  0.36059  0.20958  0.54651  1.0000
  H   H93       1.0  0.33574  0.13766  0.53514  1.0000
  Fe  Fe20      1.0  0.44543  0.06895  0.66323  1.0000
  S   S35       1.0  0.41605  0.09309  0.65524  1.0000
  H   H94       1.0  0.44072  0.01537  0.49890  1.0000
  Fe  Fe21      1.0  0.44029  0.09698  0.63103  1.0000
  S   S36       1.0  0.40901  0.08199  0.61116  1.0000
  Fe  Fe22      1.0  0.45851  0.13693  0.65846  1.0000
  C   C92       1.0  0.46188  0.16439  0.71431  1.0000
  S   S37       1.0  0.46663  0.06939  0.63888  1.0000
  C   C93       1.0  0.46659  0.19311  0.71967  1.0000
  C   C94       1.0  0.38655  0.21108  0.55417  1.0000
  H   H95       1.0  0.31893  0.20608  0.52721  1.0000
  S   S38       1.0  0.48038  0.14293  0.63364  1.0000
  C   C95       1.0  0.31610  0.18235  0.53141  1.0000
  H   H96       1.0  0.40089  0.23204  0.55930  1.0000
  H   H97       1.0  0.21189  0.31938  0.50309  1.0000
  H   H98       1.0  0.38157  0.13920  0.54856  1.0000
  H   H99       1.0  0.46148  0.14580  0.72239  1.0000
  C   C96       1.0  0.38630  0.25821  0.51100  1.0000
  H   H100      1.0  0.39202  0.05657  0.69084  1.0000
  C   C97       1.0  0.45781  0.15958  0.69855  1.0000
  S   S39       1.0  0.43270  0.15173  0.49630  1.0000
  H   H101      1.0  0.47031  0.23909  0.71329  1.0000
  C   C98       1.0  0.38664  0.18176  0.72901  1.0000
  H   H102      1.0  0.35529  0.22976  0.54571  1.0000
  H   H103      1.0  0.30315  0.02309  0.68179  1.0000
  H   H104      1.0  0.34084  0.04176  0.65767  1.0000
  C   C99       1.0  0.34996  0.15836  0.54047  1.0000
  S   S40       1.0  0.33398  0.01457  0.51045  1.0000
  H   H105      1.0  0.01793  0.32176  0.66133  1.0000
  H   H106      1.0  0.29382  0.17048  0.53937  1.0000
  C   C100      1.0  0.38412  0.03442  0.69783  1.0000
  C   C101      1.0  0.42015  0.09775  0.59120  1.0000
  C   C102      1.0  0.39927  0.08429  0.57999  1.0000
  C   C103      1.0  0.40709  0.09613  0.56405  1.0000
  C   C104      1.0  0.43584  0.12181  0.55914  1.0000
  C   C105      1.0  0.45664  0.13539  0.57034  1.0000
  C   C106      1.0  0.44894  0.12338  0.58626  1.0000
  H   H107      1.0  0.37696  0.06445  0.58367  1.0000
  H   H108      1.0  0.39087  0.08532  0.55559  1.0000
  H   H109      1.0  0.38461  0.19931  0.72107  1.0000
  H   H110      1.0  0.46522  0.13402  0.59473  1.0000
  C   C107      1.0  0.40165  0.23894  0.51408  1.0000
  C   C108      1.0  0.39310  0.21082  0.50732  1.0000
  H   H111      1.0  0.42022  0.24579  0.52177  1.0000
  H   H112      1.0  0.40489  0.19603  0.50989  1.0000
  S   S41       1.0  0.04124  0.31864  0.51361  1.0000
  C   C109      1.0  0.36259  0.24942  0.50092  1.0000
  H   H113      1.0  0.38316  0.15071  0.71132  1.0000
  H   H114      1.0  0.47895  0.15525  0.56670  1.0000
  C   C110      1.0  0.33688  0.01998  0.66424  1.0000
  H   H115      1.0  0.41447  0.18646  0.56060  1.0000
  C   C111      1.0  0.00919  0.29064  0.50509  1.0000
  Fe  Fe23      1.0  0.38028  0.13419  0.49536  1.0000
  S   S42       1.0  0.48624  0.11255  0.66838  1.0000
  H   H116      1.0  0.49060  0.13221  0.51331  1.0000
  S   S43       1.0  0.45625  0.17927  0.66796  1.0000
  C   C112      1.0  0.37572  0.15905  0.54806  1.0000
  Fe  Fe24      1.0  0.38193  0.33099  0.51367  1.0000
  H   H117      1.0  0.31424  0.16959  0.52085  1.0000
  H   H118      1.0  0.45450  0.13747  0.69449  1.0000
  H   H119      1.0  0.35067  0.26416  0.49848  1.0000
  H   H120      1.0  0.34797  0.04072  0.71224  1.0000
  H   H121      1.0  0.45971  0.31459  0.72011  1.0000
  C   C113      1.0  0.39814  0.01434  0.69455  1.0000
  N   N9        1.0  0.34308  0.18364  0.53953  1.0000
  C   C114      1.0  0.35923  0.02543  0.70995  1.0000
  C   C115      1.0  0.45843  0.18353  0.68805  1.0000
  S   S44       1.0  0.42704  0.02311  0.67844  1.0000
  C   C116      1.0  0.38957  0.13256  0.73375  1.0000
  C   C117      1.0  0.39420  0.18565  0.55486  1.0000
  C   C118      1.0  0.38578  0.15446  0.72355  1.0000
  H   H122      1.0  0.44011  0.32411  0.69511  1.0000
  C   C119      1.0  0.36920  0.20186  0.49736  1.0000
  H   H123      1.0  0.46327  0.23074  0.68534  1.0000
  C   C120      1.0  0.35407  0.22128  0.49411  1.0000
  H   H124      1.0  0.38972  0.11162  0.72952  1.0000
  H   H125      1.0  0.39991  0.02039  0.64845  1.0000
  H   H126      1.0  0.44535  0.31933  0.48975  1.0000
  C   C121      1.0  0.37556  0.01426  0.64528  1.0000
  S   S45       1.0  0.27771  0.33297  0.50405  1.0000
  H   H127      1.0  0.37544  0.03521  0.63880  1.0000
  H   H128      1.0  0.38733  0.01067  0.49447  1.0000
  C   C122      1.0  0.31543  0.00951  0.67781  1.0000
  Fe  Fe25      1.0  0.36297  0.16435  0.90692  1.0000
  S   S46       1.0  0.41303  0.20177  0.90497  1.0000
  S   S47       1.0  0.35780  0.11537  0.90439  1.0000
  Fe  Fe26      1.0  0.33470  0.21002  0.91250  1.0000
  S   S48       1.0  0.38213  0.25034  0.91109  1.0000
  C   C123      1.0  0.28940  0.25226  0.91358  1.0000
  Fe  Fe27      1.0  0.39483  0.23015  0.89029  1.0000
  S   S49       1.0  0.42328  0.26569  0.86973  1.0000
  Fe  Fe28      1.0  0.39602  0.21859  0.92594  1.0000
  S   S50       1.0  0.42735  0.24118  0.94473  1.0000
  S   S51       1.0  0.34608  0.19165  0.89060  1.0000
  S   S52       1.0  0.34729  0.17931  0.92900  1.0000
  C   C124      1.0  0.12844  0.32319  0.87455  1.0000
  C   C125      1.0  0.39457  0.13851  0.74928  1.0000
  S   S53       1.0  0.12800  0.28426  0.92029  1.0000
  H   H129      1.0  0.29337  0.20165  0.95195  1.0000
  Fe  Fe29      1.0  0.45873  0.26094  0.78007  1.0000
  C   C126      1.0  0.06318  0.25840  0.92026  1.0000
  S   S54       1.0  0.41921  0.23329  0.79928  1.0000
  H   H130      1.0  0.23867  0.23482  0.91818  1.0000
  C   C127      1.0  0.34252  0.26819  0.86860  1.0000
  S   S55       1.0  0.49061  0.23773  0.77490  1.0000
  S   S56       1.0  0.44806  0.26416  0.75509  1.0000
  C   C128      1.0  0.42040  0.25680  0.85016  1.0000
  C   C129      1.0  0.40064  0.22717  0.84646  1.0000
  C   C130      1.0  0.40022  0.22046  0.83077  1.0000
  C   C131      1.0  0.41988  0.24311  0.81873  1.0000
  C   C132      1.0  0.43958  0.27280  0.82244  1.0000
  C   C133      1.0  0.43953  0.27970  0.83809  1.0000
  H   H131      1.0  0.38592  0.20930  0.85566  1.0000
  H   H132      1.0  0.38486  0.19747  0.82798  1.0000
  H   H133      1.0  0.39847  0.30931  0.95598  1.0000
  C   C134      1.0  0.09125  0.28601  0.91890  1.0000
  C   C135      1.0  0.41776  0.22722  0.96480  1.0000
  C   C136      1.0  0.43589  0.24567  0.97575  1.0000
  H   H134      1.0  0.26695  0.22675  0.88329  1.0000
  C   C137      1.0  0.39204  0.19892  0.97009  1.0000
  H   H135      1.0  0.45586  0.26753  0.97172  1.0000
  N   N10       1.0  0.30842  0.00342  0.94099  1.0000
  H   H136      1.0  0.37806  0.18444  0.96176  1.0000
  C   C138      1.0  0.32085  0.08405  0.90314  1.0000
  C   C139      1.0  0.29248  0.08734  0.90496  1.0000
  C   C140      1.0  0.26333  0.06108  0.90527  1.0000
  C   C141      1.0  0.26240  0.03143  0.90395  1.0000
  C   C142      1.0  0.29084  0.02842  0.90168  1.0000
  C   C143      1.0  0.31991  0.05462  0.90122  1.0000
  H   H137      1.0  0.29298  0.10996  0.90640  1.0000
  H   H138      1.0  0.24142  0.06364  0.90692  1.0000
  S   S57       1.0  0.99875  0.29041  0.90814  1.0000
  H   H139      1.0  0.34181  0.05201  0.89969  1.0000
  C   C144      1.0  0.08726  0.27146  0.88164  1.0000
  H   H140      1.0  0.02559  0.30705  0.87389  1.0000
  C   C145      1.0  0.32240  0.31541  0.86762  1.0000
  C   C146      1.0  0.03314  0.28782  0.91374  1.0000
  C   C147      1.0  0.03414  0.25925  0.91760  1.0000
  H   H141      1.0  0.23798  0.28626  0.91187  1.0000
  C   C148      1.0  0.38426  0.18942  0.98626  1.0000
  C   C149      1.0  0.39126  0.18676  0.74466  1.0000
  H   H142      1.0  0.01283  0.23783  0.91811  1.0000
  H   H143      1.0  0.06410  0.23626  0.92291  1.0000
  Fe  Fe30      1.0  0.49137  0.31012  0.75221  1.0000
  C   C150      1.0  0.31771  0.27872  0.90918  1.0000
  C   C151      1.0  0.30846  0.05404  0.94005  1.0000
  H   H144      1.0  0.33989  0.27686  0.90805  1.0000
  H   H145      1.0  0.11095  0.33584  0.91476  1.0000
  H   H146      1.0  0.99971  0.25832  0.98109  1.0000
  C   C152      1.0  0.38555  0.29171  0.94811  1.0000
  H   H147      1.0  0.47555  0.21720  0.82275  1.0000
  H   H148      1.0  0.38890  0.18478  0.77556  1.0000
  C   C153      1.0  0.36440  0.25561  0.97213  1.0000
  C   C154      1.0  0.27543  0.04029  0.94148  1.0000
  H   H149      1.0  0.35037  0.04618  0.93823  1.0000
  H   H150      1.0  0.38971  0.30451  0.86245  1.0000
  H   H151      1.0  0.39546  0.15042  0.77856  1.0000
  H   H152      1.0  0.28047  0.21786  0.86476  1.0000
  N   N11       1.0  0.39504  0.16521  0.75458  1.0000
  C   C155      1.0  0.35458  0.32282  0.86450  1.0000
  C   C156      1.0  0.34157  0.22843  0.98061  1.0000
  H   H153      1.0  0.13704  0.28346  0.88185  1.0000
  H   H154      1.0  0.33391  0.25020  0.93771  1.0000
  C   C157      1.0  0.08978  0.31447  0.91561  1.0000
  N   N12       1.0  0.31107  0.26118  0.87196  1.0000
  C   C158      1.0  0.36474  0.29909  0.86490  1.0000
  C   C159      1.0  0.31307  0.21678  0.95783  1.0000
  H   H155      1.0  0.37483  0.30251  0.93988  1.0000
  C   C160      1.0  0.06085  0.31538  0.91316  1.0000
  C   C161      1.0  0.26071  0.25519  0.91476  1.0000
  H   H156      1.0  0.39881  0.12198  0.75694  1.0000
  C   C162      1.0  0.05005  0.32597  0.87269  1.0000
  H   H157      1.0  0.27592  0.27879  0.87399  1.0000
  H   H158      1.0  0.39248  0.20827  0.74875  1.0000
  C   C163      1.0  0.11933  0.29183  0.87940  1.0000
  C   C164      1.0  0.28862  0.31060  0.90664  1.0000
  S   S58       1.0  0.28907  0.21520  0.91721  1.0000
  C   C165      1.0  0.31734  0.30781  0.90586  1.0000
  C   C166      1.0  0.32470  0.03515  0.93976  1.0000
  H   H159      1.0  0.33933  0.32809  0.90225  1.0000
  C   C167      1.0  0.26027  0.28430  0.91125  1.0000
  H   H160      1.0  0.29837  0.18736  0.97970  1.0000
  N   N13       1.0  0.36123  0.26345  0.95698  1.0000
  H   H161      1.0  0.07993  0.24724  0.88589  1.0000
  H   H162      1.0  0.00120  0.26064  0.95200  1.0000
  H   H163      1.0  0.42780  0.18667  0.77061  1.0000
  H   H164      1.0  0.45458  0.29051  0.81324  1.0000
  H   H165      1.0  0.38497  0.26999  0.97767  1.0000
  H   H166      1.0  0.32146  0.07923  0.93850  1.0000
  C   C168      1.0  0.30081  0.28425  0.87126  1.0000
  C   C169      1.0  0.28808  0.22865  0.87569  1.0000
  H   H167      1.0  0.35071  0.24993  0.86886  1.0000
  C   C170      1.0  0.33614  0.24432  0.94978  1.0000
  H   H168      1.0  0.40296  0.28584  0.94125  1.0000
  S   S59       1.0  0.47138  0.19780  0.73955  1.0000
  H   H169      1.0  0.45487  0.30270  0.84088  1.0000
  N   N14       1.0  0.07383  0.31383  0.87462  1.0000
  H   H170      1.0  0.03973  0.26710  0.88149  1.0000
  H   H171      1.0  0.29842  0.21513  0.88241  1.0000
  H   H172      1.0  0.47056  0.24022  0.84604  1.0000
  H   H173      1.0  0.31422  0.33369  0.86766  1.0000
  Fe  Fe31      1.0  0.48250  0.24341  0.74982  1.0000
  C   C171      1.0  0.06466  0.28291  0.87916  1.0000
  C   C172      1.0  0.40206  0.17200  0.77061  1.0000
  H   H174      1.0  0.26258  0.05470  0.94107  1.0000
  C   C173      1.0  0.31585  0.20884  0.97336  1.0000
  H   H175      1.0  0.48707  0.25150  0.80928  1.0000
  C   C174      1.0  0.10527  0.33392  0.87232  1.0000
  C   C175      1.0  0.25904  0.00795  0.94277  1.0000
  S   S60       1.0  0.20187  0.33514  0.89105  1.0000
  Fe  Fe32      1.0  0.17301  0.32866  0.91415  1.0000
  H   H176      1.0  0.00578  0.32487  0.75253  1.0000
  H   H177      1.0  0.29055  0.00595  0.90038  1.0000
  H   H178      1.0  0.26671  0.00689  0.86926  1.0000
  C   C176      1.0  0.00093  0.33552  0.76255  1.0000
  Fe  Fe33      1.0  0.35630  0.38612  0.15042  1.0000
  S   S61       1.0  0.40641  0.41321  0.13976  1.0000
  S   S62       1.0  0.31389  0.38002  0.13724  1.0000
  Fe  Fe34      1.0  0.37595  0.36561  0.18111  1.0000
  S   S63       1.0  0.42802  0.39141  0.17243  1.0000
  H   H179      1.0  0.06885  0.44435  0.10307  1.0000
  Fe  Fe35      1.0  0.41597  0.43006  0.16346  1.0000
  H   H180      1.0  0.07410  0.57138  0.12141  1.0000
  Fe  Fe36      1.0  0.41440  0.37258  0.14941  1.0000
  S   S64       1.0  0.04074  0.66095  0.13986  1.0000
  S   S65       1.0  0.36465  0.40585  0.17366  1.0000
  H   H181      1.0  0.25572  0.44900  0.99545  1.0000
  Fe  Fe37      1.0  0.24870  0.42146  0.03169  1.0000
  S   S66       1.0  0.21374  0.44076  0.03828  1.0000
  S   S67       1.0  0.24291  0.38936  0.01259  1.0000
  Fe  Fe38      1.0  0.28832  0.44926  0.05829  1.0000
  S   S68       1.0  0.25725  0.47190  0.06657  1.0000
  S   S69       1.0  0.33106  0.45335  0.07047  1.0000
  Fe  Fe39      1.0  0.21705  0.42655  0.06324  1.0000
  S   S70       1.0  0.17534  0.39854  0.08135  1.0000
  Fe  Fe40      1.0  0.25695  0.48445  0.04099  1.0000
  S   S71       1.0  0.25742  0.52979  0.03112  1.0000
  S   S72       1.0  0.24831  0.40310  0.05650  1.0000
  S   S73       1.0  0.29184  0.46601  0.03278  1.0000
  H   H182      1.0  0.24962  0.47746  0.11184  1.0000
  C   C177      1.0  0.05744  0.46774  0.20532  1.0000
  C   C178      1.0  0.03816  0.34212  0.09353  1.0000
  H   H183      1.0  0.39130  0.36956  0.08415  1.0000
  H   H184      1.0  0.12284  0.42542  0.06606  1.0000
  Fe  Fe41      1.0  0.04892  0.64373  0.16326  1.0000
  S   S74       1.0  0.07298  0.61125  0.16325  1.0000
  Fe  Fe42      1.0  0.07286  0.43135  0.14493  1.0000
  S   S75       1.0  0.02680  0.42372  0.13567  1.0000
  S   S76       1.0  0.11808  0.46158  0.12953  1.0000
  Fe  Fe43      1.0  0.04046  0.39638  0.17732  1.0000
  H   H185      1.0  0.35022  0.38104  0.21931  1.0000
  C   C179      1.0  0.29889  0.35561  0.07605  1.0000
  H   H186      1.0  0.07465  0.37430  0.23061  1.0000
  C   C180      1.0  0.34409  0.36115  0.22782  1.0000
  S   S77       1.0  0.06096  0.44676  0.16764  1.0000
  C   C181      1.0  0.04927  0.57118  0.16299  1.0000
  C   C182      1.0  0.06382  0.55130  0.16002  1.0000
  C   C183      1.0  0.04550  0.51927  0.15961  1.0000
  C   C184      1.0  0.05338  0.39610  0.09890  1.0000
  H   H187      1.0  0.34583  0.38878  0.06716  1.0000
  C   C185      1.0  0.43188  0.33828  0.11804  1.0000
  H   H188      1.0  0.08937  0.56076  0.15791  1.0000
  H   H189      1.0  0.05699  0.50430  0.15708  1.0000
  C   C186      1.0  0.31049  0.53394  0.99283  1.0000
  H   H190      1.0  0.04317  0.54075  0.19526  1.0000
  C   C187      1.0  0.16067  0.41663  0.09497  1.0000
  C   C188      1.0  0.17305  0.44901  0.09462  1.0000
  C   C189      1.0  0.16034  0.46256  0.10556  1.0000
  C   C190      1.0  0.13500  0.44385  0.11676  1.0000
  C   C191      1.0  0.12285  0.41147  0.11718  1.0000
  C   C192      1.0  0.13575  0.39793  0.10635  1.0000
  H   H191      1.0  0.19209  0.46361  0.08580  1.0000
  H   H192      1.0  0.16975  0.48764  0.10516  1.0000
  H   H193      1.0  0.10333  0.39688  0.12576  1.0000
  H   H194      1.0  0.12609  0.37285  0.10667  1.0000
  C   C193      1.0  0.31882  0.40185  0.11906  1.0000
  C   C194      1.0  0.34838  0.42474  0.11268  1.0000
  C   C195      1.0  0.35170  0.44074  0.09787  1.0000
  C   C196      1.0  0.32545  0.43436  0.08945  1.0000
  C   C197      1.0  0.29571  0.41202  0.09598  1.0000
  C   C198      1.0  0.29252  0.39561  0.11065  1.0000
  H   H195      1.0  0.36871  0.43009  0.11909  1.0000
  H   H196      1.0  0.37474  0.45813  0.09290  1.0000
  H   H197      1.0  0.27536  0.40677  0.08952  1.0000
  H   H198      1.0  0.26963  0.37773  0.11543  1.0000
  H   H199      1.0  0.31691  0.51889  0.00043  1.0000
  C   C199      1.0  0.08279  0.49720  0.20442  1.0000
  C   C200      1.0  0.33152  0.37153  0.07676  1.0000
  C   C201      1.0  0.35248  0.61107  0.01347  1.0000
  C   C202      1.0  0.32404  0.61318  0.01137  1.0000
  C   C203      1.0  0.29502  0.58839  0.01720  1.0000
  C   C204      1.0  0.29426  0.56139  0.02518  1.0000
  C   C205      1.0  0.32271  0.55953  0.02758  1.0000
  C   C206      1.0  0.35176  0.58432  0.02171  1.0000
  H   H200      1.0  0.23258  0.37022  0.15429  1.0000
  H   H201      1.0  0.27307  0.58996  0.01537  1.0000
  H   H202      1.0  0.32233  0.53890  0.03384  1.0000
  C   C207      1.0  0.03924  0.58953  0.12504  1.0000
  S   S78       1.0  0.05496  0.38618  0.20111  1.0000
  H   H203      1.0  0.37371  0.58268  0.02348  1.0000
  N   N15       1.0  0.05910  0.37539  0.09034  1.0000
  S   S79       1.0  0.05685  0.38200  0.15514  1.0000
  H   H204      1.0  0.11318  0.46334  0.08174  1.0000
  H   H205      1.0  0.32433  0.63379  0.00520  1.0000
  Fe  Fe44      1.0  0.01361  0.43528  0.15919  1.0000
  H   H206      1.0  0.06157  0.44725  0.20816  1.0000
  C   C208      1.0  0.02263  0.49052  0.19905  1.0000
  H   H207      1.0  0.10624  0.49940  0.20644  1.0000
  C   C209      1.0  0.04904  0.56588  0.12320  1.0000
  S   S80       1.0  0.44619  0.35720  0.13467  1.0000
  C   C210      1.0  0.04736  0.52034  0.19822  1.0000
  N   N16       1.0  0.24556  0.43296  0.12034  1.0000
  C   C211      1.0  0.26793  0.43811  0.13056  1.0000
  C   C212      1.0  0.21817  0.40609  0.12230  1.0000
  C   C213      1.0  0.26346  0.41571  0.14297  1.0000
  C   C214      1.0  0.21292  0.38322  0.13460  1.0000
  H   H208      1.0  0.46231  0.47019  0.12779  1.0000
  C   C215      1.0  0.25109  0.45668  0.10735  1.0000
  H   H209      1.0  0.28983  0.45921  0.12887  1.0000
  H   H210      1.0  0.20036  0.40201  0.11423  1.0000
  H   H211      1.0  0.38551  0.38503  0.10216  1.0000
  H   H212      1.0  0.19133  0.36183  0.13600  1.0000
  H   H213      1.0  0.26029  0.50632  0.99841  1.0000
  C   C216      1.0  0.27866  0.52690  0.99173  1.0000
  H   H214      1.0  0.27481  0.46361  0.10080  1.0000
  H   H215      1.0  0.23328  0.44787  0.09888  1.0000
  S   S81       1.0  0.38909  0.64071  0.00521  1.0000
  Fe  Fe45      1.0  0.00964  0.37505  0.14723  1.0000
  C   C217      1.0  0.08333  0.38568  0.07848  1.0000
  H   H216      1.0  0.28179  0.41928  0.15070  1.0000
  H   H217      1.0  0.00477  0.57383  0.16800  1.0000
  H   H218      1.0  0.08810  0.36933  0.07173  1.0000
  C   C218      1.0  0.01624  0.55877  0.16567  1.0000
  H   H219      1.0  0.47665  0.33833  0.11007  1.0000
  H   H220      1.0  0.05668  0.61347  0.12461  1.0000
  S   S82       1.0  0.99996  0.63114  0.17471  1.0000
  C   C219      1.0  0.07769  0.52364  0.20075  1.0000
  H   H221      1.0  0.38861  0.40653  0.08383  1.0000
  C   C220      1.0  0.23587  0.38803  0.14492  1.0000
  C   C221      1.0  0.04944  0.36766  0.23253  1.0000
  H   H222      1.0  0.28820  0.36058  0.06606  1.0000
  H   H223      1.0  0.48927  0.53712  0.19709  1.0000
  C   C222      1.0  0.02651  0.53505  0.12422  1.0000
  C   C223      1.0  0.10292  0.41746  0.07509  1.0000
  S   S83       1.0  0.36356  0.34387  0.15846  1.0000
  H   H224      1.0  0.03391  0.51640  0.12320  1.0000
  C   C224      1.0  0.01248  0.50685  0.16241  1.0000
  C   C225      1.0  0.32682  0.34479  0.10174  1.0000
  C   C226      1.0  0.37934  0.38261  0.08992  1.0000
  C   C227      1.0  0.99439  0.52826  0.12736  1.0000
  C   C228      1.0  0.03315  0.37067  0.21986  1.0000
  S   S84       1.0  0.44473  0.48190  0.16447  1.0000
  N   N17       1.0  0.34501  0.36620  0.08956  1.0000
  C   C229      1.0  0.23671  0.39981  0.99348  1.0000
  C   C230      1.0  0.09750  0.43872  0.08389  1.0000
  C   C231      1.0  0.07259  0.42805  0.09586  1.0000
  C   C232      1.0  0.00052  0.36189  0.22254  1.0000
  N   N18       1.0  0.02801  0.46472  0.20230  1.0000
  H   H225      1.0  0.09717  0.54665  0.19979  1.0000
  H   H226      1.0  0.99934  0.60037  0.12956  1.0000
  C   C233      1.0  0.00691  0.58195  0.12804  1.0000
  H   H227      1.0  0.03420  0.38787  0.10831  1.0000
  C   C234      1.0  0.99793  0.52668  0.16549  1.0000
  H   H228      1.0  0.99926  0.48811  0.19669  1.0000
  H   H229      1.0  0.48315  0.52726  0.12290  1.0000
  C   C235      1.0  0.00178  0.43371  0.20317  1.0000
  H   H230      1.0  0.01058  0.41625  0.19998  1.0000
  C   C236      1.0  0.48649  0.49984  0.16238  1.0000
  H   H231      1.0  0.47843  0.42805  0.13974  1.0000
  H   H232      1.0  0.33739  0.34081  0.11199  1.0000
  H   H233      1.0  0.48859  0.54608  0.16013  1.0000
  H   H234      1.0  0.01639  0.33670  0.08757  1.0000
  Fe  Fe46      1.0  0.99291  0.65135  0.15170  1.0000
  H   H235      1.0  0.48160  0.42434  0.11905  1.0000
  C   C237      1.0  0.48764  0.48388  0.12522  1.0000
  C   C238      1.0  0.42165  0.41025  0.37654  1.0000
  H   H236      1.0  0.11681  0.65762  0.46524  1.0000
  H   H237      1.0  0.41342  0.43891  0.35864  1.0000
  H   H238      1.0  0.01335  0.44496  0.47312  1.0000
  H   H239      1.0  0.07358  0.48907  0.46758  1.0000
  C   C239      1.0  0.03694  0.64226  0.43069  1.0000
  N   N19       1.0  0.39999  0.36360  0.35663  1.0000
  S   S85       1.0  0.43174  0.42582  0.47168  1.0000
  C   C240      1.0  0.24454  0.49622  0.45431  1.0000
  S   S86       1.0  0.10003  0.44842  0.45920  1.0000
  H   H240      1.0  0.38652  0.66561  0.38585  1.0000
  Fe  Fe47      1.0  0.40630  0.44108  0.45544  1.0000
  S   S87       1.0  0.39278  0.42581  0.42799  1.0000
  S   S88       1.0  0.37386  0.46370  0.46587  1.0000
  Fe  Fe48      1.0  0.38843  0.37752  0.43174  1.0000
  H   H241      1.0  0.15302  0.57750  0.48229  1.0000
  S   S89       1.0  0.39079  0.38187  0.45682  1.0000
  Fe  Fe49      1.0  0.32198  0.61976  0.45865  1.0000
  S   S90       1.0  0.29148  0.61372  0.43887  1.0000
  S   S91       1.0  0.32745  0.57512  0.46830  1.0000
  Fe  Fe50      1.0  0.26472  0.63531  0.45312  1.0000
  S   S92       1.0  0.21000  0.61091  0.46108  1.0000
  Fe  Fe51      1.0  0.02103  0.51556  0.43525  1.0000
  S   S93       1.0  0.02968  0.53279  0.40973  1.0000
  S   S94       1.0  0.06036  0.53640  0.45219  1.0000
  C   C241      1.0  0.46590  0.48976  0.42626  1.0000
  C   C242      1.0  0.41980  0.38078  0.38099  1.0000
  H   H242      1.0  0.23285  0.57512  0.48218  1.0000
  H   H243      1.0  0.22002  0.37764  0.27845  1.0000
  H   H244      1.0  0.23680  0.52678  0.43720  1.0000
  Fe  Fe52      1.0  0.17042  0.61492  0.40326  1.0000
  S   S95       1.0  0.18184  0.63025  0.37727  1.0000
  S   S96       1.0  0.17793  0.57111  0.41116  1.0000
  Fe  Fe53      1.0  0.13734  0.63891  0.37939  1.0000
  S   S97       1.0  0.09744  0.62266  0.36223  1.0000
  S   S98       1.0  0.12574  0.62274  0.40509  1.0000
  C   C243      1.0  0.16832  0.59392  0.45795  1.0000
  C   C244      1.0  0.14546  0.57794  0.47074  1.0000
  C   C245      1.0  0.11289  0.56214  0.46876  1.0000
  C   C246      1.0  0.10205  0.56036  0.45387  1.0000
  C   C247      1.0  0.12447  0.57810  0.44122  1.0000
  C   C248      1.0  0.15713  0.59527  0.44333  1.0000
  H   H245      1.0  0.09601  0.55083  0.47892  1.0000
  H   H246      1.0  0.11692  0.57754  0.42967  1.0000
  H   H247      1.0  0.17403  0.60857  0.43349  1.0000
  C   C249      1.0  0.36183  0.49546  0.46497  1.0000
  C   C250      1.0  0.37320  0.52075  0.45316  1.0000
  C   C251      1.0  0.36291  0.54519  0.45368  1.0000
  C   C252      1.0  0.34147  0.54503  0.46616  1.0000
  C   C253      1.0  0.33037  0.51966  0.47781  1.0000
  C   C254      1.0  0.34006  0.49529  0.47715  1.0000
  H   H248      1.0  0.39005  0.52163  0.44365  1.0000
  H   H249      1.0  0.37199  0.56439  0.44454  1.0000
  S   S99       1.0  0.20142  0.66327  0.40958  1.0000
  C   C255      1.0  0.04006  0.59839  0.34872  1.0000
  C   C256      1.0  0.05512  0.59810  0.36232  1.0000
  C   C257      1.0  0.03601  0.57842  0.37540  1.0000
  H   H250      1.0  0.05409  0.61205  0.33816  1.0000
  H   H251      1.0  0.04695  0.57818  0.38594  1.0000
  C   C258      1.0  0.12196  0.48387  0.44671  1.0000
  C   C259      1.0  0.10677  0.49248  0.43498  1.0000
  C   C260      1.0  0.12308  0.51972  0.42453  1.0000
  C   C261      1.0  0.15512  0.53879  0.42549  1.0000
  C   C262      1.0  0.17028  0.53022  0.43723  1.0000
  C   C263      1.0  0.15383  0.50322  0.44791  1.0000
  H   H252      1.0  0.08207  0.47805  0.43400  1.0000
  H   H253      1.0  0.11080  0.52585  0.41569  1.0000
  H   H254      1.0  0.19483  0.54501  0.43812  1.0000
  H   H255      1.0  0.16591  0.49716  0.45687  1.0000
  H   H256      1.0  0.33258  0.38308  0.24700  1.0000
  Fe  Fe54      1.0  0.45159  0.40240  0.45637  1.0000
  S   S100      1.0  0.31646  0.33805  0.35105  1.0000
  H   H257      1.0  0.37809  0.34508  0.33624  1.0000
  C   C264      1.0  0.44164  0.46811  0.43782  1.0000
  H   H258      1.0  0.42659  0.47866  0.44242  1.0000
  N   N20       1.0  0.30377  0.35872  0.45217  1.0000
  S   S101      1.0  0.00980  0.46335  0.38296  1.0000
  H   H259      1.0  0.10139  0.61654  0.46394  1.0000
  C   C265      1.0  0.02693  0.63299  0.38955  1.0000
  C   C266      1.0  0.99449  0.61337  0.39106  1.0000
  H   H260      1.0  0.04198  0.62893  0.39748  1.0000
  H   H261      1.0  0.16365  0.33913  0.31423  1.0000
  S   S102      1.0  0.29604  0.64265  0.47286  1.0000
  H   H262      1.0  0.16341  0.34084  0.27808  1.0000
  H   H263      1.0  0.31410  0.51886  0.48757  1.0000
  C   C267      1.0  0.07151  0.48631  0.48027  1.0000
  C   C268      1.0  0.30937  0.40112  0.43359  1.0000
  H   H264      1.0  0.23494  0.56278  0.45630  1.0000
  C   C269      1.0  0.01415  0.46388  0.48028  1.0000
  C   C270      1.0  0.44239  0.43502  0.44559  1.0000
  C   C271      1.0  0.47796  0.43727  0.43859  1.0000
  H   H265      1.0  0.01897  0.40346  0.33954  1.0000
  C   C272      1.0  0.07545  0.66457  0.44884  1.0000
  H   H266      1.0  0.02847  0.45156  0.35231  1.0000
  C   C273      1.0  0.30612  0.37069  0.43700  1.0000
  H   H267      1.0  0.31349  0.44313  0.44345  1.0000
  C   C274      1.0  0.33402  0.36220  0.24356  1.0000
  N   N21       1.0  0.24294  0.53733  0.47550  1.0000
  C   C275      1.0  0.34555  0.36335  0.39370  1.0000
  C   C276      1.0  0.33644  0.36324  0.37841  1.0000
  H   H268      1.0  0.24521  0.48020  0.44604  1.0000
  C   C277      1.0  0.00912  0.40177  0.35150  1.0000
  H   H269      1.0  0.35461  0.38479  0.39917  1.0000
  H   H270      1.0  0.33868  0.38474  0.37226  1.0000
  H   H271      1.0  0.30483  0.36775  0.47607  1.0000
  C   C278      1.0  0.30505  0.37654  0.46416  1.0000
  S   S103      1.0  0.03159  0.34680  0.30777  1.0000
  Fe  Fe55      1.0  0.32627  0.66291  0.43000  1.0000
  H   H272      1.0  0.46263  0.50940  0.42107  1.0000
  H   H273      1.0  0.25244  0.47080  0.47394  1.0000
  H   H274      1.0  0.12201  0.50478  0.48089  1.0000
  C   C279      1.0  0.23885  0.54264  0.46020  1.0000
  C   C280      1.0  0.24796  0.51199  0.48042  1.0000
  C   C281      1.0  0.24859  0.49093  0.46994  1.0000
  C   C282      1.0  0.40162  0.39244  0.35220  1.0000
  C   C283      1.0  0.48953  0.48233  0.41896  1.0000
  C   C284      1.0  0.23639  0.34153  0.27832  1.0000
  H   H275      1.0  0.05408  0.35114  0.35691  1.0000
  C   C285      1.0  0.00673  0.58197  0.34868  1.0000
  C   C286      1.0  0.23976  0.52228  0.44936  1.0000
  C   C287      1.0  0.01448  0.42912  0.35883  1.0000
  H   H276      1.0  0.30837  0.42060  0.47083  1.0000
  C   C288      1.0  0.00101  0.34794  0.25046  1.0000
  C   C289      1.0  0.38950  0.33908  0.34605  1.0000
  H   H277      1.0  0.33094  0.47628  0.48640  1.0000
  H   H278      1.0  0.30595  0.35689  0.42743  1.0000
  Fe  Fe56      1.0  0.44965  0.44092  0.42333  1.0000
  S   S104      1.0  0.47964  0.37618  0.46737  1.0000
  H   H279      1.0  0.04645  0.35421  0.25733  1.0000
  S   S105      1.0  0.47934  0.47462  0.45734  1.0000
  C   C290      1.0  0.21335  0.35294  0.27821  1.0000
  C   C291      1.0  0.00184  0.42769  0.37439  1.0000
  S   S106      1.0  0.47778  0.46837  0.40141  1.0000
  H   H280      1.0  0.13026  0.64342  0.44868  1.0000
  C   C292      1.0  0.02188  0.66359  0.36675  1.0000
  C   C293      1.0  0.04038  0.65788  0.37760  1.0000
  S   S107      1.0  0.43913  0.38638  0.42903  1.0000
  Fe  Fe57      1.0  0.99824  0.48311  0.40527  1.0000
  C   C294      1.0  0.30728  0.40661  0.46122  1.0000
  N   N22       1.0  0.08382  0.64028  0.44826  1.0000
  C   C295      1.0  0.06918  0.61698  0.43913  1.0000
  C   C296      1.0  0.10930  0.63947  0.45699  1.0000
  H   H281      1.0  0.07604  0.59798  0.43848  1.0000
  H   H282      1.0  0.49024  0.42465  0.44380  1.0000
  H   H283      1.0  0.99609  0.58419  0.33822  1.0000
  H   H284      1.0  0.42618  0.37584  0.39239  1.0000
  C   C297      1.0  0.04536  0.61743  0.43034  1.0000
  N   N23       1.0  0.10986  0.52940  0.37500  1.0000
  C   C298      1.0  0.13706  0.53514  0.38175  1.0000
  C   C299      1.0  0.08918  0.49957  0.37334  1.0000
  C   C300      1.0  0.14323  0.51056  0.38792  1.0000
  C   C301      1.0  0.09426  0.47437  0.37958  1.0000
  C   C302      1.0  0.12135  0.47998  0.38709  1.0000
  C   C303      1.0  0.10301  0.55554  0.36966  1.0000
  H   H285      1.0  0.15376  0.55885  0.38273  1.0000
  H   H286      1.0  0.06831  0.49517  0.36742  1.0000
  H   H287      1.0  0.16430  0.51537  0.39383  1.0000
  H   H288      1.0  0.07690  0.45075  0.37885  1.0000
  H   H289      1.0  0.12529  0.46075  0.39236  1.0000
  H   H290      1.0  0.10501  0.57069  0.37922  1.0000
  H   H291      1.0  0.11987  0.56966  0.35942  1.0000
  H   H292      1.0  0.07850  0.54773  0.36634  1.0000
  H   H293      1.0  0.42974  0.42833  0.38440  1.0000
  C   C304      1.0  0.30999  0.41917  0.44583  1.0000
  H   H294      1.0  0.31205  0.41081  0.42154  1.0000
  H   H295      1.0  0.03386  0.59883  0.42313  1.0000
  H   H296      1.0  0.01511  0.48359  0.47225  1.0000
  C   C305      1.0  0.00263  0.56094  0.37519  1.0000
  H   H297      1.0  0.44124  0.48777  0.48262  1.0000
  H   H298      1.0  0.26117  0.35724  0.27851  1.0000
  H   H299      1.0  0.01890  0.64308  0.42363  1.0000
  S   S108      1.0  0.11688  0.38366  0.48290  1.0000
  H   H300      1.0  0.26877  0.57462  0.48827  1.0000
  C   C306      1.0  0.24374  0.55974  0.48656  1.0000
  C   C307      1.0  0.03350  0.35621  0.24772  1.0000
  Fe  Fe58      1.0  0.10858  0.42723  0.48221  1.0000
  C   C308      1.0  0.41248  0.41618  0.36207  1.0000
  H   H301      1.0  0.39387  0.39700  0.34112  1.0000
  C   C309      1.0  0.40884  0.35758  0.37083  1.0000
  H   H302      1.0  0.34277  0.66298  0.37285  1.0000
  H   H303      1.0  0.07897  0.66439  0.34218  1.0000
  S   S109      1.0  0.31355  0.33947  0.27457  1.0000
  C   C310      1.0  0.09906  0.49542  0.48780  1.0000
  H   H304      1.0  0.10153  0.34874  0.34293  1.0000
  C   C311      1.0  0.05212  0.66608  0.43995  1.0000
  H   H305      1.0  0.06687  0.65621  0.31484  1.0000
  S   S110      1.0  0.35830  0.66763  0.44868  1.0000
  N   N24       1.0  0.04239  0.47408  0.48870  1.0000
  H   H306      1.0  0.39942  0.50497  0.48929  1.0000
  Fe  Fe59      1.0  0.38149  0.38827  0.52784  1.0000
  S   S111      1.0  0.14653  0.45135  0.49743  1.0000
  S   S112      1.0  0.38435  0.41435  0.54960  1.0000
  Fe  Fe60      1.0  0.33022  0.35225  0.50723  1.0000
  H   H307      1.0  0.44177  0.40528  0.55421  1.0000
  H   H308      1.0  0.30218  0.44813  0.68396  1.0000
  C   C312      1.0  0.47155  0.36213  0.64211  1.0000
  S   S113      1.0  0.36352  0.40277  0.50644  1.0000
  S   S114      1.0  0.41877  0.38036  0.51329  1.0000
  H   H309      1.0  0.17449  0.36002  0.55181  1.0000
  S   S115      1.0  0.47470  0.47269  0.67380  1.0000
  C   C313      1.0  0.00089  0.40239  0.69162  1.0000
  Fe  Fe61      1.0  0.08118  0.36659  0.50453  1.0000
  S   S116      1.0  0.07065  0.40873  0.50293  1.0000
  H   H310      1.0  0.38061  0.43755  0.57927  1.0000
  Fe  Fe62      1.0  0.11000  0.42908  0.51828  1.0000
  S   S117      1.0  0.11234  0.45918  0.53825  1.0000
  S   S118      1.0  0.11897  0.38656  0.52100  1.0000
  C   C314      1.0  0.46359  0.37411  0.69420  1.0000
  C   C315      1.0  0.40871  0.49582  0.49850  1.0000
  C   C316      1.0  0.20857  0.36341  0.50117  1.0000
  S   S119      1.0  0.42811  0.43298  0.64806  1.0000
  H   H311      1.0  0.15062  0.41592  0.58306  1.0000
  Fe  Fe63      1.0  0.46959  0.45696  0.62963  1.0000
  H   H312      1.0  0.44878  0.50328  0.71400  1.0000
  Fe  Fe64      1.0  0.44319  0.47994  0.65706  1.0000
  S   S120      1.0  0.40922  0.50042  0.66473  1.0000
  H   H313      1.0  0.21646  0.57929  0.64555  1.0000
  C   C317      1.0  0.06002  0.59906  0.61983  1.0000
  H   H314      1.0  0.27087  0.40973  0.73140  1.0000
  H   H315      1.0  0.28299  0.47241  0.71216  1.0000
  Fe  Fe65      1.0  0.06026  0.45313  0.66238  1.0000
  S   S121      1.0  0.09036  0.42801  0.65638  1.0000
  H   H316      1.0  0.17049  0.45945  0.56200  1.0000
  Fe  Fe66      1.0  0.10400  0.51216  0.64183  1.0000
  S   S122      1.0  0.13720  0.49149  0.63405  1.0000
  S   S123      1.0  0.11576  0.56159  0.63216  1.0000
  Fe  Fe67      1.0  0.09363  0.44839  0.63146  1.0000
  S   S124      1.0  0.08563  0.41634  0.61189  1.0000
  Fe  Fe68      1.0  0.13139  0.47338  0.65946  1.0000
  S   S125      1.0  0.17780  0.48333  0.66965  1.0000
  S   S126      1.0  0.06067  0.47044  0.63737  1.0000
  S   S127      1.0  0.10102  0.49700  0.66729  1.0000
  C   C318      1.0  0.09761  0.62579  0.66485  1.0000
  C   C319      1.0  0.11406  0.63765  0.64997  1.0000
  C   C320      1.0  0.11993  0.61780  0.64012  1.0000
  C   C321      1.0  0.10905  0.58599  0.64502  1.0000
  C   C322      1.0  0.09252  0.57415  0.65987  1.0000
  C   C323      1.0  0.08695  0.59406  0.66978  1.0000
  C   C324      1.0  0.26647  0.44916  0.70924  1.0000
  H   H317      1.0  0.13270  0.62706  0.62862  1.0000
  H   H318      1.0  0.08369  0.54964  0.66368  1.0000
  H   H319      1.0  0.07413  0.58479  0.68127  1.0000
  C   C325      1.0  0.19135  0.46806  0.72141  1.0000
  C   C326      1.0  0.21719  0.48579  0.71039  1.0000
  C   C327      1.0  0.21256  0.49033  0.69461  1.0000
  C   C328      1.0  0.18201  0.47778  0.68975  1.0000
  C   C329      1.0  0.15602  0.46085  0.70084  1.0000
  C   C330      1.0  0.16074  0.45584  0.71659  1.0000
  H   H320      1.0  0.24075  0.49586  0.71399  1.0000
  H   H321      1.0  0.23277  0.50364  0.68613  1.0000
  H   H322      1.0  0.13238  0.45107  0.69725  1.0000
  H   H323      1.0  0.14060  0.44221  0.72506  1.0000
  C   C331      1.0  0.01969  0.38649  0.69409  1.0000
  H   H324      1.0  0.11788  0.49968  0.51008  1.0000
  C   C332      1.0  0.30108  0.43203  0.69375  1.0000
  H   H325      1.0  0.04256  0.39427  0.68735  1.0000
  C   C333      1.0  0.39047  0.49007  0.68406  1.0000
  C   C334      1.0  0.39519  0.46861  0.69418  1.0000
  C   C335      1.0  0.38123  0.46179  0.70976  1.0000
  C   C336      1.0  0.36225  0.47613  0.71531  1.0000
  C   C337      1.0  0.35746  0.49759  0.70520  1.0000
  C   C338      1.0  0.37154  0.50450  0.68960  1.0000
  H   H326      1.0  0.40961  0.45726  0.69004  1.0000
  H   H327      1.0  0.38492  0.44508  0.71752  1.0000
  H   H328      1.0  0.34308  0.50894  0.70941  1.0000
  H   H329      1.0  0.36800  0.52131  0.68183  1.0000
  C   C339      1.0  0.19592  0.46072  0.53321  1.0000
  C   C340      1.0  0.39633  0.49268  0.51404  1.0000
  C   C341      1.0  0.25823  0.40891  0.50067  1.0000
  N   N25       1.0  0.49184  0.55286  0.68238  1.0000
  H   H330      1.0  0.21230  0.45832  0.52393  1.0000
  H   H331      1.0  0.09041  0.64204  0.59691  1.0000
  C   C342      1.0  0.45531  0.34362  0.70087  1.0000
  H   H332      1.0  0.04517  0.36309  0.63927  1.0000
  Fe  Fe69      1.0  0.15335  0.40721  0.49932  1.0000
  C   C343      1.0  0.16065  0.41327  0.57177  1.0000
  H   H333      1.0  0.46103  0.44222  0.49925  1.0000
  C   C344      1.0  0.10380  0.44656  0.55866  1.0000
  C   C345      1.0  0.11062  0.46898  0.56942  1.0000
  C   C346      1.0  0.10507  0.46015  0.58571  1.0000
  C   C347      1.0  0.09238  0.42869  0.59146  1.0000
  C   C348      1.0  0.08536  0.40624  0.58070  1.0000
  C   C349      1.0  0.09112  0.41508  0.56440  1.0000
  H   H334      1.0  0.12043  0.49340  0.56515  1.0000
  H   H335      1.0  0.11063  0.47771  0.59382  1.0000
  H   H336      1.0  0.07552  0.38183  0.58500  1.0000
  H   H337      1.0  0.08572  0.39753  0.55630  1.0000
  H   H338      1.0  0.29976  0.40036  0.50259  1.0000
  C   C350      1.0  0.25785  0.35754  0.50304  1.0000
  H   H339      1.0  0.19472  0.40427  0.53122  1.0000
  C   C351      1.0  0.30125  0.39311  0.71909  1.0000
  C   C352      1.0  0.43285  0.47189  0.52170  1.0000
  C   C353      1.0  0.08423  0.65272  0.60694  1.0000
  C   C354      1.0  0.40874  0.42051  0.56519  1.0000
  C   C355      1.0  0.43574  0.41471  0.56438  1.0000
  C   C356      1.0  0.45534  0.42172  0.57665  1.0000
  C   C357      1.0  0.44804  0.43420  0.58996  1.0000
  C   C358      1.0  0.42074  0.43947  0.59090  1.0000
  C   C359      1.0  0.40139  0.43290  0.57852  1.0000
  H   H340      1.0  0.41482  0.44914  0.60101  1.0000
  C   C360      1.0  0.48835  0.57216  0.66935  1.0000
  C   C361      1.0  0.48319  0.39918  0.70176  1.0000
  C   C362      1.0  0.01233  0.38366  0.64238  1.0000
  H   H341      1.0  0.17539  0.46151  0.52780  1.0000
  H   H342      1.0  0.02499  0.62530  0.65496  1.0000
  C   C363      1.0  0.28357  0.41058  0.72021  1.0000
  H   H343      1.0  0.27138  0.43393  0.49988  1.0000
  H   H344      1.0  0.44401  0.53723  0.69230  1.0000
  Fe  Fe70      1.0  0.46271  0.42752  0.66353  1.0000
  C   C364      1.0  0.31890  0.41477  0.69219  1.0000
  H   H345      1.0  0.15238  0.36572  0.57803  1.0000
  H   H346      1.0  0.39847  0.47729  0.53786  1.0000
  C   C365      1.0  0.17211  0.43790  0.55984  1.0000
  N   N26       1.0  0.28346  0.42953  0.70759  1.0000
  C   C366      1.0  0.03975  0.47094  0.50472  1.0000
  H   H347      1.0  0.30207  0.37897  0.72929  1.0000
  H   H348      1.0  0.12238  0.66210  0.64610  1.0000
  H   H349      1.0  0.47646  0.41765  0.57575  1.0000
  C   C367      1.0  0.44375  0.36761  0.61992  1.0000
  C   C368      1.0  0.18542  0.40709  0.54263  1.0000
  S   S128      1.0  0.01282  0.43423  0.67715  1.0000
  C   C369      1.0  0.03399  0.61750  0.64494  1.0000
  C   C370      1.0  0.02944  0.58655  0.64513  1.0000
  C   C371      1.0  0.16153  0.38509  0.56892  1.0000
  S   S129      1.0  0.28945  0.51411  0.73732  1.0000
  S   S130      1.0  0.34583  0.33838  0.52940  1.0000
  S   S131      1.0  0.20638  0.42099  0.49807  1.0000
  S   S132      1.0  0.36329  0.34023  0.49147  1.0000
  H   H350      1.0  0.01684  0.57011  0.65529  1.0000
  C   C372      1.0  0.04231  0.57716  0.63246  1.0000
  C   C373      1.0  0.22487  0.34439  0.50251  1.0000
  H   H351      1.0  0.44158  0.46188  0.53088  1.0000
  H   H352      1.0  0.23039  0.54756  0.49798  1.0000
  H   H353      1.0  0.06488  0.47757  0.52535  1.0000
  H   H354      1.0  0.42618  0.34308  0.62293  1.0000
  N   N27       1.0  0.06432  0.62937  0.61975  1.0000
  H   H355      1.0  0.44793  0.37223  0.60694  1.0000
  S   S133      1.0  0.48235  0.50491  0.63738  1.0000
  C   C374      1.0  0.05145  0.63867  0.63202  1.0000
  H   H356      1.0  0.01670  0.46109  0.51146  1.0000
  C   C375      1.0  0.09669  0.49261  0.50409  1.0000
  H   H357      1.0  0.25641  0.45205  0.69825  1.0000
  N   N28       1.0  0.17869  0.57639  0.66172  1.0000
  C   C376      1.0  0.17804  0.60477  0.65907  1.0000
  C   C377      1.0  0.16826  0.55975  0.67616  1.0000
  C   C378      1.0  0.16640  0.61707  0.67099  1.0000
  C   C379      1.0  0.15596  0.57112  0.68827  1.0000
  C   C380      1.0  0.15493  0.59992  0.68561  1.0000
  C   C381      1.0  0.19094  0.56421  0.64893  1.0000
  H   H358      1.0  0.18582  0.61769  0.64756  1.0000
  H   H359      1.0  0.16896  0.53732  0.67834  1.0000
  H   H360      1.0  0.16526  0.63929  0.66877  1.0000
  H   H361      1.0  0.14704  0.55750  0.69958  1.0000
  H   H362      1.0  0.14486  0.60883  0.69477  1.0000
  H   H363      1.0  0.18839  0.54026  0.65227  1.0000
  H   H364      1.0  0.17760  0.56319  0.63862  1.0000
  H   H365      1.0  0.33357  0.41752  0.68134  1.0000
  H   H366      1.0  0.20893  0.48316  0.53806  1.0000
  C   C382      1.0  0.48565  0.36321  0.72270  1.0000
  C   C383      1.0  0.00877  0.36034  0.70526  1.0000
  H   H367      1.0  0.48692  0.48174  0.49215  1.0000
  S   S134      1.0  0.44884  0.37976  0.67646  1.0000
  C   C384      1.0  0.17392  0.38189  0.55425  1.0000
  H   H368      1.0  0.33353  0.38252  0.70408  1.0000
  C   C385      1.0  0.31897  0.39522  0.70497  1.0000
  C   C386      1.0  0.40840  0.48059  0.52574  1.0000
  H   H369      1.0  0.03999  0.55343  0.63274  1.0000
  C   C387      1.0  0.22529  0.39579  0.50013  1.0000
  C   C388      1.0  0.46654  0.53618  0.69328  1.0000
  H   H370      1.0  0.24634  0.43895  0.71868  1.0000
  N   N29       1.0  0.44513  0.47545  0.50642  1.0000
  C   C389      1.0  0.06686  0.48028  0.51265  1.0000
  H   H371      1.0  0.18322  0.35303  0.50072  1.0000
  N   N30       1.0  0.18467  0.43472  0.54558  1.0000
  N   N31       1.0  0.47316  0.37346  0.62691  1.0000
  C   C390      1.0  0.46917  0.51708  0.70562  1.0000
  C   C391      1.0  0.27441  0.38990  0.50222  1.0000
  S   S135      1.0  0.09039  0.64997  0.67765  1.0000
  H   H372      1.0  0.44876  0.34857  0.64886  1.0000
  H   H373      1.0  0.02341  0.34809  0.70709  1.0000
  C   C392      1.0  0.46636  0.33815  0.71504  1.0000
  S   S136      1.0  0.34445  0.46565  0.73480  1.0000
  H   H374      1.0  0.37710  0.49915  0.51696  1.0000
  H   H375      1.0  0.07120  0.59181  0.61041  1.0000
  S   S137      1.0  0.47427  0.44334  0.60481  1.0000
  C   C393      1.0  0.00861  0.33862  0.65851  1.0000
  H   H376      1.0  0.05537  0.66282  0.63196  1.0000
  C   C394      1.0  0.47091  0.46646  0.50239  1.0000
  H   H377      1.0  0.02432  0.40189  0.63282  1.0000
  C   C395      1.0  0.43278  0.48645  0.49483  1.0000
  C   C396      1.0  0.02404  0.36177  0.64603  1.0000
  Fe  Fe71      1.0  0.39789  0.39048  0.49182  1.0000
  H   H378      1.0  0.46467  0.56034  0.66508  1.0000
  H   H379      1.0  0.25182  0.50807  0.49246  1.0000
  H   H380      1.0  0.48536  0.46811  0.51227  1.0000
  H   H381      1.0  0.43358  0.38335  0.62428  1.0000
  H   H382      1.0  0.49117  0.59495  0.67315  1.0000
  H   H383      1.0  0.02628  0.37361  0.73733  1.0000
  H   H384      1.0  0.07177  0.66662  0.60258  1.0000
  H   H385      1.0  0.48976  0.42275  0.69672  1.0000
  H   H386      1.0  0.10648  0.66898  0.61126  1.0000
  Fe  Fe72      1.0  0.21867  0.39059  0.92408  1.0000
  C   C397      1.0  0.31410  0.44306  0.92766  1.0000
  S   S138      1.0  0.23294  0.42633  0.94172  1.0000
  Fe  Fe73      1.0  0.20572  0.38396  0.88945  1.0000
  H   H387      1.0  0.05080  0.34150  0.88191  1.0000
  S   S139      1.0  0.19266  0.40498  0.86811  1.0000
  C   C398      1.0  0.99707  0.37859  0.77345  1.0000
  N   N32       1.0  0.32574  0.58102  0.97573  1.0000
  Fe  Fe74      1.0  0.24387  0.35313  0.90476  1.0000
  H   H388      1.0  0.24583  0.54221  0.98199  1.0000
  S   S140      1.0  0.17456  0.37652  0.91188  1.0000
  S   S141      1.0  0.25016  0.40272  0.90138  1.0000
  C   C399      1.0  0.24612  0.43093  0.98778  1.0000
  Fe  Fe75      1.0  0.27685  0.47268  0.77985  1.0000
  S   S142      1.0  0.25148  0.50195  0.77315  1.0000
  S   S143      1.0  0.28146  0.45199  0.80363  1.0000
  C   C400      1.0  0.29585  0.51344  0.83856  1.0000
  Fe  Fe76      1.0  0.29820  0.53506  0.76027  1.0000
  S   S144      1.0  0.31586  0.58686  0.76132  1.0000
  S   S145      1.0  0.26556  0.44641  0.75863  1.0000
  S   S146      1.0  0.32429  0.50775  0.76839  1.0000
  C   C401      1.0  0.32546  0.60081  0.77954  1.0000
  H   H389      1.0  0.29683  0.45353  0.92814  1.0000
  C   C402      1.0  0.32999  0.58258  0.79167  1.0000
  S   S147      1.0  0.21500  0.34205  0.92813  1.0000
  H   H390      1.0  0.32647  0.55901  0.79010  1.0000
  C   C403      1.0  0.21672  0.41651  0.84997  1.0000
  C   C404      1.0  0.24574  0.41455  0.84821  1.0000
  C   C405      1.0  0.26469  0.42462  0.83374  1.0000
  C   C406      1.0  0.25488  0.43672  0.82090  1.0000
  C   C407      1.0  0.22565  0.43833  0.82257  1.0000
  C   C408      1.0  0.20670  0.42831  0.83709  1.0000
  H   H391      1.0  0.25371  0.40552  0.85803  1.0000
  H   H392      1.0  0.28733  0.42340  0.83254  1.0000
  H   H393      1.0  0.21779  0.44749  0.81276  1.0000
  H   H394      1.0  0.18421  0.42980  0.83836  1.0000
  C   C409      1.0  0.23227  0.41540  0.96180  1.0000
  C   C410      1.0  0.22200  0.38425  0.96764  1.0000
  H   H395      1.0  0.31658  0.45031  0.95795  1.0000
  C   C411      1.0  0.24396  0.43868  0.97197  1.0000
  H   H396      1.0  0.21265  0.36612  0.95999  1.0000
  H   H397      1.0  0.34420  0.58130  0.81490  1.0000
  H   H398      1.0  0.25175  0.46281  0.96754  1.0000
  N   N33       1.0  0.30533  0.41841  0.94061  1.0000
  H   H399      1.0  0.24519  0.53805  0.79944  1.0000
  C   C412      1.0  0.35085  0.60954  0.96746  1.0000
  H   H400      1.0  0.36416  0.62511  0.97605  1.0000
  H   H401      1.0  0.28803  0.59023  0.96773  1.0000
  H   H402      1.0  0.36764  0.60397  0.95992  1.0000
  N   N34       1.0  0.28248  0.53308  0.83108  1.0000
  H   H403      1.0  0.29371  0.51356  0.85149  1.0000
  S   S148      1.0  0.28911  0.34690  0.90080  1.0000
  C   C413      1.0  0.33026  0.63137  0.78163  1.0000
  H   H404      1.0  0.29929  0.56758  0.84704  1.0000
  C   C414      1.0  0.33979  0.64380  0.79573  1.0000
  C   C415      1.0  0.29333  0.38786  0.93774  1.0000
  H   H405      1.0  0.32665  0.64550  0.77230  1.0000
  C   C416      1.0  0.25627  0.54425  0.81013  1.0000
  C   C417      1.0  0.28648  0.56043  0.83690  1.0000
  H   H406      1.0  0.42960  0.65617  0.80816  1.0000
  C   C418      1.0  0.28774  0.37194  0.96537  1.0000
  S   S149      1.0  0.19640  0.45992  0.74115  1.0000
  C   C419      1.0  0.29455  0.57436  0.97463  1.0000
  C   C420      1.0  0.33388  0.56141  0.98482  1.0000
  C   C421      1.0  0.30840  0.42621  0.95562  1.0000
  H   H407      1.0  0.27990  0.35384  0.97511  1.0000
  C   C422      1.0  0.41209  0.62982  0.78870  1.0000
  H   H408      1.0  0.34143  0.62273  0.95982  1.0000
  H   H409      1.0  0.31403  0.43398  0.91607  1.0000
  Fe  Fe77      1.0  0.31139  0.48344  0.74673  1.0000
  H   H410      1.0  0.30142  0.40929  0.98016  1.0000
  H   H411      1.0  0.05457  0.33913  0.86098  1.0000
  C   C423      1.0  0.01516  0.38409  0.74561  1.0000
  H   H412      1.0  0.21692  0.35241  0.98777  1.0000
  H   H413      1.0  0.40780  0.60765  0.79495  1.0000
  H   H414      1.0  0.11271  0.35856  0.86896  1.0000
  H   H415      1.0  0.39330  0.60983  0.76781  1.0000
  C   C424      1.0  0.29994  0.40315  0.96821  1.0000
  H   H416      1.0  0.25189  0.58758  0.80998  1.0000
  H   H417      1.0  0.27938  0.60240  0.83390  1.0000
  C   C425      1.0  0.27518  0.58024  0.82954  1.0000
  H   H418      1.0  0.27418  0.33998  0.94767  1.0000
  H   H419      1.0  0.29014  0.38160  0.92591  1.0000
  H   H420      1.0  0.26596  0.50399  0.81275  1.0000
  S   S150      1.0  0.35806  0.64125  0.82535  1.0000
  C   C426      1.0  0.25997  0.57203  0.81607  1.0000
  C   C427      1.0  0.33993  0.59519  0.80570  1.0000
  H   H421      1.0  0.28306  0.48883  0.83619  1.0000
  C   C428      1.0  0.34499  0.62589  0.80775  1.0000
  H   H422      1.0  0.32115  0.52174  0.83399  1.0000
  C   C429      1.0  0.26801  0.52505  0.81774  1.0000
  Fe  Fe78      1.0  0.24431  0.47882  0.75072  1.0000
  C   C430      1.0  0.40402  0.63105  0.77346  1.0000
  H   H423      1.0  0.33820  0.46146  0.92839  1.0000
  N   N35       1.0  0.00466  0.36572  0.76094  1.0000
  C   C431      1.0  0.27056  0.54722  0.98260  1.0000
  C   C432      1.0  0.28436  0.36418  0.95004  1.0000
  C   C433      1.0  0.22437  0.37653  0.98341  1.0000
  H   H424      1.0  0.03299  0.40809  0.74666  1.0000
  C   C434      1.0  0.42435  0.65702  0.79611  1.0000
  H   H425      1.0  0.37160  0.34693  0.86184  1.0000
  H   H426      1.0  0.99899  0.40215  0.77203  1.0000
  C   C435      1.0  0.40844  0.65962  0.76581  1.0000
  H   H427      1.0  0.35856  0.56744  0.98627  1.0000
  H   H428      1.0  0.40137  0.66013  0.75410  1.0000
  H   H429      1.0  0.34288  0.66714  0.79727  1.0000
  H   H430      1.0  0.06018  0.33760  0.91043  1.0000
  H   H431      1.0  0.15327  0.33931  0.87278  1.0000
  H   H432      1.0  0.99449  0.38521  0.74044  1.0000
  H   H433      1.0  0.05484  0.75918  0.21328  1.0000
  S   S151      1.0  0.39276  0.72559  0.00216  1.0000
  C   C436      1.0  0.35094  0.75324  0.04607  1.0000
  H   H434      1.0  0.30330  0.85915  0.00130  1.0000
  H   H435      1.0  0.26407  0.75308  0.07297  1.0000
  C   C437      1.0  0.30769  0.84386  0.99362  1.0000
  C   C438      1.0  0.33443  0.98912  0.23245  1.0000
  Fe  Fe79      1.0  0.05727  0.70724  0.14930  1.0000
  S   S152      1.0  0.08661  0.75337  0.13480  1.0000
  H   H436      1.0  0.16158  0.78438  0.16648  1.0000
  Fe  Fe80      1.0  0.22917  0.81653  0.07008  1.0000
  S   S153      1.0  0.27977  0.84412  0.07447  1.0000
  S   S154      1.0  0.19846  0.76969  0.08362  1.0000
  Fe  Fe81      1.0  0.23545  0.85911  0.04040  1.0000
  S   S155      1.0  0.28620  0.89047  0.04268  1.0000
  S   S156      1.0  0.20634  0.86076  0.02066  1.0000
  Fe  Fe82      1.0  0.29101  0.84604  0.04850  1.0000
  S   S157      1.0  0.33381  0.84018  0.03834  1.0000
  Fe  Fe83      1.0  0.27065  0.88607  0.06847  1.0000
  S   S158      1.0  0.28466  0.92798  0.08238  1.0000
  S   S159      1.0  0.24129  0.81504  0.04458  1.0000
  S   S160      1.0  0.21889  0.85821  0.06575  1.0000
  C   C439      1.0  0.11904  0.75806  0.12142  1.0000
  C   C440      1.0  0.12703  0.73334  0.11900  1.0000
  C   C441      1.0  0.15192  0.73743  0.10759  1.0000
  C   C442      1.0  0.16912  0.76625  0.09865  1.0000
  C   C443      1.0  0.16144  0.79110  0.10128  1.0000
  C   C444      1.0  0.13642  0.78696  0.11260  1.0000
  H   H437      1.0  0.11379  0.71098  0.12574  1.0000
  H   H438      1.0  0.15776  0.71811  0.10563  1.0000
  H   H439      1.0  0.17452  0.81339  0.09446  1.0000
  H   H440      1.0  0.13036  0.80619  0.11442  1.0000
  C   C445      1.0  0.35866  0.95048  0.11753  1.0000
  C   C446      1.0  0.28781  0.76974  0.06727  1.0000
  C   C447      1.0  0.31541  0.95777  0.10661  1.0000
  C   C448      1.0  0.31155  0.93443  0.09666  1.0000
  C   C449      1.0  0.33091  0.91866  0.09743  1.0000
  C   C450      1.0  0.35442  0.92673  0.10781  1.0000
  H   H441      1.0  0.16676  0.78556  0.04992  1.0000
  H   H442      1.0  0.32831  0.90080  0.08977  1.0000
  H   H443      1.0  0.36967  0.91481  0.10812  1.0000
  C   C451      1.0  0.31943  0.76260  0.00694  1.0000
  C   C452      1.0  0.29323  0.76577  0.01400  1.0000
  C   C453      1.0  0.29749  0.78969  0.02351  1.0000
  C   C454      1.0  0.32796  0.81065  0.02600  1.0000
  C   C455      1.0  0.35425  0.80759  0.01884  1.0000
  C   C456      1.0  0.35002  0.78352  0.00933  1.0000
  H   H444      1.0  0.26956  0.74955  0.01216  1.0000
  H   H445      1.0  0.27713  0.79161  0.02896  1.0000
  H   H446      1.0  0.37793  0.82373  0.02072  1.0000
  H   H447      1.0  0.37037  0.78122  0.00384  1.0000
  H   H448      1.0  0.40594  0.98251  0.08452  1.0000
  Fe  Fe84      1.0  0.02016  0.68005  0.18173  1.0000
  C   C457      1.0  0.06451  0.76840  0.18820  1.0000
  C   C458      1.0  0.07169  0.76271  0.20318  1.0000
  H   H449      1.0  0.27223  0.89099  0.00684  1.0000
  C   C459      1.0  0.14727  0.78535  0.05762  1.0000
  C   C460      1.0  0.48185  0.76218  0.00974  1.0000
  C   C461      1.0  0.25033  0.81419  0.99352  1.0000
  C   C462      1.0  0.28543  0.72803  0.05131  1.0000
  H   H450      1.0  0.15623  0.83253  0.04984  1.0000
  N   N36       1.0  0.10395  0.75868  0.07774  1.0000
  C   C463      1.0  0.09819  0.78459  0.07794  1.0000
  C   C464      1.0  0.08298  0.73016  0.08766  1.0000
  H   H451      1.0  0.35844  0.86795  0.99345  1.0000
  H   H452      1.0  0.13318  0.73852  0.06777  1.0000
  C   C465      1.0  0.45537  0.94698  0.14695  1.0000
  C   C466      1.0  0.29991  0.71374  0.04186  1.0000
  H   H453      1.0  0.07451  0.73565  0.09898  1.0000
  C   C467      1.0  0.13676  0.77512  0.16354  1.0000
  H   H454      1.0  0.14299  0.76231  0.19343  1.0000
  H   H455      1.0  0.30057  0.97010  0.10605  1.0000
  N   N37       1.0  0.11450  0.77127  0.17725  1.0000
  H   H456      1.0  0.13062  0.75238  0.15876  1.0000
  H   H457      1.0  0.33070  0.99704  0.06490  1.0000
  S   S161      1.0  0.00507  0.69556  0.20436  1.0000
  C   C468      1.0  0.12810  0.75878  0.06773  1.0000
  C   C469      1.0  0.22422  0.87438  0.00115  1.0000
  S   S162      1.0  0.35321  0.99457  0.20099  1.0000
  C   C470      1.0  0.33880  0.96572  0.11704  1.0000
  H   H458      1.0  0.04182  0.76872  0.18663  1.0000
  H   H459      1.0  0.34984  0.78878  0.05996  1.0000
  H   H460      1.0  0.31470  0.96802  0.23021  1.0000
  S   S163      1.0  0.07011  0.69136  0.17187  1.0000
  C   C471      1.0  0.25715  0.88793  0.99754  1.0000
  H   H461      1.0  0.34182  0.98403  0.12446  1.0000
  S   S164      1.0  0.39034  0.96191  0.12933  1.0000
  H   H462      1.0  0.09556  0.71554  0.09060  1.0000
  H   H463      1.0  0.45918  0.74342  0.00852  1.0000
  H   H464      1.0  0.28490  0.78772  0.05954  1.0000
  H   H465      1.0  0.07913  0.78454  0.08591  1.0000
  H   H466      1.0  0.43507  0.95257  0.15031  1.0000
  C   C472      1.0  0.14148  0.81181  0.05768  1.0000
  H   H467      1.0  0.30211  0.78134  0.07670  1.0000
  H   H468      1.0  0.25979  0.71845  0.05297  1.0000
  H   H469      1.0  0.13576  0.79175  0.15413  1.0000
  C   C473      1.0  0.36845  0.98761  0.07323  1.0000
  H   H470      1.0  0.34431  0.71600  0.03164  1.0000
  C   C474      1.0  0.08630  0.77264  0.17528  1.0000
  C   C475      1.0  0.09999  0.76037  0.20508  1.0000
  C   C476      1.0  0.01734  0.69674  0.22357  1.0000
  H   H471      1.0  0.10509  0.75484  0.21669  1.0000
  H   H472      1.0  0.11251  0.83218  0.06823  1.0000
  C   C477      1.0  0.12121  0.76457  0.19189  1.0000
  H   H473      1.0  0.08036  0.77675  0.16365  1.0000
  S   S165      1.0  0.00854  0.69916  0.15952  1.0000
  H   H474      1.0  0.06216  0.71647  0.08155  1.0000
  N   N38       1.0  0.30334  0.75416  0.05806  1.0000
  C   C478      1.0  0.33569  0.76708  0.05535  1.0000
  C   C479      1.0  0.11692  0.81156  0.06797  1.0000
  H   H475      1.0  0.49066  0.73779  0.02944  1.0000
  H   H476      1.0  0.28574  0.69349  0.03618  1.0000
  H   H477      1.0  0.36351  0.96763  0.06668  1.0000
  H   H478      1.0  0.24828  0.82326  0.00494  1.0000
  C   C480      1.0  0.33286  0.72642  0.03929  1.0000
  H   H479      1.0  0.37656  0.76389  0.04366  1.0000
  H   H480      1.0  0.28949  0.98719  0.19471  1.0000
  C   C481      1.0  0.04061  0.68716  0.22758  1.0000
  H   H481      1.0  0.44828  0.93045  0.13789  1.0000
  S   S166      1.0  0.31304  0.73248  0.99506  1.0000
  H   H482      1.0  0.45965  0.93559  0.15764  1.0000
  N   N39       1.0  0.48374  0.97504  0.14080  1.0000
  H   H483      1.0  0.17947  0.86064  0.99163  1.0000
  C   C482      1.0  0.00405  0.70899  0.23500  1.0000
  Fe  Fe85      1.0  0.38780  0.68216  0.99150  1.0000
  S   S167      1.0  0.41878  0.99868  0.16790  1.0000
  Fe  Fe86      1.0  0.39707  0.99949  0.14546  1.0000
  H   H484      1.0  0.45758  0.00039  0.13398  1.0000
  C   C483      1.0  0.48078  0.00060  0.13435  1.0000
  C   C484      1.0  0.39218  0.99591  0.08327  1.0000
  H   H485      1.0  0.23413  0.78899  0.99497  1.0000
  H   H486      1.0  0.05117  0.67779  0.21895  1.0000
  Fe  Fe87      1.0  0.27041  0.96312  0.30905  1.0000
  S   S168      1.0  0.32165  0.97081  0.30526  1.0000
  S   S169      1.0  0.23431  0.91259  0.30770  1.0000
  Fe  Fe88      1.0  0.05194  0.78277  0.31156  1.0000
  S   S170      1.0  0.06940  0.74558  0.31136  1.0000
  S   S171      1.0  0.08329  0.83491  0.31198  1.0000
  Fe  Fe89      1.0  0.02959  0.71821  0.33035  1.0000
  Fe  Fe90      1.0  0.03406  0.72460  0.29403  1.0000
  C   C485      1.0  0.25195  0.98293  0.48923  1.0000
  S   S172      1.0  0.01421  0.75690  0.33169  1.0000
  S   S173      1.0  0.01838  0.76344  0.29313  1.0000
  H   H487      1.0  0.35888  0.94925  0.37569  1.0000
  C   C486      1.0  0.01368  0.71153  0.25022  1.0000
  Fe  Fe91      1.0  0.32972  0.69035  0.46002  1.0000
  C   C487      1.0  0.44448  0.80752  0.47961  1.0000
  S   S174      1.0  0.35398  0.74220  0.46617  1.0000
  S   S175      1.0  0.34874  0.97947  0.34798  1.0000
  S   S176      1.0  0.35292  0.68743  0.40663  1.0000
  C   C488      1.0  0.43422  0.70020  0.38004  1.0000
  Fe  Fe92      1.0  0.46508  0.83400  0.36112  1.0000
  S   S177      1.0  0.46937  0.86655  0.37949  1.0000
  S   S178      1.0  0.41492  0.80336  0.35316  1.0000
  H   H488      1.0  0.47069  0.85587  0.47120  1.0000
  C   C489      1.0  0.13756  0.72978  0.32412  1.0000
  C   C490      1.0  0.05013  0.68954  0.24285  1.0000
  C   C491      1.0  0.24875  0.75506  0.43866  1.0000
  C   C492      1.0  0.40188  0.68636  0.37824  1.0000
  S   S179      1.0  0.04944  0.70393  0.27344  1.0000
  H   H489      1.0  0.47637  0.95094  0.37642  1.0000
  Fe  Fe93      1.0  0.48261  0.93842  0.43183  1.0000
  S   S180      1.0  0.44562  0.88854  0.44314  1.0000
  C   C493      1.0  0.44136  0.74047  0.35966  1.0000
  H   H490      1.0  0.11792  0.69020  0.35956  1.0000
  H   H491      1.0  0.40572  0.95867  0.39015  1.0000
  S   S181      1.0  0.14180  0.70316  0.42380  1.0000
  H   H492      1.0  0.00320  0.72105  0.25882  1.0000
  S   S182      1.0  0.26478  0.71419  0.37504  1.0000
  C   C494      1.0  0.38365  0.98722  0.35764  1.0000
  C   C495      1.0  0.37268  0.78091  0.35954  1.0000
  C   C496      1.0  0.35744  0.78332  0.37378  1.0000
  C   C497      1.0  0.32448  0.76410  0.37823  1.0000
  C   C498      1.0  0.30595  0.74144  0.36880  1.0000
  C   C499      1.0  0.32108  0.73990  0.35439  1.0000
  C   C500      1.0  0.35360  0.75955  0.34977  1.0000
  H   H493      1.0  0.37110  0.79985  0.38145  1.0000
  H   H494      1.0  0.31335  0.76684  0.38905  1.0000
  H   H495      1.0  0.30758  0.72324  0.34672  1.0000
  H   H496      1.0  0.36417  0.75773  0.33851  1.0000
  C   C501      1.0  0.38825  0.72103  0.40821  1.0000
  C   C502      1.0  0.39590  0.74819  0.39826  1.0000
  C   C503      1.0  0.42293  0.77556  0.39984  1.0000
  C   C504      1.0  0.44296  0.77582  0.41125  1.0000
  C   C505      1.0  0.43615  0.74823  0.42069  1.0000
  C   C506      1.0  0.40918  0.72093  0.41904  1.0000
  H   H497      1.0  0.38056  0.74819  0.38948  1.0000
  H   H498      1.0  0.42794  0.79656  0.39235  1.0000
  H   H499      1.0  0.45197  0.74774  0.42914  1.0000
  H   H500      1.0  0.40527  0.69964  0.42585  1.0000
  C   C507      1.0  0.37858  0.78247  0.45830  1.0000
  C   C508      1.0  0.38026  0.80629  0.46761  1.0000
  C   C509      1.0  0.39999  0.83808  0.46269  1.0000
  C   C510      1.0  0.41889  0.84748  0.44821  1.0000
  C   C511      1.0  0.41649  0.82384  0.43853  1.0000
  C   C512      1.0  0.39668  0.79172  0.44353  1.0000
  H   H501      1.0  0.43032  0.83024  0.42722  1.0000
  H   H502      1.0  0.39604  0.77415  0.43605  1.0000
  C   C513      1.0  0.15581  0.75374  0.46892  1.0000
  C   C514      1.0  0.13926  0.75976  0.45719  1.0000
  C   C515      1.0  0.13585  0.74451  0.44340  1.0000
  C   C516      1.0  0.14903  0.72316  0.44102  1.0000
  C   C517      1.0  0.16568  0.71719  0.45271  1.0000
  C   C518      1.0  0.16899  0.73234  0.46653  1.0000
  H   H503      1.0  0.12901  0.77611  0.45876  1.0000
  H   H504      1.0  0.12278  0.74929  0.43452  1.0000
  C   C519      1.0  0.45403  0.72752  0.37071  1.0000
  H   H505      1.0  0.18172  0.72732  0.47552  1.0000
  C   C520      1.0  0.43240  0.91060  0.38280  1.0000
  H   H506      1.0  0.41964  0.91857  0.33927  1.0000
  S   S183      1.0  0.16784  0.68926  0.38341  1.0000
  H   H507      1.0  0.48799  0.95560  0.33913  1.0000
  C   C521      1.0  0.27705  0.76768  0.44547  1.0000
  C   C522      1.0  0.03674  0.70170  0.25429  1.0000
  H   H508      1.0  0.20122  0.92826  0.33831  1.0000
  H   H509      1.0  0.06793  0.68180  0.24584  1.0000
  H   H510      1.0  0.46078  0.97398  0.33849  1.0000
  C   C523      1.0  0.19224  0.89179  0.30853  1.0000
  C   C524      1.0  0.17897  0.85922  0.30833  1.0000
  C   C525      1.0  0.14583  0.84146  0.30937  1.0000
  C   C526      1.0  0.12538  0.85607  0.31062  1.0000
  C   C527      1.0  0.13867  0.88864  0.31089  1.0000
  C   C528      1.0  0.17182  0.90641  0.30982  1.0000
  H   H511      1.0  0.19447  0.84762  0.30727  1.0000
  H   H512      1.0  0.13608  0.81651  0.30911  1.0000
  H   H513      1.0  0.12315  0.90024  0.31182  1.0000
  H   H514      1.0  0.18152  0.93140  0.30992  1.0000
  H   H515      1.0  0.22790  0.75700  0.44384  1.0000
  C   C529      1.0  0.08780  0.89780  0.47675  1.0000
  N   N40       1.0  0.38951  0.69978  0.36770  1.0000
  H   H516      1.0  0.41842  0.75762  0.48380  1.0000
  H   H517      1.0  0.38054  0.87392  0.35710  1.0000
  H   H518      1.0  0.03861  0.88497  0.47403  1.0000
  Fe  Fe94      1.0  0.21135  0.67927  0.38368  1.0000
  C   C530      1.0  0.40807  0.97341  0.37959  1.0000
  C   C531      1.0  0.40548  0.88863  0.37733  1.0000
  C   C532      1.0  0.45209  0.77147  0.46323  1.0000
  N   N41       1.0  0.48130  0.82659  0.45633  1.0000
  C   C533      1.0  0.12469  0.71266  0.35228  1.0000
  C   C534      1.0  0.38146  0.96812  0.37133  1.0000
  H   H519      1.0  0.24135  0.99190  0.48059  1.0000
  N   N42       1.0  0.22574  0.90791  0.35123  1.0000
  C   C535      1.0  0.24496  0.92831  0.36059  1.0000
  C   C536      1.0  0.23526  0.88797  0.34403  1.0000
  C   C537      1.0  0.27458  0.92911  0.36291  1.0000
  C   C538      1.0  0.26487  0.88839  0.34595  1.0000
  C   C539      1.0  0.28465  0.90918  0.35543  1.0000
  C   C540      1.0  0.19608  0.90939  0.34787  1.0000
  H   H520      1.0  0.23799  0.94492  0.36585  1.0000
  H   H521      1.0  0.22047  0.87246  0.33622  1.0000
  H   H522      1.0  0.29034  0.94612  0.36984  1.0000
  H   H523      1.0  0.27280  0.87342  0.33970  1.0000
  H   H524      1.0  0.30819  0.91067  0.35658  1.0000
  H   H525      1.0  0.18425  0.91407  0.35838  1.0000
  C   C541      1.0  0.33591  0.99893  0.24761  1.0000
  H   H526      1.0  0.17912  0.88720  0.34397  1.0000
  H   H527      1.0  0.08738  0.68335  0.45587  1.0000
  S   S184      1.0  0.29635  0.68371  0.44168  1.0000
  H   H528      1.0  0.09004  0.88191  0.46877  1.0000
  H   H529      1.0  0.44360  0.69030  0.38894  1.0000
  C   C542      1.0  0.47282  0.96384  0.34624  1.0000
  C   C543      1.0  0.43690  0.77697  0.47642  1.0000
  S   S185      1.0  0.04069  0.69632  0.35230  1.0000
  H   H530      1.0  0.34433  0.74385  0.42685  1.0000
  H   H531      1.0  0.15004  0.72724  0.35340  1.0000
  C   C544      1.0  0.24740  0.73995  0.42519  1.0000
  H   H532      1.0  0.04628  0.68586  0.44009  1.0000
  H   H533      1.0  0.38852  0.86920  0.38524  1.0000
  C   C545      1.0  0.33138  0.75010  0.41790  1.0000
  C   C546      1.0  0.40887  0.72634  0.35840  1.0000
  H   H534      1.0  0.34731  0.77320  0.41170  1.0000
  S   S186      1.0  0.27744  0.98652  0.33123  1.0000
  H   H535      1.0  0.32597  0.73234  0.40941  1.0000
  H   H536      1.0  0.11000  0.72403  0.35709  1.0000
  H   H537      1.0  0.15670  0.75104  0.32674  1.0000
  H   H538      1.0  0.44573  0.74784  0.46040  1.0000
  C   C547      1.0  0.05889  0.89950  0.47973  1.0000
  N   N43       1.0  0.44957  0.93796  0.35700  1.0000
  S   S187      1.0  0.47658  0.81018  0.41377  1.0000
  H   H539      1.0  0.14572  0.74370  0.29919  1.0000
  H   H540      1.0  0.10032  0.69612  0.29313  1.0000
  C   C548      1.0  0.42331  0.91645  0.35151  1.0000
  N   N44       1.0  0.30248  0.75086  0.42522  1.0000
  C   C549      1.0  0.27465  0.73797  0.41859  1.0000
  C   C550      1.0  0.10609  0.69900  0.30511  1.0000
  H   H541      1.0  0.40089  0.85555  0.47033  1.0000
  H   H542      1.0  0.22535  0.72982  0.41991  1.0000
  H   H543      1.0  0.43652  0.90843  0.39497  1.0000
  H   H544      1.0  0.47903  0.73897  0.37222  1.0000
  S   S188      1.0  0.47023  0.98011  0.43057  1.0000
  N   N45       1.0  0.11918  0.70749  0.33594  1.0000
  H   H545      1.0  0.36642  0.80009  0.47893  1.0000
  C   C551      1.0  0.13151  0.72575  0.30852  1.0000
  C   C552      1.0  0.30388  0.76549  0.43850  1.0000
  H   H546      1.0  0.32581  0.77539  0.44383  1.0000
  H   H547      1.0  0.27822  0.77907  0.45608  1.0000
  H   H548      1.0  0.48856  0.98291  0.35272  1.0000
  C   C553      1.0  0.45478  0.93471  0.37230  1.0000
  H   H549      1.0  0.27332  0.72594  0.40817  1.0000
  H   H550      1.0  0.45628  0.76193  0.35243  1.0000
  H   H551      1.0  0.39921  0.73720  0.35015  1.0000
  Fe  Fe95      1.0  0.32923  0.99619  0.32695  1.0000
  C   C554      1.0  0.40100  0.89132  0.36155  1.0000
  C   C555      1.0  0.35519  0.68714  0.36704  1.0000
  H   H552      1.0  0.17571  0.70063  0.45121  1.0000
  C   C556      1.0  0.43750  0.99789  0.37426  1.0000
  H   H553      1.0  0.34561  0.70163  0.37330  1.0000
  H   H554      1.0  0.48605  0.79219  0.44306  1.0000
  S   S189      1.0  0.13362  0.84403  0.48392  1.0000
  C   C557      1.0  0.47459  0.79669  0.45335  1.0000
  Fe  Fe96      1.0  0.49035  0.98818  0.40522  1.0000
  H   H555      1.0  0.13555  0.91365  0.48252  1.0000
  C   C558      1.0  0.46652  0.83221  0.46925  1.0000
  H   H556      1.0  0.31745  0.98540  0.25691  1.0000
  H   H557      1.0  0.35123  0.99432  0.46447  1.0000
  S   S190      1.0  0.16059  0.77188  0.48676  1.0000
  S   S191      1.0  0.99597  0.69428  0.31312  1.0000
  C   C559      1.0  0.09422  0.68130  0.33269  1.0000
  H   H558      1.0  0.34944  0.68713  0.35475  1.0000
  C   C560      1.0  0.08724  0.67664  0.31727  1.0000
  H   H559      1.0  0.06549  0.67266  0.37673  1.0000
  S   S192      1.0  0.49022  0.80886  0.37315  1.0000
  H   H560      1.0  0.48824  0.85762  0.43623  1.0000
  Fe  Fe97      1.0  0.15781  0.67230  0.40920  1.0000
  C   C561      1.0  0.11331  0.91552  0.48473  1.0000
  Fe  Fe98      1.0  0.13672  0.83140  0.52870  1.0000
  S   S193      1.0  0.12484  0.86898  0.51778  1.0000
  S   S194      1.0  0.14468  0.83497  0.55450  1.0000
  C   C562      1.0  0.32733  0.96505  0.68159  1.0000
  Fe  Fe99      1.0  0.16512  0.87783  0.49943  1.0000
  C   C563      1.0  0.00866  0.73521  0.69737  1.0000
  Fe  Fe100     1.0  0.09424  0.83249  0.50347  1.0000
  H   H561      1.0  0.03284  0.91889  0.49359  1.0000
  S   S195      1.0  0.17877  0.84243  0.51099  1.0000
  S   S196      1.0  0.10330  0.79382  0.51560  1.0000
  Fe  Fe101     1.0  0.09905  0.69846  0.66800  1.0000
  S   S197      1.0  0.06246  0.70533  0.65483  1.0000
  Fe  Fe102     1.0  0.14132  0.76779  0.66584  1.0000
  S   S198      1.0  0.10852  0.77992  0.65169  1.0000
  S   S199      1.0  0.18607  0.80707  0.67211  1.0000
  Fe  Fe103     1.0  0.07001  0.74494  0.66922  1.0000
  S   S200      1.0  0.03234  0.75786  0.68028  1.0000
  Fe  Fe104     1.0  0.10403  0.73930  0.63837  1.0000
  S   S201      1.0  0.10053  0.73083  0.61259  1.0000
  S   S202      1.0  0.10298  0.73521  0.68399  1.0000
  S   S203      1.0  0.14034  0.73008  0.65098  1.0000
  C   C564      1.0  0.02385  0.85760  0.51733  1.0000
  C   C565      1.0  0.27976  0.96013  0.51134  1.0000
  H   H562      1.0  0.15276  0.85208  0.70922  1.0000
  C   C566      1.0  0.19247  0.81282  0.69191  1.0000
  C   C567      1.0  0.17377  0.79036  0.70411  1.0000
  C   C568      1.0  0.17889  0.79585  0.71975  1.0000
  C   C569      1.0  0.20257  0.82392  0.72336  1.0000
  C   C570      1.0  0.22167  0.84625  0.71119  1.0000
  C   C571      1.0  0.21663  0.84067  0.69551  1.0000
  H   H563      1.0  0.15548  0.76864  0.70153  1.0000
  H   H564      1.0  0.29046  0.95111  0.51991  1.0000
  H   H565      1.0  0.23999  0.86797  0.71384  1.0000
  H   H566      1.0  0.23128  0.85811  0.68612  1.0000
  H   H567      1.0  0.12705  0.80665  0.68320  1.0000
  C   C572      1.0  0.08203  0.77793  0.72868  1.0000
  H   H568      1.0  0.23766  0.91673  0.51225  1.0000
  H   H569      1.0  0.07861  0.94969  0.50751  1.0000
  C   C573      1.0  0.36287  0.97669  0.71583  1.0000
  C   C574      1.0  0.00207  0.86931  0.52264  1.0000
  C   C575      1.0  0.38776  0.98569  0.70373  1.0000
  C   C576      1.0  0.31059  0.98180  0.68649  1.0000
  H   H570      1.0  0.12919  0.84488  0.68508  1.0000
  C   C577      1.0  0.12935  0.80566  0.57056  1.0000
  C   C578      1.0  0.13507  0.81439  0.58574  1.0000
  C   C579      1.0  0.12583  0.79182  0.59877  1.0000
  C   C580      1.0  0.11078  0.76020  0.59673  1.0000
  C   C581      1.0  0.10468  0.75146  0.58156  1.0000
  C   C582      1.0  0.11376  0.77407  0.56854  1.0000
  H   H571      1.0  0.14707  0.83879  0.58742  1.0000
  H   H572      1.0  0.13062  0.79888  0.61036  1.0000
  H   H573      1.0  0.09294  0.72707  0.57986  1.0000
  H   H574      1.0  0.10921  0.76706  0.55692  1.0000
  H   H575      1.0  0.39866  0.97014  0.70131  1.0000
  C   C583      1.0  0.01797  0.83950  0.50472  1.0000
  S   S204      1.0  0.31455  0.98434  0.73265  1.0000
  C   C584      1.0  0.34876  0.97630  0.66804  1.0000
  H   H576      1.0  0.19916  0.80697  0.58988  1.0000
  H   H577      1.0  0.06963  0.77008  0.70536  1.0000
  N   N46       1.0  0.21543  0.83442  0.55149  1.0000
  C   C585      1.0  0.20174  0.80693  0.54502  1.0000
  C   C586      1.0  0.21457  0.83461  0.56740  1.0000
  C   C587      1.0  0.18732  0.77863  0.55453  1.0000
  C   C588      1.0  0.20064  0.80671  0.57726  1.0000
  C   C589      1.0  0.18688  0.77859  0.57075  1.0000
  C   C590      1.0  0.22902  0.86402  0.54144  1.0000
  H   H578      1.0  0.20121  0.80675  0.53245  1.0000
  H   H579      1.0  0.22384  0.85645  0.57257  1.0000
  H   H580      1.0  0.17570  0.75702  0.54935  1.0000
  C   C591      1.0  0.05567  0.91850  0.49075  1.0000
  H   H581      1.0  0.17477  0.75695  0.57831  1.0000
  H   H582      1.0  0.21069  0.87301  0.54040  1.0000
  H   H583      1.0  0.24953  0.88169  0.54635  1.0000
  H   H584      1.0  0.23752  0.86118  0.52952  1.0000
  S   S205      1.0  0.04547  0.82591  0.49669  1.0000
  H   H585      1.0  0.04526  0.86276  0.52290  1.0000
  H   H586      1.0  0.36969  0.99592  0.63715  1.0000
  C   C592      1.0  0.23569  0.95184  0.49592  1.0000
  H   H587      1.0  0.32463  0.94415  0.68862  1.0000
  C   C593      1.0  0.11484  0.81968  0.68867  1.0000
  H   H588      1.0  0.35470  0.95435  0.72266  1.0000
  N   N47       1.0  0.11070  0.81254  0.70571  1.0000
  C   C594      1.0  0.29596  0.99125  0.50471  1.0000
  C   C595      1.0  0.24979  0.94055  0.50704  1.0000
  H   H589      1.0  0.31664  0.83002  0.72537  1.0000
  C   C596      1.0  0.34820  0.99633  0.71882  1.0000
  H   H590      1.0  0.36262  0.96382  0.66463  1.0000
  H   H591      1.0  0.25996  0.81851  0.73181  1.0000
  H   H592      1.0  0.43199  0.81203  0.48953  1.0000
  H   H593      1.0  0.09155  0.81293  0.68397  1.0000
  C   C597      1.0  0.08611  0.78574  0.71249  1.0000
  Fe  Fe105     1.0  0.14452  0.80751  0.49677  1.0000
  H   H594      1.0  0.29486  0.97393  0.69735  1.0000
  H   H595      1.0  0.16415  0.77835  0.72909  1.0000
  C   C598      1.0  0.13233  0.83165  0.71465  1.0000
  C   C599      1.0  0.00950  0.70725  0.70275  1.0000
  H   H596      1.0  0.00696  0.88342  0.53234  1.0000
  C   C600      1.0  0.12903  0.82457  0.73090  1.0000
  N   N48       1.0  0.11012  0.93445  0.49537  1.0000
  H   H597      1.0  0.02461  0.69891  0.69631  1.0000
  H   H598      1.0  0.13478  0.97237  0.50862  1.0000
  H   H599      1.0  0.06234  0.75664  0.73393  1.0000
  C   C601      1.0  0.13699  0.95210  0.50391  1.0000
  C   C602      1.0  0.30422  0.81766  0.73658  1.0000
  H   H600      1.0  0.15960  0.96127  0.49608  1.0000
  H   H601      1.0  0.13865  0.93675  0.51374  1.0000
  H   H602      1.0  0.14665  0.83943  0.73791  1.0000
  C   C603      1.0  0.10369  0.79754  0.73793  1.0000
  C   C604      1.0  0.08161  0.93569  0.49864  1.0000
  C   C605      1.0  0.28185  0.00257  0.49361  1.0000
  N   N49       1.0  0.35301  0.00324  0.65946  1.0000
  S   S206      1.0  0.19799  0.92813  0.48998  1.0000
  C   C606      1.0  0.30217  0.97533  0.85299  1.0000
  Fe  Fe106     1.0  0.17966  0.88074  0.91439  1.0000
  S   S207      1.0  0.22078  0.86773  0.91434  1.0000
  S   S208      1.0  0.13133  0.84019  0.91955  1.0000
  Fe  Fe107     1.0  0.24115  0.90656  0.92953  1.0000
  S   S209      1.0  0.26928  0.90695  0.95015  1.0000
  Fe  Fe108     1.0  0.24194  0.90387  0.89356  1.0000
  S   S210      1.0  0.27099  0.89916  0.87239  1.0000
  S   S211      1.0  0.19892  0.91756  0.93088  1.0000
  S   S212      1.0  0.19941  0.91420  0.89257  1.0000
  C   C607      1.0  0.31908  0.97334  0.83935  1.0000
  C   C608      1.0  0.23325  0.90487  0.85012  1.0000
  C   C609      1.0  0.22670  0.90822  0.83459  1.0000
  H   H603      1.0  0.21836  0.90721  0.85965  1.0000
  H   H604      1.0  0.20679  0.91325  0.83228  1.0000
  C   C610      1.0  0.25128  0.89440  0.96968  1.0000
  C   C611      1.0  0.21838  0.88105  0.97329  1.0000
  H   H605      1.0  0.20326  0.87824  0.96402  1.0000
  C   C612      1.0  0.04209  0.84005  0.90110  1.0000
  C   C613      1.0  0.04190  0.81279  0.90829  1.0000
  C   C614      1.0  0.06990  0.81280  0.91318  1.0000
  C   C615      1.0  0.09825  0.84004  0.91093  1.0000
  C   C616      1.0  0.09880  0.86699  0.90313  1.0000
  C   C617      1.0  0.07072  0.86696  0.89822  1.0000
  H   H606      1.0  0.02007  0.79194  0.91056  1.0000
  H   H607      1.0  0.06945  0.79186  0.91914  1.0000
  H   H608      1.0  0.12060  0.88806  0.90132  1.0000
  H   H609      1.0  0.07104  0.88812  0.89260  1.0000
  S   S213      1.0  0.26671  0.94164  0.90874  1.0000
  Fe  Fe109     1.0  0.38590  0.70839  0.95833  1.0000
  C   C618      1.0  0.01199  0.79112  0.86881  1.0000
  H   H610      1.0  0.32403  0.78826  0.96742  1.0000
  H   H611      1.0  0.99572  0.83351  0.93564  1.0000
  C   C619      1.0  0.37838  0.69628  0.90308  1.0000
  Fe  Fe110     1.0  0.41175  0.74621  0.84561  1.0000
  S   S214      1.0  0.41631  0.78334  0.82670  1.0000
  S   S215      1.0  0.43184  0.76375  0.86811  1.0000
  N   N50       1.0  0.42082  0.68626  0.77310  1.0000
  S   S216      1.0  0.37986  0.72647  0.80536  1.0000
  C   C620      1.0  0.25806  0.98231  0.86659  1.0000
  Fe  Fe111     1.0  0.42979  0.75499  0.81032  1.0000
  Fe  Fe112     1.0  0.36630  0.75179  0.82340  1.0000
  S   S217      1.0  0.32813  0.76863  0.82148  1.0000
  S   S218      1.0  0.42951  0.72035  0.82935  1.0000
  S   S219      1.0  0.36049  0.71667  0.84352  1.0000
  Fe  Fe113     1.0  0.26351  0.90704  0.78051  1.0000
  S   S220      1.0  0.31474  0.93420  0.77121  1.0000
  S   S221      1.0  0.23947  0.91482  0.80269  1.0000
  Fe  Fe114     1.0  0.24776  0.87051  0.75162  1.0000
  Fe  Fe115     1.0  0.31153  0.88827  0.76429  1.0000
  S   S222      1.0  0.35116  0.87353  0.76688  1.0000
  H   H612      1.0  0.26094  0.96833  0.87668  1.0000
  S   S223      1.0  0.26153  0.86073  0.77521  1.0000
  S   S224      1.0  0.24580  0.91486  0.75770  1.0000
  C   C621      1.0  0.33628  0.79951  0.80698  1.0000
  C   C622      1.0  0.36290  0.80978  0.79593  1.0000
  C   C623      1.0  0.36800  0.83349  0.78401  1.0000
  C   C624      1.0  0.34654  0.84698  0.78309  1.0000
  C   C625      1.0  0.32055  0.83740  0.79446  1.0000
  C   C626      1.0  0.31538  0.81364  0.80634  1.0000
  H   H613      1.0  0.37924  0.79909  0.79641  1.0000
  H   H614      1.0  0.38821  0.84092  0.77526  1.0000
  H   H615      1.0  0.30430  0.84813  0.79405  1.0000
  H   H616      1.0  0.29498  0.80606  0.81499  1.0000
  C   C627      1.0  0.27602  0.98975  0.94264  1.0000
  H   H617      1.0  0.10351  0.85724  0.94964  1.0000
  H   H618      1.0  0.31672  0.78743  0.77078  1.0000
  H   H619      1.0  0.99280  0.79784  0.87275  1.0000
  H   H620      1.0  0.24227  0.82628  0.98453  1.0000
  C   C628      1.0  0.38959  0.71021  0.91666  1.0000
  H   H621      1.0  0.23221  0.97287  0.86556  1.0000
  C   C629      1.0  0.39104  0.71241  0.88813  1.0000
  C   C630      1.0  0.41518  0.74261  0.88664  1.0000
  C   C631      1.0  0.42622  0.75667  0.90021  1.0000
  C   C632      1.0  0.41342  0.74060  0.91517  1.0000
  H   H622      1.0  0.36909  0.83236  0.97637  1.0000
  H   H623      1.0  0.38245  0.70128  0.87777  1.0000
  C   C633      1.0  0.42880  0.68525  0.78804  1.0000
  H   H624      1.0  0.42229  0.75153  0.92554  1.0000
  C   C634      1.0  0.25948  0.89932  0.85322  1.0000
  C   C635      1.0  0.24617  0.90593  0.82200  1.0000
  C   C636      1.0  0.27173  0.89918  0.82510  1.0000
  C   C637      1.0  0.27837  0.89597  0.84067  1.0000
  H   H625      1.0  0.28688  0.89734  0.81551  1.0000
  H   H626      1.0  0.29863  0.89154  0.84297  1.0000
  C   C638      1.0  0.27058  0.89775  0.98187  1.0000
  H   H627      1.0  0.29605  0.90816  0.97919  1.0000
  C   C639      1.0  0.33900  0.84910  0.98914  1.0000
  C   C640      1.0  0.30863  0.97661  0.82485  1.0000
  C   C641      1.0  0.31969  0.80446  0.97449  1.0000
  S   S225      1.0  0.22544  0.99855  0.90587  1.0000
  C   C642      1.0  0.05537  0.82231  0.95021  1.0000
  H   H628      1.0  0.33937  0.96803  0.84009  1.0000
  H   H629      1.0  0.43839  0.70633  0.79385  1.0000
  H   H630      1.0  0.31677  0.96670  0.93197  1.0000
  C   C643      1.0  0.99999  0.76790  0.82819  1.0000
  C   C644      1.0  0.42598  0.71630  0.76497  1.0000
  H   H631      1.0  0.10118  0.79158  0.75048  1.0000
  H   H632      1.0  0.27031  0.76431  0.78822  1.0000
  S   S226      1.0  0.47365  0.79169  0.98297  1.0000
  C   C645      1.0  0.25697  0.77467  0.78151  1.0000
  C   C646      1.0  0.20495  0.87107  0.98896  1.0000
  Fe  Fe116     1.0  0.29715  0.93827  0.74788  1.0000
  C   C647      1.0  0.01906  0.83876  0.93919  1.0000
  H   H633      1.0  0.35514  0.82588  0.83721  1.0000
  N   N51       1.0  0.28301  0.81927  0.98880  1.0000
  H   H634      1.0  0.27272  0.98346  0.81294  1.0000
  N   N52       1.0  0.27298  0.78818  0.76578  1.0000
  C   C648      1.0  0.25718  0.79672  0.75502  1.0000
  H   H635      1.0  0.02242  0.81087  0.83835  1.0000
  C   C649      1.0  0.34497  0.82917  0.97955  1.0000
  H   H636      1.0  0.01674  0.77846  0.87888  1.0000
  S   S227      1.0  0.46572  0.77360  0.78895  1.0000
  C   C650      1.0  0.32546  0.98364  0.94077  1.0000
  Fe  Fe117     1.0  0.42728  0.75044  0.98098  1.0000
  H   H637      1.0  0.26918  0.78042  0.97533  1.0000
  S   S228      1.0  0.34824  0.68028  0.97788  1.0000
  H   H638      1.0  0.06088  0.80409  0.95545  1.0000
  H   H639      1.0  0.03774  0.88691  0.92970  1.0000
  H   H640      1.0  0.23275  0.79280  0.75794  1.0000
  H   H641      1.0  0.23338  0.99705  0.94339  1.0000
  N   N53       1.0  0.36262  0.78697  0.86984  1.0000
  C   C651      1.0  0.34917  0.79371  0.85737  1.0000
  C   C652      1.0  0.39279  0.80647  0.87236  1.0000
  C   C653      1.0  0.36586  0.82080  0.84716  1.0000
  C   C654      1.0  0.41038  0.83343  0.86221  1.0000
  C   C655      1.0  0.39674  0.84062  0.84955  1.0000
  C   C656      1.0  0.34554  0.75764  0.87990  1.0000
  H   H642      1.0  0.32559  0.77787  0.85504  1.0000
  H   H643      1.0  0.40381  0.80072  0.88199  1.0000
  H   H644      1.0  0.43464  0.84816  0.86401  1.0000
  H   H645      1.0  0.31955  0.75039  0.88084  1.0000
  H   H646      1.0  0.35086  0.73913  0.87498  1.0000
  H   H647      1.0  0.35284  0.75975  0.89195  1.0000
  S   S229      1.0  0.42531  0.70687  0.97139  1.0000
  S   S230      1.0  0.00660  0.84171  0.89663  1.0000
  H   H648      1.0  0.25484  0.79313  0.78813  1.0000
  H   H649      1.0  0.44498  0.78000  0.89915  1.0000
  Fe  Fe118     1.0  0.22308  0.94998  0.90899  1.0000
  C   C657      1.0  0.32009  0.80865  0.74758  1.0000
  H   H650      1.0  0.34508  0.81437  0.74510  1.0000
  S   S231      1.0  0.39091  0.75435  0.96611  1.0000
  C   C658      1.0  0.04273  0.86913  0.93586  1.0000
  C   C659      1.0  0.00060  0.78392  0.94896  1.0000
  S   S232      1.0  0.20643  0.83043  0.74324  1.0000
  H   H651      1.0  0.23293  0.75607  0.78083  1.0000
  H   H652      1.0  0.24411  0.98771  0.83734  1.0000
  Fe  Fe119     1.0  0.35632  0.72597  0.98667  1.0000
  H   H653      1.0  0.26314  0.96460  0.94365  1.0000
  H   H654      1.0  0.45173  0.73203  0.76337  1.0000
  N   N54       1.0  0.02568  0.81572  0.94604  1.0000
  H   H655      1.0  0.41019  0.86121  0.84144  1.0000
  C   C660      1.0  0.26545  0.98415  0.83799  1.0000
  H   H656      1.0  0.32124  0.97026  0.95244  1.0000
  Fe  Fe120     1.0  0.37828  0.69365  0.82562  1.0000
  C   C661      1.0  0.07322  0.87591  0.93976  1.0000
  S   S233      1.0  0.37353  0.68859  0.93515  1.0000
  C   C662      1.0  0.07959  0.85245  0.94709  1.0000
  H   H657      1.0  0.32064  0.97375  0.81422  1.0000
  H   H658      1.0  0.03405  0.81271  0.86540  1.0000
  N   N55       1.0  0.27549  0.98029  0.85219  1.0000
  C   C663      1.0  0.28172  0.98216  0.82413  1.0000
  H   H659      1.0  0.00480  0.77896  0.81627  1.0000
  C   C664      1.0  0.30396  0.79367  0.76217  1.0000
  C   C665      1.0  0.00968  0.78579  0.84073  1.0000
  H   H660      1.0  0.09214  0.89903  0.93667  1.0000
  H   H661      1.0  0.30978  0.97159  0.86425  1.0000
  C   C666      1.0  0.28867  0.79995  0.97916  1.0000
  H   H662      1.0  0.41368  0.72752  0.77205  1.0000
  H   H663      1.0  0.41702  0.71391  0.75331  1.0000
  N   N56       1.0  0.00275  0.77191  0.85579  1.0000
  H   H664      1.0  0.01023  0.76646  0.95124  1.0000
  H   H665      1.0  0.35136  0.99731  0.93772  1.0000
  H   H666      1.0  0.35999  0.67275  0.90414  1.0000
  C   C667      1.0  0.27246  0.81136  0.74023  1.0000
  S   S234      1.0  0.29781  0.89426  0.74015  1.0000
  Fe  Fe121     1.0  0.82510  0.26252  0.04833  1.0000
  S   S235      1.0  0.82601  0.21602  0.04586  1.0000
  S   S236      1.0  0.78392  0.27236  0.04181  1.0000
  Fe  Fe122     1.0  0.88715  0.28865  0.06302  1.0000
  S   S237      1.0  0.89390  0.24502  0.06122  1.0000
  C   C668      1.0  0.59765  0.29787  0.02587  1.0000
  Fe  Fe123     1.0  0.87734  0.24469  0.03723  1.0000
  S   S238      1.0  0.90200  0.23244  0.01685  1.0000
  Fe  Fe124     1.0  0.84210  0.21981  0.06996  1.0000
  S   S239      1.0  0.83076  0.18130  0.08960  1.0000
  S   S240      1.0  0.87546  0.29093  0.03818  1.0000
  S   S241      1.0  0.83640  0.26365  0.07329  1.0000
  H   H667      1.0  0.96433  0.27635  0.99624  1.0000
  Fe  Fe125     1.0  0.68438  0.06148  0.14232  1.0000
  S   S242      1.0  0.64545  0.01524  0.13886  1.0000
  S   S243      1.0  0.69277  0.10096  0.12388  1.0000
  H   H668      1.0  0.68488  0.04575  0.08232  1.0000
  H   H669      1.0  0.69276  0.08539  0.19846  1.0000
  S   S244      1.0  0.66702  0.05994  0.16749  1.0000
  S   S245      1.0  0.71895  0.04206  0.14802  1.0000
  C   C669      1.0  0.52488  0.04986  0.16487  1.0000
  H   H670      1.0  0.70591  0.27743  0.99380  1.0000
  C   C670      1.0  0.67359  0.09082  0.20383  1.0000
  C   C671      1.0  0.74793  0.24053  0.00871  1.0000
  H   H671      1.0  0.74708  0.22473  0.01860  1.0000
  S   S246      1.0  0.52241  0.31930  0.02467  1.0000
  C   C672      1.0  0.85729  0.29421  0.11141  1.0000
  C   C673      1.0  0.55787  0.06298  0.16120  1.0000
  C   C674      1.0  0.57513  0.04564  0.16450  1.0000
  H   H672      1.0  0.57003  0.08644  0.15545  1.0000
  H   H673      1.0  0.60044  0.05573  0.16125  1.0000
  C   C675      1.0  0.56050  0.32049  0.02201  1.0000
  C   C676      1.0  0.77174  0.33345  0.01107  1.0000
  N   N57       1.0  0.87049  0.27395  0.11841  1.0000
  Fe  Fe126     1.0  0.69847  0.03642  0.17318  1.0000
  C   C677      1.0  0.72285  0.24877  0.00719  1.0000
  C   C678      1.0  0.56738  0.29705  0.02902  1.0000
  C   C679      1.0  0.60183  0.01604  0.21591  1.0000
  H   H674      1.0  0.55865  0.04933  0.12515  1.0000
  H   H675      1.0  0.54933  0.27819  0.03677  1.0000
  H   H676      1.0  0.91962  0.27288  0.14527  1.0000
  C   C680      1.0  0.95741  0.30677  0.10898  1.0000
  C   C681      1.0  0.94216  0.30623  0.09542  1.0000
  H   H677      1.0  0.89627  0.30639  0.13397  1.0000
  H   H678      1.0  0.74545  0.30198  0.03147  1.0000
  H   H679      1.0  0.87234  0.20449  0.11424  1.0000
  H   H680      1.0  0.96073  0.28651  0.11315  1.0000
  H   H681      1.0  0.93380  0.28569  0.08920  1.0000
  H   H682      1.0  0.91658  0.20738  0.98958  1.0000
  C   C682      1.0  0.79254  0.16123  0.09968  1.0000
  C   C683      1.0  0.76631  0.16432  0.09440  1.0000
  C   C684      1.0  0.73587  0.14625  0.10218  1.0000
  C   C685      1.0  0.73150  0.12500  0.11522  1.0000
  C   C686      1.0  0.75783  0.12243  0.12067  1.0000
  C   C687      1.0  0.78825  0.14057  0.11295  1.0000
  H   H683      1.0  0.76940  0.18025  0.08419  1.0000
  H   H684      1.0  0.71558  0.14846  0.09795  1.0000
  H   H685      1.0  0.75477  0.10632  0.13077  1.0000
  H   H686      1.0  0.80847  0.13816  0.11712  1.0000
  C   C688      1.0  0.79150  0.30238  0.02681  1.0000
  C   C689      1.0  0.55953  0.01525  0.17180  1.0000
  H   H687      1.0  0.80125  0.05710  0.10665  1.0000
  C   C690      1.0  0.69307  0.05931  0.09243  1.0000
  N   N58       1.0  0.64990  0.06318  0.21341  1.0000
  S   S247      1.0  0.65769  0.32089  0.01082  1.0000
  H   H688      1.0  0.50526  0.04843  0.12427  1.0000
  C   C691      1.0  0.72114  0.03919  0.21255  1.0000
  H   H689      1.0  0.60282  0.27954  0.03121  1.0000
  C   C692      1.0  0.90339  0.26470  0.13642  1.0000
  H   H690      1.0  0.84924  0.23854  0.10343  1.0000
  Fe  Fe127     1.0  0.63118  0.01191  0.16459  1.0000
  H   H691      1.0  0.85502  0.24951  0.00372  1.0000
  H   H692      1.0  0.66294  0.09880  0.19434  1.0000
  H   H693      1.0  0.76449  0.07414  0.21905  1.0000
  H   H694      1.0  0.85805  0.31245  0.11901  1.0000
  C   C693      1.0  0.87730  0.22657  0.11889  1.0000
  C   C694      1.0  0.65464  0.05693  0.22850  1.0000
  C   C695      1.0  0.55732  0.27864  0.99110  1.0000
  C   C696      1.0  0.93801  0.33239  0.08989  1.0000
  H   H695      1.0  0.58577  0.25502  0.99800  1.0000
  N   N59       1.0  0.72286  0.05892  0.09642  1.0000
  C   C697      1.0  0.75116  0.08190  0.08981  1.0000
  C   C698      1.0  0.72214  0.03477  0.10620  1.0000
  C   C699      1.0  0.77977  0.08161  0.09337  1.0000
  C   C700      1.0  0.75027  0.03368  0.11000  1.0000
  C   C701      1.0  0.77925  0.05740  0.10361  1.0000
  C   C702      1.0  0.89006  0.28360  0.12997  1.0000
  H   H696      1.0  0.75182  0.10115  0.08208  1.0000
  C   C703      1.0  0.88707  0.22875  0.99844  1.0000
  H   H697      1.0  0.79473  0.24829  0.99945  1.0000
  C   C704      1.0  0.63264  0.03043  0.23780  1.0000
  H   H698      1.0  0.80214  0.10052  0.08850  1.0000
  H   H699      1.0  0.74944  0.01465  0.11798  1.0000
  C   C705      1.0  0.50763  0.02763  0.12856  1.0000
  H   H700      1.0  0.90761  0.22140  0.13548  1.0000
  C   C706      1.0  0.77501  0.25421  0.99791  1.0000
  H   H701      1.0  0.83216  0.28045  0.10944  1.0000
  H   H702      1.0  0.68429  0.11049  0.21101  1.0000
  H   H703      1.0  0.70226  0.23920  0.01584  1.0000
  H   H704      1.0  0.62043  0.04743  0.19497  1.0000
  C   C707      1.0  0.53759  0.02813  0.12906  1.0000
  C   C708      1.0  0.86425  0.24597  0.11278  1.0000
  C   C709      1.0  0.60613  0.00983  0.23142  1.0000
  H   H705      1.0  0.67587  0.07212  0.23335  1.0000
  S   S248      1.0  0.73103  0.05304  0.19239  1.0000
  S   S249      1.0  0.98452  0.33178  0.13493  1.0000
  C   C710      1.0  0.50932  0.01957  0.17235  1.0000
  C   C711      1.0  0.89696  0.23602  0.13080  1.0000
  H   H706      1.0  0.69594  0.08355  0.08957  1.0000
  C   C712      1.0  0.74231  0.05455  0.22329  1.0000
  C   C713      1.0  0.62406  0.04298  0.20703  1.0000
  C   C714      1.0  0.72492  0.27024  0.99484  1.0000
  H   H707      1.0  0.87101  0.30586  0.09995  1.0000
  H   H708      1.0  0.67449  0.04927  0.10257  1.0000
  S   S250      1.0  0.91878  0.33278  0.07304  1.0000
  C   C715      1.0  0.76759  0.31193  0.02396  1.0000
  H   H709      1.0  0.50035  0.26605  0.11740  1.0000
  H   H710      1.0  0.83834  0.30776  0.01889  1.0000
  C   C716      1.0  0.62093  0.32187  0.01556  1.0000
  C   C717      1.0  0.96781  0.33308  0.11731  1.0000
  C   C718      1.0  0.81994  0.31519  0.01696  1.0000
  C   C719      1.0  0.69265  0.01377  0.21814  1.0000
  H   H711      1.0  0.69972  0.01632  0.11127  1.0000
  C   C720      1.0  0.86479  0.23995  0.99483  1.0000
  S   S251      1.0  0.50397  0.07160  0.15930  1.0000
  C   C721      1.0  0.68524  0.00425  0.23433  1.0000
  H   H712      1.0  0.53731  0.26400  0.99952  1.0000
  C   C722      1.0  0.58465  0.27339  0.99028  1.0000
  H   H713      1.0  0.53280  0.32960  0.98968  1.0000
  H   H714      1.0  0.50738  0.28903  0.98996  1.0000
  Fe  Fe128     1.0  0.97506  0.25779  0.31200  1.0000
  S   S252      1.0  0.95738  0.29498  0.31136  1.0000
  S   S253      1.0  0.94629  0.20493  0.31220  1.0000
  Fe  Fe129     1.0  0.77197  0.06368  0.30676  1.0000
  S   S254      1.0  0.71944  0.04876  0.30532  1.0000
  S   S255      1.0  0.79887  0.11538  0.31066  1.0000
  C   C723      1.0  0.87476  0.24215  0.28108  1.0000
  C   C724      1.0  0.56742  0.00768  0.37594  1.0000
  Fe  Fe130     1.0  0.72396  0.02110  0.28585  1.0000
  C   C725      1.0  0.86544  0.21044  0.27998  1.0000
  S   S256      1.0  0.76418  0.02343  0.32464  1.0000
  S   S257      1.0  0.77670  0.03885  0.28583  1.0000
  H   H715      1.0  0.73752  0.25640  0.41516  1.0000
  H   H716      1.0  0.93826  0.14234  0.45972  1.0000
  S   S258      1.0  0.53902  0.02104  0.41077  1.0000
  Fe  Fe131     1.0  0.64121  0.25449  0.45040  1.0000
  S   S259      1.0  0.61605  0.19990  0.45670  1.0000
  S   S260      1.0  0.61581  0.28064  0.43896  1.0000
  S   S261      1.0  0.68904  0.28711  0.43715  1.0000
  Fe  Fe132     1.0  0.64176  0.14516  0.37885  1.0000
  S   S262      1.0  0.63003  0.13568  0.40488  1.0000
  S   S263      1.0  0.62088  0.10334  0.36340  1.0000
  Fe  Fe133     1.0  0.68165  0.21911  0.38137  1.0000
  S   S264      1.0  0.66985  0.21129  0.40753  1.0000
  S   S265      1.0  0.71364  0.27058  0.36983  1.0000
  Fe  Fe134     1.0  0.68078  0.16943  0.40679  1.0000
  S   S266      1.0  0.71973  0.16261  0.41932  1.0000
  Fe  Fe135     1.0  0.61996  0.17847  0.40338  1.0000
  S   S267      1.0  0.57730  0.18725  0.41295  1.0000
  S   S268      1.0  0.69352  0.17735  0.38055  1.0000
  S   S269      1.0  0.63099  0.18776  0.37713  1.0000
  C   C726      1.0  0.71294  0.10978  0.37074  1.0000
  S   S270      1.0  0.53717  0.05101  0.45244  1.0000
  C   C727      1.0  0.70999  0.24058  0.47004  1.0000
  C   C728      1.0  0.59613  0.06167  0.36337  1.0000
  C   C729      1.0  0.58638  0.04969  0.34913  1.0000
  H   H717      1.0  0.59335  0.06548  0.33852  1.0000
  C   C730      1.0  0.59853  0.15797  0.45538  1.0000
  C   C731      1.0  0.60074  0.14451  0.44153  1.0000
  C   C732      1.0  0.58365  0.11177  0.44059  1.0000
  C   C733      1.0  0.56313  0.09195  0.45335  1.0000
  C   C734      1.0  0.56264  0.10520  0.46747  1.0000
  C   C735      1.0  0.58045  0.13745  0.46853  1.0000
  H   H718      1.0  0.61457  0.15976  0.43134  1.0000
  H   H719      1.0  0.58451  0.10209  0.42969  1.0000
  H   H720      1.0  0.54772  0.09053  0.47765  1.0000
  C   C736      1.0  0.61601  0.30346  0.37739  1.0000
  C   C737      1.0  0.50233  0.16074  0.44700  1.0000
  C   C738      1.0  0.53487  0.17436  0.47980  1.0000
  C   C739      1.0  0.73817  0.31267  0.36625  1.0000
  H   H721      1.0  0.61170  0.31879  0.36898  1.0000
  H   H722      1.0  0.58282  0.24457  0.47710  1.0000
  C   C740      1.0  0.59091  0.28284  0.38811  1.0000
  H   H723      1.0  0.69380  0.01894  0.36746  1.0000
  H   H724      1.0  0.74371  0.31134  0.34135  1.0000
  C   C741      1.0  0.75020  0.14896  0.46832  1.0000
  C   C742      1.0  0.77088  0.15510  0.45469  1.0000
  C   C743      1.0  0.76126  0.15971  0.43990  1.0000
  C   C744      1.0  0.73102  0.15867  0.43847  1.0000
  C   C745      1.0  0.71047  0.15307  0.45213  1.0000
  C   C746      1.0  0.71996  0.14808  0.46690  1.0000
  H   H725      1.0  0.79413  0.15577  0.45551  1.0000
  H   H726      1.0  0.77739  0.16390  0.42947  1.0000
  H   H727      1.0  0.68696  0.15170  0.45129  1.0000
  H   H728      1.0  0.70369  0.14329  0.47734  1.0000
  H   H729      1.0  0.56555  0.22413  0.46090  1.0000
  C   C747      1.0  0.55541  0.33545  0.46809  1.0000
  C   C748      1.0  0.72132  0.09566  0.34051  1.0000
  Fe  Fe136     1.0  0.62561  0.30986  0.45907  1.0000
  C   C749      1.0  0.53317  0.13208  0.42934  1.0000
  C   C750      1.0  0.54465  0.16438  0.42718  1.0000
  C   C751      1.0  0.52853  0.17859  0.43580  1.0000
  N   N60       1.0  0.64569  0.30457  0.37766  1.0000
  H   H730      1.0  0.73761  0.32389  0.39017  1.0000
  H   H731      1.0  0.54436  0.12073  0.42233  1.0000
  H   H732      1.0  0.53658  0.20355  0.43396  1.0000
  H   H733      1.0  0.77645  0.27487  0.42137  1.0000
  H   H734      1.0  0.57920  0.14671  0.47957  1.0000
  C   C752      1.0  0.56004  0.23088  0.47249  1.0000
  N   N61       1.0  0.51916  0.09858  0.39004  1.0000
  H   H735      1.0  0.55569  0.17469  0.37612  1.0000
  H   H736      1.0  0.52468  0.06156  0.37941  1.0000
  H   H737      1.0  0.67490  0.28720  0.38901  1.0000
  H   H738      1.0  0.75811  0.23332  0.42103  1.0000
  C   C753      1.0  0.90503  0.18030  0.31242  1.0000
  C   C754      1.0  0.89569  0.14918  0.30923  1.0000
  C   C755      1.0  0.86346  0.12895  0.30874  1.0000
  C   C756      1.0  0.83995  0.13948  0.31158  1.0000
  C   C757      1.0  0.84925  0.17051  0.31496  1.0000
  C   C758      1.0  0.88152  0.19082  0.31534  1.0000
  H   H739      1.0  0.91356  0.14062  0.30707  1.0000
  H   H740      1.0  0.85684  0.10519  0.30618  1.0000
  H   H741      1.0  0.83137  0.17900  0.31723  1.0000
  H   H742      1.0  0.88819  0.21459  0.31789  1.0000
  C   C759      1.0  0.74289  0.12413  0.36228  1.0000
  C   C760      1.0  0.56802  0.01738  0.34828  1.0000
  C   C761      1.0  0.68767  0.08827  0.36385  1.0000
  C   C762      1.0  0.55897  0.13715  0.36445  1.0000
  N   N62       1.0  0.69209  0.08146  0.34892  1.0000
  H   H743      1.0  0.63114  0.09814  0.46227  1.0000
  C   C763      1.0  0.62667  0.26458  0.39927  1.0000
  C   C764      1.0  0.50751  0.11436  0.44064  1.0000
  H   H744      1.0  0.70923  0.11565  0.38245  1.0000
  H   H745      1.0  0.54431  0.17106  0.46854  1.0000
  C   C765      1.0  0.66489  0.06064  0.34151  1.0000
  H   H746      1.0  0.66437  0.07731  0.37040  1.0000
  H   H747      1.0  0.76266  0.14100  0.36743  1.0000
  Fe  Fe137     1.0  0.52039  0.01071  0.43603  1.0000
  Fe  Fe138     1.0  0.69754  0.31776  0.45679  1.0000
  H   H748      1.0  0.66176  0.06513  0.40227  1.0000
  H   H749      1.0  0.65409  0.07436  0.33535  1.0000
  H   H750      1.0  0.67195  0.04741  0.33306  1.0000
  H   H751      1.0  0.64647  0.04307  0.35031  1.0000
  H   H752      1.0  0.54751  0.24598  0.47062  1.0000
  C   C766      1.0  0.65117  0.28542  0.38839  1.0000
  H   H753      1.0  0.49990  0.08951  0.44250  1.0000
  S   S271      1.0  0.69364  0.00947  0.26541  1.0000
  C   C767      1.0  0.70598  0.02021  0.24510  1.0000
  H   H754      1.0  0.68097  0.31322  0.35882  1.0000
  C   C768      1.0  0.92930  0.25064  0.27598  1.0000
  Fe  Fe139     1.0  0.71216  0.00772  0.32219  1.0000
  H   H755      1.0  0.72485  0.09084  0.32858  1.0000
  H   H756      1.0  0.91543  0.16321  0.46594  1.0000
  H   H757      1.0  0.61759  0.05709  0.46814  1.0000
  S   S272      1.0  0.58542  0.32121  0.47054  1.0000
  H   H758      1.0  0.77035  0.12794  0.34033  1.0000
  Fe  Fe140     1.0  0.66428  0.31564  0.42840  1.0000
  H   H759      1.0  0.60666  0.04767  0.41415  1.0000
  H   H760      1.0  0.51963  0.14005  0.39844  1.0000
  C   C769      1.0  0.74592  0.33322  0.37809  1.0000
  C   C770      1.0  0.54811  0.14974  0.37647  1.0000
  H   H761      1.0  0.55840  0.09512  0.35622  1.0000
  H   H762      1.0  0.89796  0.12154  0.46863  1.0000
  C   C771      1.0  0.74720  0.11694  0.34709  1.0000
  N   N63       1.0  0.54079  0.20362  0.48359  1.0000
  H   H763      1.0  0.96618  0.22180  0.27727  1.0000
  H   H764      1.0  0.74804  0.28469  0.47305  1.0000
  H   H765      1.0  0.67508  0.19783  0.46330  1.0000
  H   H766      1.0  0.59379  0.04838  0.38784  1.0000
  H   H767      1.0  0.95421  0.26664  0.27430  1.0000
  H   H768      1.0  0.88112  0.17462  0.27665  1.0000
  S   S273      1.0  0.76012  0.14086  0.48728  1.0000
  H   H769      1.0  0.56747  0.28214  0.38800  1.0000
  C   C772      1.0  0.63770  0.07821  0.46211  1.0000
  H   H770      1.0  0.97614  0.27362  0.47085  1.0000
  C   C773      1.0  0.59638  0.26333  0.39912  1.0000
  H   H771      1.0  0.63121  0.24980  0.40794  1.0000
  C   C774      1.0  0.88854  0.19942  0.27705  1.0000
  H   H772      1.0  0.57731  0.24740  0.40763  1.0000
  C   C775      1.0  0.49836  0.07805  0.40354  1.0000
  H   H773      1.0  0.84056  0.19429  0.28183  1.0000
  S   S274      1.0  0.65099  0.28385  0.47092  1.0000
  N   N64       1.0  0.73885  0.24950  0.43963  1.0000
  C   C776      1.0  0.75185  0.27146  0.44973  1.0000
  C   C777      1.0  0.71158  0.22340  0.44438  1.0000
  C   C778      1.0  0.73775  0.26718  0.46511  1.0000
  C   C779      1.0  0.69679  0.21851  0.45964  1.0000
  C   C780      1.0  0.54982  0.10515  0.36540  1.0000
  H   H774      1.0  0.57498  0.15215  0.35458  1.0000
  H   H775      1.0  0.77297  0.29267  0.44595  1.0000
  H   H776      1.0  0.70107  0.20618  0.43635  1.0000
  H   H777      1.0  0.91455  0.28723  0.27969  1.0000
  C   C781      1.0  0.74916  0.32621  0.35074  1.0000
  C   C782      1.0  0.53042  0.08619  0.37851  1.0000
  N   N65       1.0  0.92002  0.21940  0.27540  1.0000
  H   H778      1.0  0.75100  0.05766  0.24763  1.0000
  C   C783      1.0  0.58635  0.04013  0.37679  1.0000
  N   N66       1.0  0.64461  0.07347  0.44586  1.0000
  C   C784      1.0  0.62018  0.06094  0.43691  1.0000
  C   C785      1.0  0.67523  0.08278  0.43950  1.0000
  C   C786      1.0  0.62610  0.05789  0.42114  1.0000
  C   C787      1.0  0.68200  0.08021  0.42371  1.0000
  C   C788      1.0  0.65717  0.06762  0.41450  1.0000
  H   H779      1.0  0.93576  0.18347  0.27821  1.0000
  H   H780      1.0  0.59591  0.05314  0.44195  1.0000
  H   H781      1.0  0.69470  0.09248  0.44657  1.0000
  C   C789      1.0  0.75354  0.25384  0.42352  1.0000
  H   H782      1.0  0.70637  0.08832  0.41867  1.0000
  C   C790      1.0  0.97881  0.27114  0.48317  1.0000
  C   C791      1.0  0.94389  0.20745  0.27233  1.0000
  C   C792      1.0  0.92045  0.14267  0.46886  1.0000
  H   H783      1.0  0.65841  0.08321  0.46886  1.0000
  C   C793      1.0  0.67196  0.32633  0.36647  1.0000
  C   C794      1.0  0.90688  0.26245  0.27895  1.0000
  H   H784      1.0  0.85717  0.25097  0.28364  1.0000
  C   C795      1.0  0.52790  0.12998  0.38919  1.0000
  C   C796      1.0  0.65349  0.00447  0.38518  1.0000
  S   S275      1.0  0.92158  0.21960  0.48500  1.0000
  C   C797      1.0  0.66871  0.00468  0.37031  1.0000
  H   H785      1.0  0.56162  0.00916  0.33705  1.0000
  H   H786      1.0  0.94899  0.20752  0.25955  1.0000
  H   H787      1.0  0.69856  0.23722  0.48186  1.0000
  H   H788      1.0  0.63680  0.02542  0.24971  1.0000
  H   H789      1.0  0.84496  0.04793  0.48849  1.0000
  H   H790      1.0  0.51211  0.06961  0.41104  1.0000
  H   H791      1.0  0.66714  0.01862  0.39369  1.0000
  S   S276      1.0  0.97992  0.33460  0.26948  1.0000
  S   S277      1.0  0.84731  0.13682  0.48758  1.0000
  H   H792      1.0  0.96562  0.19174  0.47886  1.0000
  N   N67       1.0  0.93243  0.14427  0.48420  1.0000
  H   H793      1.0  0.51141  0.12506  0.48706  1.0000
  C   C798      1.0  0.95622  0.17143  0.48744  1.0000
  H   H794      1.0  0.93189  0.29538  0.48924  1.0000
  C   C799      1.0  0.73481  0.04514  0.23949  1.0000
  C   C800      1.0  0.80176  0.12490  0.73632  1.0000
  S   S278      1.0  0.83611  0.18959  0.50722  1.0000
  C   C801      1.0  0.52945  0.20781  0.49792  1.0000
  Fe  Fe141     1.0  0.84400  0.11098  0.51116  1.0000
  S   S279      1.0  0.80037  0.11583  0.52080  1.0000
  H   H795      1.0  0.85189  0.12335  0.58725  1.0000
  Fe  Fe142     1.0  0.83389  0.16015  0.52924  1.0000
  S   S280      1.0  0.83533  0.17683  0.55351  1.0000
  S   S281      1.0  0.87732  0.15415  0.52089  1.0000
  C   C802      1.0  0.51140  0.18221  0.50885  1.0000
  Fe  Fe143     1.0  0.76265  0.14220  0.66592  1.0000
  S   S282      1.0  0.72859  0.10359  0.68337  1.0000
  S   S283      1.0  0.80159  0.18562  0.67320  1.0000
  Fe  Fe144     1.0  0.73829  0.10659  0.63763  1.0000
  S   S284      1.0  0.70274  0.06497  0.65322  1.0000
  S   S285      1.0  0.73505  0.09916  0.61177  1.0000
  Fe  Fe145     1.0  0.69287  0.09962  0.66642  1.0000
  S   S286      1.0  0.64213  0.08761  0.67562  1.0000
  Fe  Fe146     1.0  0.74114  0.07237  0.66873  1.0000
  C   C803      1.0  0.61617  0.04336  0.64322  1.0000
  S   S287      1.0  0.72583  0.14100  0.64996  1.0000
  S   S288      1.0  0.77781  0.11111  0.65214  1.0000
  S   S289      1.0  0.55680  0.13051  0.63520  1.0000
  C   C804      1.0  0.54033  0.17370  0.69740  1.0000
  N   N68       1.0  0.79988  0.10923  0.71028  1.0000
  H   H796      1.0  0.88125  0.26317  0.50570  1.0000
  C   C805      1.0  0.80831  0.08763  0.61045  1.0000
  C   C806      1.0  0.80875  0.07461  0.56207  1.0000
  H   H797      1.0  0.65107  0.08422  0.60856  1.0000
  C   C807      1.0  0.80379  0.19223  0.69317  1.0000
  C   C808      1.0  0.77876  0.17462  0.70464  1.0000
  C   C809      1.0  0.78159  0.17989  0.72048  1.0000
  C   C810      1.0  0.80951  0.20265  0.72500  1.0000
  C   C811      1.0  0.83441  0.22056  0.71353  1.0000
  C   C812      1.0  0.83150  0.21537  0.69768  1.0000
  H   H798      1.0  0.75710  0.15711  0.70133  1.0000
  H   H799      1.0  0.56482  0.22441  0.65251  1.0000
  H   H800      1.0  0.85605  0.23814  0.71688  1.0000
  H   H801      1.0  0.85092  0.22918  0.68887  1.0000
  H   H802      1.0  0.53439  0.23107  0.50096  1.0000
  H   H803      1.0  0.94348  0.28476  0.55110  1.0000
  C   C813      1.0  0.93208  0.12010  0.50964  1.0000
  C   C814      1.0  0.61910  0.10122  0.66479  1.0000
  C   C815      1.0  0.58667  0.09044  0.66967  1.0000
  C   C816      1.0  0.56726  0.09935  0.66073  1.0000
  C   C817      1.0  0.58031  0.11919  0.64688  1.0000
  C   C818      1.0  0.61287  0.13062  0.64224  1.0000
  C   C819      1.0  0.63224  0.12166  0.65117  1.0000
  H   H804      1.0  0.57643  0.07466  0.68024  1.0000
  H   H805      1.0  0.54219  0.09056  0.66444  1.0000
  H   H806      1.0  0.62314  0.14631  0.63164  1.0000
  H   H807      1.0  0.65729  0.13050  0.64749  1.0000
  C   C820      1.0  0.85281  0.03565  0.51178  1.0000
  C   C821      1.0  0.58638  0.02828  0.65184  1.0000
  C   C822      1.0  0.80634  0.15606  0.56946  1.0000
  C   C823      1.0  0.81160  0.16556  0.58454  1.0000
  C   C824      1.0  0.78969  0.14883  0.59761  1.0000
  C   C825      1.0  0.76227  0.12247  0.59567  1.0000
  C   C826      1.0  0.75678  0.11332  0.58055  1.0000
  C   C827      1.0  0.77873  0.12994  0.56751  1.0000
  H   H808      1.0  0.83281  0.18585  0.58615  1.0000
  H   H809      1.0  0.79407  0.15626  0.60917  1.0000
  H   H810      1.0  0.73556  0.09306  0.57891  1.0000
  H   H811      1.0  0.77430  0.12250  0.55596  1.0000
  C   C828      1.0  0.95588  0.14791  0.51316  1.0000
  C   C829      1.0  0.95940  0.24306  0.50889  1.0000
  H   H812      1.0  0.56377  0.14841  0.70841  1.0000
  N   N69       1.0  0.80797  0.08364  0.59370  1.0000
  H   H813      1.0  0.94172  0.22391  0.51663  1.0000
  H   H814      1.0  0.59433  0.14835  0.68352  1.0000
  S   S290      1.0  0.85203  0.06871  0.52013  1.0000
  N   N70       1.0  0.55242  0.18582  0.66951  1.0000
  C   C830      1.0  0.85794  0.01342  0.52135  1.0000
  Fe  Fe147     1.0  0.80558  0.14473  0.49780  1.0000
  H   H815      1.0  0.92213  0.09981  0.51824  1.0000
  C   C831      1.0  0.98631  0.26499  0.51482  1.0000
  C   C832      1.0  0.83279  0.10365  0.58330  1.0000
  H   H816      1.0  0.82180  0.07595  0.61595  1.0000
  H   H817      1.0  0.52082  0.19858  0.68317  1.0000
  C   C833      1.0  0.77418  0.08196  0.71541  1.0000
  C   C834      1.0  0.56090  0.15929  0.69752  1.0000
  C   C835      1.0  0.56072  0.03234  0.64654  1.0000
  C   C836      1.0  0.83347  0.09954  0.56734  1.0000
  C   C837      1.0  0.78360  0.05910  0.58864  1.0000
  C   C838      1.0  0.57365  0.17295  0.66962  1.0000
  S   S291      1.0  0.87308  0.29547  0.73910  1.0000
  C   C839      1.0  0.65204  0.07839  0.62116  1.0000
  S   S292      1.0  0.96616  0.31671  0.72768  1.0000
  C   C840      1.0  0.78358  0.05427  0.57276  1.0000
  S   S293      1.0  0.75405  0.03494  0.67915  1.0000
  C   C841      1.0  0.94223  0.29773  0.52673  1.0000
  H   H818      1.0  0.80762  0.09459  0.68803  1.0000
  H   H819      1.0  0.79870  0.12799  0.68754  1.0000
  H   H820      1.0  0.83723  0.13176  0.69172  1.0000
  N   N71       1.0  0.62028  0.06179  0.62962  1.0000
  H   H821      1.0  0.95116  0.29038  0.67476  1.0000
  H   H822      1.0  0.69717  0.03155  0.69681  1.0000
  C   C842      1.0  0.89490  0.26823  0.51568  1.0000
  C   C843      1.0  0.56517  0.05152  0.63277  1.0000
  H   H823      1.0  0.52321  0.19783  0.65499  1.0000
  H   H824      1.0  0.66544  0.10029  0.62637  1.0000
  H   H825      1.0  0.53770  0.02159  0.65338  1.0000
  H   H826      1.0  0.63615  0.04092  0.64774  1.0000
  H   H827      1.0  0.95008  0.31785  0.68802  1.0000
  Fe  Fe148     1.0  0.87745  0.18042  0.49842  1.0000
  C   C844      1.0  0.81150  0.11622  0.69359  1.0000
  H   H828      1.0  0.88858  0.24227  0.55402  1.0000
  C   C845      1.0  0.51658  0.14823  0.49034  1.0000
  H   H829      1.0  0.78388  0.07765  0.61659  1.0000
  C   C846      1.0  0.88134  0.25054  0.53008  1.0000
  H   H830      1.0  0.52724  0.17437  0.70819  1.0000
  H   H831      1.0  0.85738  0.23228  0.53136  1.0000
  C   C847      1.0  0.96580  0.31219  0.67974  1.0000
  C   C848      1.0  0.84910  0.03122  0.49601  1.0000
  H   H832      1.0  0.76295  0.06533  0.70727  1.0000
  H   H833      1.0  0.58715  0.17304  0.65884  1.0000
  H   H834      1.0  0.96625  0.31596  0.52550  1.0000
  C   C849      1.0  0.89887  0.25634  0.54288  1.0000
  H   H835      1.0  0.83310  0.15296  0.71631  1.0000
  H   H836      1.0  0.66560  0.06400  0.62174  1.0000
  H   H837      1.0  0.76376  0.04343  0.59686  1.0000
  H   H838      1.0  0.54570  0.05599  0.62892  1.0000
  C   C850      1.0  0.76188  0.07521  0.73117  1.0000
  C   C851      1.0  0.54774  0.19957  0.65472  1.0000
  C   C852      1.0  0.59534  0.06631  0.62446  1.0000
  C   C853      1.0  0.53659  0.18718  0.68320  1.0000
  H   H839      1.0  0.80902  0.07127  0.54970  1.0000
  H   H840      1.0  0.76214  0.16606  0.72927  1.0000
  H   H841      1.0  0.58360  0.01454  0.66287  1.0000
  N   N72       1.0  0.92504  0.29137  0.51413  1.0000
  H   H842      1.0  0.85269  0.11597  0.55904  1.0000
  H   H843      1.0  0.96458  0.32207  0.49807  1.0000
  C   C854      1.0  0.81352  0.13075  0.72047  1.0000
  H   H844      1.0  0.59880  0.08211  0.61411  1.0000
  C   C855      1.0  0.92954  0.28011  0.54124  1.0000
  H   H845      1.0  0.92899  0.32817  0.49761  1.0000
  C   C856      1.0  0.57798  0.15919  0.68358  1.0000
  H   H846      1.0  0.86093  0.01658  0.53355  1.0000
  H   H847      1.0  0.55096  0.18700  0.64476  1.0000
  H   H848      1.0  0.98302  0.30818  0.68680  1.0000
  H   H849      1.0  0.98914  0.26243  0.52712  1.0000
  Fe  Fe149     1.0  0.50496  0.11499  0.64338  1.0000
  H   H850      1.0  0.76405  0.03504  0.56874  1.0000
  C   C857      1.0  0.85056  0.00488  0.48995  1.0000
  H   H851      1.0  0.81911  0.11269  0.61234  1.0000
  C   C858      1.0  0.50490  0.15224  0.50499  1.0000
  C   C859      1.0  0.96811  0.17378  0.50199  1.0000
  C   C860      1.0  0.73017  0.01076  0.69585  1.0000
  H   H852      1.0  0.96469  0.14945  0.52454  1.0000
  C   C861      1.0  0.92057  0.11866  0.49501  1.0000
  H   H853      1.0  0.90180  0.09698  0.49250  1.0000
  C   C862      1.0  0.93827  0.31028  0.49905  1.0000
  C   C863      1.0  0.95540  0.24613  0.49303  1.0000
  C   C864      1.0  0.70387  0.01448  0.70236  1.0000
  H   H854      1.0  0.98642  0.19568  0.50460  1.0000
  H   H855      1.0  0.50224  0.18545  0.52021  1.0000
  H   H856      1.0  0.54309  0.33026  0.49298  1.0000
  H   H857      1.0  0.74152  0.05338  0.73511  1.0000
  Fe  Fe150     1.0  0.90810  0.18018  0.90994  1.0000
  S   S294      1.0  0.86418  0.18829  0.91048  1.0000
  S   S295      1.0  0.90740  0.13287  0.90766  1.0000
  S   S296      1.0  0.91062  0.26192  0.90908  1.0000
  Fe  Fe151     1.0  0.88681  0.22215  0.92789  1.0000
  S   S297      1.0  0.85913  0.23051  0.94848  1.0000
  Fe  Fe152     1.0  0.89202  0.22726  0.89163  1.0000
  S   S298      1.0  0.86598  0.23397  0.87137  1.0000
  S   S299      1.0  0.92894  0.21107  0.92888  1.0000
  S   S300      1.0  0.93478  0.21717  0.88997  1.0000
  C   C865      1.0  0.53991  0.30059  0.85091  1.0000
  H   H858      1.0  0.80460  0.27520  0.96547  1.0000
  H   H859      1.0  0.96721  0.28034  0.93863  1.0000
  Fe  Fe153     1.0  0.53003  0.28535  0.77059  1.0000
  N   N73       1.0  0.77354  0.28116  0.76475  1.0000
  Fe  Fe154     1.0  0.85431  0.24819  0.75246  1.0000
  C   C866      1.0  0.98597  0.26850  0.95878  1.0000
  Fe  Fe155     1.0  0.89776  0.27149  0.77851  1.0000
  H   H860      1.0  0.87629  0.15061  0.85849  1.0000
  S   S301      1.0  0.91998  0.25951  0.79918  1.0000
  Fe  Fe156     1.0  0.86964  0.31177  0.76286  1.0000
  H   H861      1.0  0.55083  0.31714  0.85921  1.0000
  C   C867      1.0  0.82359  0.32683  0.79533  1.0000
  S   S302      1.0  0.84761  0.26412  0.77602  1.0000
  S   S303      1.0  0.90253  0.25121  0.75607  1.0000
  C   C868      1.0  0.49603  0.23883  0.81747  1.0000
  Fe  Fe157     1.0  0.95149  0.24876  0.90894  1.0000
  C   C869      1.0  0.55701  0.30165  0.83675  1.0000
  H   H862      1.0  0.58134  0.31896  0.83400  1.0000
  H   H863      1.0  0.94077  0.32627  0.94782  1.0000
  H   H864      1.0  0.87892  0.17767  0.87255  1.0000
  H   H865      1.0  0.93106  0.29617  0.98236  1.0000
  H   H866      1.0  0.83269  0.30940  0.79475  1.0000
  H   H867      1.0  0.79948  0.30933  0.81861  1.0000
  H   H868      1.0  0.74660  0.33292  0.77673  1.0000
  H   H869      1.0  0.80983  0.29715  0.74572  1.0000
  C   C870      1.0  0.79947  0.08082  0.88487  1.0000
  H   H870      1.0  0.77443  0.32294  0.75368  1.0000
  C   C871      1.0  0.78833  0.12543  0.88784  1.0000
  N   N74       1.0  0.84032  0.13244  0.87761  1.0000
  H   H871      1.0  0.90533  0.29696  0.95910  1.0000
  H   H872      1.0  0.83842  0.02273  0.90508  1.0000
  S   S304      1.0  0.81306  0.20682  0.74511  1.0000
  C   C872      1.0  0.80593  0.29025  0.97499  1.0000
  C   C873      1.0  0.88163  0.24150  0.85138  1.0000
  C   C874      1.0  0.91084  0.24149  0.84658  1.0000
  C   C875      1.0  0.92218  0.24704  0.83056  1.0000
  C   C876      1.0  0.90456  0.25276  0.81918  1.0000
  C   C877      1.0  0.87542  0.25289  0.82399  1.0000
  C   C878      1.0  0.86400  0.24717  0.84001  1.0000
  H   H873      1.0  0.92465  0.23716  0.85519  1.0000
  H   H874      1.0  0.94472  0.24684  0.82695  1.0000
  H   H875      1.0  0.86165  0.25728  0.81537  1.0000
  H   H876      1.0  0.84139  0.24722  0.84361  1.0000
  C   C879      1.0  0.86911  0.22808  0.96778  1.0000
  C   C880      1.0  0.85574  0.23943  0.97956  1.0000
  C   C881      1.0  0.89082  0.21623  0.97150  1.0000
  H   H877      1.0  0.83872  0.24827  0.97676  1.0000
  H   H878      1.0  0.90098  0.20706  0.96260  1.0000
  C   C882      1.0  0.81291  0.04610  0.91606  1.0000
  C   C883      1.0  0.83991  0.04444  0.90897  1.0000
  C   C884      1.0  0.86893  0.07111  0.90672  1.0000
  C   C885      1.0  0.87102  0.09958  0.91140  1.0000
  C   C886      1.0  0.84405  0.10110  0.91864  1.0000
  C   C887      1.0  0.81513  0.07440  0.92102  1.0000
  H   H879      1.0  0.88976  0.06976  0.90119  1.0000
  H   H880      1.0  0.84551  0.12278  0.92250  1.0000
  H   H881      1.0  0.79431  0.07582  0.92652  1.0000
  H   H882      1.0  0.77062  0.24106  0.77866  1.0000
  C   C888      1.0  0.96665  0.27963  0.95126  1.0000
  C   C889      1.0  0.77834  0.09323  0.88946  1.0000
  H   H883      1.0  0.75439  0.07784  0.89441  1.0000
  C   C890      1.0  0.74224  0.29192  0.79077  1.0000
  C   C891      1.0  0.98529  0.26741  0.97505  1.0000
  H   H884      1.0  0.98608  0.29337  0.77827  1.0000
  H   H885      1.0  0.80934  0.31365  0.96984  1.0000
  H   H886      1.0  0.74346  0.25077  0.80208  1.0000
  H   H887      1.0  0.79863  0.25784  0.75359  1.0000
  H   H888      1.0  0.63735  0.31155  0.79027  1.0000
  C   C892      1.0  0.76671  0.30647  0.76411  1.0000
  C   C893      1.0  0.83066  0.10090  0.87908  1.0000
  C   C894      1.0  0.49492  0.25735  0.84336  1.0000
  S   S305      1.0  0.77564  0.01390  0.91800  1.0000
  C   C895      1.0  0.81950  0.14479  0.88170  1.0000
  C   C896      1.0  0.58209  0.32201  0.97181  1.0000
  S   S306      1.0  0.57723  0.29236  0.77857  1.0000
  S   S307      1.0  0.91942  0.32073  0.76701  1.0000
  C   C897      1.0  0.80482  0.32685  0.80884  1.0000
  H   H889      1.0  0.97371  0.31687  0.80120  1.0000
  H   H890      1.0  0.77217  0.13542  0.89137  1.0000
  C   C898      1.0  0.94677  0.28888  0.97561  1.0000
  H   H891      1.0  0.73117  0.29688  0.80111  1.0000
  Fe  Fe158     1.0  0.92106  0.30012  0.74441  1.0000
  C   C899      1.0  0.75089  0.31218  0.77707  1.0000
  C   C900      1.0  0.60985  0.31748  0.97072  1.0000
  C   C901      1.0  0.54235  0.28056  0.82604  1.0000
  S   S308      1.0  0.52509  0.28949  0.74494  1.0000
  C   C902      1.0  0.74934  0.26617  0.79134  1.0000
  H   H892      1.0  0.84727  0.09111  0.87605  1.0000
  H   H893      1.0  0.81229  0.14236  0.74428  1.0000
  H   H894      1.0  0.88990  0.14660  0.87736  1.0000
  C   C903      1.0  0.59646  0.32158  0.79058  1.0000
  N   N75       1.0  0.51166  0.25889  0.82940  1.0000
  C   C904      1.0  0.77582  0.09690  0.74168  1.0000
  H   H895      1.0  0.82725  0.29399  0.98106  1.0000
  C   C905      1.0  0.50866  0.27827  0.85428  1.0000
  C   C906      1.0  0.87294  0.15283  0.87117  1.0000
  H   H896      1.0  0.55557  0.28167  0.81498  1.0000
  C   C907      1.0  0.92724  0.30102  0.95153  1.0000
  H   H897      1.0  0.79202  0.05581  0.88627  1.0000
  H   H898      1.0  0.82700  0.16979  0.88039  1.0000
  C   C908      1.0  0.74363  0.33361  0.87072  1.0000
  H   H899      1.0  0.76633  0.09219  0.75391  1.0000
  C   C909      1.0  0.96571  0.27781  0.98354  1.0000
  H   H900      1.0  0.75430  0.30096  0.97498  1.0000
  N   N76       1.0  0.55627  0.30263  0.98187  1.0000
  C   C910      1.0  0.76495  0.26100  0.77811  1.0000
  N   N77       1.0  0.94703  0.28916  0.95970  1.0000
  H   H901      1.0  0.72003  0.32359  0.87769  1.0000
  C   C911      1.0  0.62648  0.32604  0.79459  1.0000
  C   C912      1.0  0.89954  0.21633  0.98681  1.0000
  C   C913      1.0  0.98999  0.31761  0.77707  1.0000
  N   N78       1.0  0.77716  0.27580  0.98605  1.0000
  H   H902      1.0  0.49486  0.27737  0.86516  1.0000
  H   H903      1.0  0.91926  0.28860  0.94103  1.0000
  S   S309      1.0  0.49905  0.30863  0.77786  1.0000
  C   C914      1.0  0.75238  0.28350  0.98425  1.0000
  H   H904      1.0  0.52114  0.31274  0.97153  1.0000
  H   H905      1.0  0.63050  0.33313  0.96289  1.0000
  H   H906      1.0  0.63285  0.28998  0.97980  1.0000
  C   C915      1.0  0.78932  0.27536  0.75082  1.0000
  C   C916      1.0  0.61109  0.29305  0.98008  1.0000
  H   H907      1.0  0.75323  0.31587  0.87043  1.0000
  H   H908      1.0  0.77249  0.26660  0.74193  1.0000
  C   C917      1.0  0.98281  0.33076  0.78995  1.0000
  C   C918      1.0  0.52802  0.30879  0.98327  1.0000
  H   H909      1.0  0.51274  0.23195  0.81064  1.0000
  H   H910      1.0  0.65647  0.39272  0.02551  1.0000
  C   C919      1.0  0.92018  0.61594  0.11301  1.0000
  C   C920      1.0  0.74616  0.65524  0.11845  1.0000
  Fe  Fe159     1.0  0.62202  0.60064  0.15359  1.0000
  S   S310      1.0  0.59495  0.54822  0.15413  1.0000
  S   S311      1.0  0.66686  0.61939  0.16530  1.0000
  H   H911      1.0  0.57477  0.61771  0.20253  1.0000
  H   H912      1.0  0.70163  0.61468  0.12287  1.0000
  Fe  Fe160     1.0  0.69341  0.35849  0.99315  1.0000
  Fe  Fe161     1.0  0.84694  0.59310  0.04129  1.0000
  S   S312      1.0  0.81105  0.61210  0.03822  1.0000
  S   S313      1.0  0.84576  0.55020  0.03069  1.0000
  C   C921      1.0  0.52987  0.57953  0.20005  1.0000
  C   C922      1.0  0.91545  0.62588  0.09804  1.0000
  H   H913      1.0  0.57883  0.36314  0.00662  1.0000
  C   C923      1.0  0.96390  0.35931  0.11170  1.0000
  S   S314      1.0  0.88894  0.63913  0.03456  1.0000
  S   S315      1.0  0.84726  0.59777  0.06715  1.0000
  H   H914      1.0  0.94610  0.37933  0.09370  1.0000
  H   H915      1.0  0.82261  0.58777  0.12925  1.0000
  S   S316      1.0  0.64392  0.63379  0.13177  1.0000
  C   C924      1.0  0.72938  0.44654  0.03146  1.0000
  C   C925      1.0  0.93648  0.65501  0.09059  1.0000
  S   S317      1.0  0.73858  0.39324  0.00068  1.0000
  H   H916      1.0  0.58718  0.51843  0.20643  1.0000
  C   C926      1.0  0.78241  0.65405  0.09691  1.0000
  H   H917      1.0  0.93776  0.52006  0.13850  1.0000
  C   C927      1.0  0.82422  0.33692  0.00417  1.0000
  C   C928      1.0  0.53195  0.53428  0.11982  1.0000
  N   N79       1.0  0.50790  0.46987  0.12543  1.0000
  H   H918      1.0  0.68977  0.44994  0.02146  1.0000
  Fe  Fe162     1.0  0.64839  0.65168  0.17539  1.0000
  H   H919      1.0  0.97241  0.51722  0.16770  1.0000
  C   C929      1.0  0.94926  0.35902  0.09796  1.0000
  C   C930      1.0  0.81616  0.52961  0.01880  1.0000
  C   C931      1.0  0.79208  0.53861  0.01571  1.0000
  H   H920      1.0  0.52041  0.50640  0.19440  1.0000
  S   S318      1.0  0.99185  0.38555  0.17022  1.0000
  C   C932      1.0  0.79373  0.48670  0.00270  1.0000
  C   C933      1.0  0.81700  0.50370  0.01219  1.0000
  H   H921      1.0  0.79080  0.55817  0.02088  1.0000
  Fe  Fe163     1.0  0.81426  0.62046  0.06357  1.0000
  H   H922      1.0  0.51644  0.59332  0.20109  1.0000
  H   H923      1.0  0.83563  0.49664  0.01447  1.0000
  C   C934      1.0  0.79992  0.34564  0.00101  1.0000
  H   H924      1.0  0.94142  0.54735  0.12192  1.0000
  C   C935      1.0  0.86401  0.62921  0.13242  1.0000
  H   H925      1.0  0.98744  0.36339  0.21291  1.0000
  C   C936      1.0  0.68018  0.40243  0.02910  1.0000
  C   C937      1.0  0.51464  0.54805  0.19785  1.0000
  Fe  Fe164     1.0  0.62759  0.66556  0.14402  1.0000
  C   C938      1.0  0.98465  0.35085  0.23777  1.0000
  C   C939      1.0  0.55325  0.53020  0.15772  1.0000
  C   C940      1.0  0.53753  0.49758  0.16015  1.0000
  C   C941      1.0  0.83905  0.61100  0.12429  1.0000
  H   H926      1.0  0.77753  0.42716  0.05153  1.0000
  Fe  Fe165     1.0  0.88595  0.64561  0.06025  1.0000
  C   C942      1.0  0.53550  0.54763  0.15790  1.0000
  H   H927      1.0  0.55114  0.48394  0.16006  1.0000
  H   H928      1.0  0.81261  0.62984  0.00043  1.0000
  H   H929      1.0  0.97168  0.37966  0.11805  1.0000
  H   H930      1.0  0.54731  0.57275  0.15601  1.0000
  H   H931      1.0  0.63184  0.36401  0.00074  1.0000
  Fe  Fe166     1.0  0.85296  0.65857  0.03311  1.0000
  C   C943      1.0  0.69255  0.38285  0.03562  1.0000
  Fe  Fe167     1.0  0.68691  0.65545  0.14457  1.0000
  H   H932      1.0  0.89082  0.59249  0.00381  1.0000
  H   H933      1.0  0.73351  0.38016  0.04408  1.0000
  C   C944      1.0  0.77532  0.66935  0.10904  1.0000
  H   H934      1.0  0.60625  0.54060  0.18772  1.0000
  C   C945      1.0  0.69871  0.43449  0.02695  1.0000
  S   S319      1.0  0.94922  0.62314  0.13999  1.0000
  C   C946      1.0  0.83546  0.62273  0.10965  1.0000
  S   S320      1.0  0.85288  0.66882  0.05830  1.0000
  H   H935      1.0  0.66026  0.65872  0.23375  1.0000
  H   H936      1.0  0.71500  0.65076  0.19005  1.0000
  H   H937      1.0  0.55612  0.47641  0.12302  1.0000
  C   C947      1.0  0.72361  0.39566  0.03966  1.0000
  H   H938      1.0  0.57790  0.53371  0.11840  1.0000
  C   C948      1.0  0.53994  0.48735  0.12264  1.0000
  C   C949      1.0  0.55245  0.51980  0.11987  1.0000
  H   H939      1.0  0.84239  0.60027  0.00902  1.0000
  C   C950      1.0  0.57962  0.57534  0.19902  1.0000
  H   H940      1.0  0.57081  0.50590  0.18832  1.0000
  C   C951      1.0  0.76978  0.49589  0.99956  1.0000
  H   H941      1.0  0.60508  0.58632  0.19942  1.0000
  C   C952      1.0  0.50426  0.48242  0.16251  1.0000
  H   H942      1.0  0.90356  0.59357  0.11880  1.0000
  H   H943      1.0  0.71448  0.58728  0.10181  1.0000
  H   H944      1.0  0.89537  0.61117  0.09236  1.0000
  H   H945      1.0  0.80457  0.66527  0.08950  1.0000
  N   N80       1.0  0.74153  0.42717  0.03762  1.0000
  C   C953      1.0  0.77467  0.43998  0.04095  1.0000
  C   C954      1.0  0.76922  0.52205  0.00597  1.0000
  H   H946      1.0  0.98456  0.43321  0.19478  1.0000
  H   H947      1.0  0.79434  0.46655  0.99779  1.0000
  S   S321      1.0  0.76889  0.60327  0.07991  1.0000
  C   C955      1.0  0.76061  0.62427  0.09437  1.0000
  S   S322      1.0  0.60223  0.63062  0.16491  1.0000
  H   H948      1.0  0.94812  0.55995  0.14121  1.0000
  C   C956      1.0  0.73146  0.61029  0.10375  1.0000
  C   C957      1.0  0.84584  0.60956  0.99687  1.0000
  C   C958      1.0  0.56253  0.59322  0.20082  1.0000
  C   C959      1.0  0.72414  0.62577  0.11568  1.0000
  H   H949      1.0  0.67851  0.35782  0.03701  1.0000
  H   H950      1.0  0.81615  0.60880  0.10319  1.0000
  H   H951      1.0  0.85428  0.66141  0.09191  1.0000
  H   H952      1.0  0.75058  0.52910  0.00368  1.0000
  H   H953      1.0  0.78355  0.46492  0.04309  1.0000
  H   H954      1.0  0.51353  0.42765  0.13038  1.0000
  H   H955      1.0  0.84611  0.34638  0.99646  1.0000
  C   C960      1.0  0.95139  0.54426  0.13290  1.0000
  H   H956      1.0  0.74359  0.47146  0.02974  1.0000
  S   S323      1.0  0.98875  0.46674  0.16222  1.0000
  C   C961      1.0  0.96717  0.66397  0.11307  1.0000
  C   C962      1.0  0.53244  0.53078  0.19627  1.0000
  H   H957      1.0  0.86751  0.62013  0.14366  1.0000
  C   C963      1.0  0.94574  0.63515  0.12067  1.0000
  H   H958      1.0  0.97716  0.50411  0.12864  1.0000
  N   N81       1.0  0.56461  0.54467  0.19652  1.0000
  C   C964      1.0  0.49487  0.43594  0.12876  1.0000
  C   C965      1.0  0.58308  0.52643  0.19476  1.0000
  H   H959      1.0  0.54138  0.55948  0.11822  1.0000
  C   C966      1.0  0.50223  0.53247  0.16023  1.0000
  S   S324      1.0  0.64755  0.65205  0.20178  1.0000
  C   C967      1.0  0.58405  0.34489  0.01202  1.0000
  C   C968      1.0  0.49932  0.51624  0.12243  1.0000
  N   N82       1.0  0.98505  0.55158  0.12949  1.0000
  H   H960      1.0  0.98950  0.42664  0.21524  1.0000
  H   H961      1.0  0.78970  0.43826  0.03079  1.0000
  C   C969      1.0  0.82872  0.62599  0.99204  1.0000
  C   C970      1.0  0.88504  0.65905  0.12576  1.0000
  H   H962      1.0  0.72861  0.65508  0.21730  1.0000
  C   C971      1.0  0.61412  0.34547  0.00871  1.0000
  C   C972      1.0  0.85704  0.65259  0.10333  1.0000
  S   S325      1.0  0.93018  0.66974  0.07242  1.0000
  H   H963      1.0  0.49233  0.45729  0.16433  1.0000
  H   H964      1.0  0.75269  0.33971  0.00866  1.0000
  C   C973      1.0  0.88391  0.58748  0.99183  1.0000
  H   H965      1.0  0.86819  0.56223  0.99224  1.0000
  H   H966      1.0  0.88348  0.39768  0.38935  1.0000
  Fe  Fe168     1.0  0.88821  0.52378  0.36813  1.0000
  S   S326      1.0  0.85785  0.52012  0.34823  1.0000
  S   S327      1.0  0.94399  0.54721  0.36241  1.0000
  Fe  Fe169     1.0  0.82602  0.49699  0.39097  1.0000
  S   S328      1.0  0.79504  0.49498  0.37215  1.0000
  S   S329      1.0  0.79769  0.47341  0.41414  1.0000
  Fe  Fe170     1.0  0.82265  0.47184  0.36015  1.0000
  S   S330      1.0  0.79749  0.42115  0.35246  1.0000
  Fe  Fe171     1.0  0.83259  0.54292  0.36321  1.0000
  S   S331      1.0  0.82572  0.58829  0.35597  1.0000
  S   S332      1.0  0.85452  0.47514  0.37886  1.0000
  S   S333      1.0  0.86262  0.54592  0.38290  1.0000
  C   C974      1.0  0.87477  0.53016  0.43541  1.0000
  H   H967      1.0  0.76189  0.61551  0.32743  1.0000
  H   H968      1.0  0.85657  0.41640  0.47347  1.0000
  H   H969      1.0  0.96433  0.34847  0.38166  1.0000
  C   C975      1.0  0.76389  0.36622  0.37435  1.0000
  H   H970      1.0  0.76901  0.38135  0.38364  1.0000
  H   H971      1.0  0.91113  0.56881  0.42046  1.0000
  H   H972      1.0  0.88705  0.47776  0.40588  1.0000
  H   H973      1.0  0.97380  0.39656  0.39447  1.0000
  C   C976      1.0  0.96207  0.48176  0.35925  1.0000
  N   N83       1.0  0.74676  0.64824  0.33658  1.0000
  N   N84       1.0  0.92954  0.45761  0.36237  1.0000
  C   C977      1.0  0.92138  0.60656  0.34522  1.0000
  C   C978      1.0  0.49922  0.46155  0.42701  1.0000
  S   S334      1.0  0.64916  0.65237  0.37214  1.0000
  H   H974      1.0  0.97821  0.47132  0.35526  1.0000
  H   H975      1.0  0.58609  0.64841  0.33558  1.0000
  C   C979      1.0  0.90520  0.62537  0.34490  1.0000
  Fe  Fe172     1.0  0.94776  0.47394  0.43243  1.0000
  S   S335      1.0  0.95413  0.49136  0.40690  1.0000
  S   S336      1.0  0.89683  0.43958  0.44420  1.0000
  S   S337      1.0  0.97612  0.52277  0.43905  1.0000
  C   C980      1.0  0.98365  0.39831  0.38250  1.0000
  C   C981      1.0  0.98718  0.56374  0.36210  1.0000
  C   C982      1.0  0.99097  0.37235  0.35962  1.0000
  S   S338      1.0  0.74857  0.34372  0.46431  1.0000
  C   C983      1.0  0.65871  0.65642  0.35169  1.0000
  H   H976      1.0  0.84414  0.39269  0.37030  1.0000
  C   C984      1.0  0.98942  0.64398  0.36810  1.0000
  H   H977      1.0  0.97010  0.49310  0.37003  1.0000
  C   C985      1.0  0.89025  0.41357  0.37873  1.0000
  C   C986      1.0  0.78967  0.36954  0.45752  1.0000
  C   C987      1.0  0.80985  0.38449  0.46872  1.0000
  C   C988      1.0  0.84209  0.40506  0.46448  1.0000
  C   C989      1.0  0.85570  0.41132  0.44886  1.0000
  C   C990      1.0  0.83585  0.39587  0.43752  1.0000
  C   C991      1.0  0.80317  0.37529  0.44180  1.0000
  H   H978      1.0  0.89200  0.65003  0.39104  1.0000
  H   H979      1.0  0.84553  0.40013  0.42538  1.0000
  H   H980      1.0  0.78843  0.36407  0.43288  1.0000
  C   C992      1.0  0.86157  0.48007  0.42711  1.0000
  H   H981      1.0  0.93828  0.43904  0.38379  1.0000
  C   C993      1.0  0.76465  0.43829  0.41177  1.0000
  C   C994      1.0  0.74381  0.43735  0.40068  1.0000
  C   C995      1.0  0.71809  0.40926  0.39866  1.0000
  C   C996      1.0  0.71245  0.38188  0.40798  1.0000
  C   C997      1.0  0.73303  0.38279  0.41922  1.0000
  C   C998      1.0  0.75880  0.41095  0.42120  1.0000
  H   H982      1.0  0.74676  0.45844  0.39398  1.0000
  H   H983      1.0  0.70222  0.40894  0.39006  1.0000
  H   H984      1.0  0.62542  0.42091  0.41883  1.0000
  H   H985      1.0  0.77436  0.41151  0.42999  1.0000
  C   C999      1.0  0.81540  0.62018  0.36012  1.0000
  C   C1000     1.0  0.79964  0.62217  0.37436  1.0000
  C   C1001     1.0  0.79229  0.64820  0.37649  1.0000
  S   S339      1.0  0.67867  0.34725  0.40602  1.0000
  H   H986      1.0  0.80033  0.38040  0.48090  1.0000
  C   C1002     1.0  0.82378  0.64493  0.34832  1.0000
  H   H987      1.0  0.79282  0.60354  0.38370  1.0000
  H   H988      1.0  0.78016  0.64919  0.38748  1.0000
  C   C1003     1.0  0.71905  0.63404  0.36248  1.0000
  H   H989      1.0  0.83557  0.64411  0.33721  1.0000
  S   S340      1.0  0.67260  0.34595  0.44786  1.0000
  C   C1004     1.0  0.74952  0.62068  0.33717  1.0000
  N   N85       1.0  0.91678  0.63520  0.31691  1.0000
  H   H990      1.0  0.97494  0.64793  0.35979  1.0000
  S   S341      1.0  0.99200  0.46486  0.43079  1.0000
  C   C1005     1.0  0.68260  0.66449  0.32001  1.0000
  H   H991      1.0  0.89363  0.62825  0.35563  1.0000
  H   H992      1.0  0.72932  0.36179  0.42636  1.0000
  C   C1006     1.0  0.93575  0.60263  0.33130  1.0000
  C   C1007     1.0  0.52530  0.35764  0.45291  1.0000
  C   C1008     1.0  0.73706  0.59909  0.35047  1.0000
  H   H993      1.0  0.52074  0.46030  0.42238  1.0000
  H   H994      1.0  0.56253  0.41540  0.47574  1.0000
  H   H995      1.0  0.98850  0.54675  0.38556  1.0000
  C   C1009     1.0  0.65615  0.63060  0.34397  1.0000
  C   C1010     1.0  0.66813  0.63464  0.32815  1.0000
  Fe  Fe173     1.0  0.98477  0.53959  0.41331  1.0000
  H   H996      1.0  0.90993  0.63419  0.29269  1.0000
  C   C1011     1.0  0.97837  0.37097  0.37518  1.0000
  H   H997      1.0  0.64625  0.60770  0.35040  1.0000
  H   H998      1.0  0.66713  0.61476  0.32237  1.0000
  H   H999      1.0  0.84707  0.45526  0.42862  1.0000
  C   C1012     1.0  0.83369  0.48400  0.45126  1.0000
  C   C1013     1.0  0.97571  0.61946  0.38040  1.0000
  H   H1000     1.0  0.56127  0.34402  0.44290  1.0000
  H   H1001     1.0  0.95060  0.60465  0.38147  1.0000
  H   H1002     1.0  0.89501  0.65789  0.30284  1.0000
  H   H1003     1.0  0.89066  0.65436  0.33045  1.0000
  C   C1014     1.0  0.90145  0.52496  0.41147  1.0000
  H   H1004     1.0  0.83070  0.50142  0.45836  1.0000
  C   C1015     1.0  0.50852  0.35994  0.46672  1.0000
  C   C1016     1.0  0.72157  0.60582  0.36315  1.0000
  H   H1005     1.0  0.73995  0.57758  0.35104  1.0000
  C   C1017     1.0  0.51545  0.34964  0.48102  1.0000
  C   C1018     1.0  0.87743  0.43111  0.35440  1.0000
  C   C1019     1.0  0.77462  0.37952  0.35867  1.0000
  H   H1006     1.0  0.71196  0.58945  0.37359  1.0000
  H   H1007     1.0  0.58498  0.45459  0.46640  1.0000
  H   H1008     1.0  0.86054  0.42891  0.34601  1.0000
  H   H1009     1.0  0.58710  0.43587  0.43342  1.0000
  C   C1020     1.0  0.92109  0.43715  0.37560  1.0000
  H   H1010     1.0  0.55218  0.42661  0.45764  1.0000
  N   N86       1.0  0.59480  0.42008  0.45581  1.0000
  C   C1021     1.0  0.59994  0.42535  0.43982  1.0000
  C   C1022     1.0  0.61123  0.40709  0.46390  1.0000
  C   C1023     1.0  0.62154  0.41697  0.43150  1.0000
  C   C1024     1.0  0.63295  0.39842  0.45595  1.0000
  C   C1025     1.0  0.63808  0.40336  0.43965  1.0000
  C   C1026     1.0  0.57269  0.42976  0.46431  1.0000
  C   C1027     1.0  0.91451  0.65030  0.30194  1.0000
  H   H1011     1.0  0.60700  0.40254  0.47655  1.0000
  H   H1012     1.0  0.58268  0.65536  0.36394  1.0000
  H   H1013     1.0  0.64521  0.38733  0.46242  1.0000
  H   H1014     1.0  0.65476  0.39655  0.43333  1.0000
  H   H1015     1.0  0.52044  0.36534  0.44172  1.0000
  H   H1016     1.0  0.96417  0.50051  0.35024  1.0000
  C   C1028     1.0  0.93336  0.61734  0.31716  1.0000
  C   C1029     1.0  0.90826  0.45472  0.35177  1.0000
  H   H1017     1.0  0.94852  0.58814  0.33156  1.0000
  H   H1018     1.0  0.94484  0.61443  0.30639  1.0000
  C   C1030     1.0  0.86829  0.41063  0.36804  1.0000
  C   C1031     1.0  0.76692  0.35878  0.34705  1.0000
  H   H1019     1.0  0.77471  0.36804  0.33492  1.0000
  N   N87       1.0  0.85722  0.49860  0.43761  1.0000
  H   H1020     1.0  0.84094  0.46872  0.45875  1.0000
  H   H1021     1.0  0.81027  0.46944  0.44734  1.0000
  H   H1022     1.0  0.87152  0.54495  0.44374  1.0000
  C   C1032     1.0  0.89708  0.54383  0.42227  1.0000
  H   H1023     1.0  0.91858  0.53517  0.40118  1.0000
  C   C1033     1.0  0.88375  0.49285  0.41399  1.0000
  H   H1024     1.0  0.70720  0.63965  0.37229  1.0000
  C   C1034     1.0  0.73209  0.65520  0.34908  1.0000
  S   S342      1.0  0.70082  0.66967  0.30086  1.0000
  H   H1025     1.0  0.91496  0.47081  0.34125  1.0000
  S   S343      1.0  0.97640  0.58372  0.40720  1.0000
  C   C1035     1.0  0.90324  0.63973  0.33057  1.0000
  H   H1026     1.0  0.92289  0.59508  0.35623  1.0000
  H   H1027     1.0  0.75385  0.65921  0.31188  1.0000
  H   H1028     1.0  0.69156  0.34162  0.37287  1.0000
  C   C1036     1.0  0.54854  0.34544  0.45358  1.0000
  H   H1029     1.0  0.66501  0.34175  0.35896  1.0000
  C   C1037     1.0  0.53835  0.33765  0.48168  1.0000
  S   S344      1.0  0.98358  0.33667  0.35116  1.0000
  H   H1030     1.0  0.99191  0.45529  0.48830  1.0000
  C   C1038     1.0  0.90539  0.66892  0.38197  1.0000
  H   H1031     1.0  0.94979  0.66617  0.38445  1.0000
  H   H1032     1.0  0.95949  0.34439  0.23974  1.0000
  C   C1039     1.0  0.70073  0.64706  0.61005  1.0000
  H   H1033     1.0  0.97692  0.39989  0.64885  1.0000
  C   C1040     1.0  0.52851  0.38738  0.64108  1.0000
  S   S345      1.0  0.56316  0.52495  0.65856  1.0000
  C   C1041     1.0  0.97058  0.35876  0.66357  1.0000
  C   C1042     1.0  0.97120  0.39201  0.70040  1.0000
  H   H1034     1.0  0.65179  0.61392  0.61507  1.0000
  H   H1035     1.0  0.95011  0.35829  0.67055  1.0000
  H   H1036     1.0  0.54091  0.56645  0.67562  1.0000
  C   C1043     1.0  0.86477  0.65474  0.70783  1.0000
  Fe  Fe174     1.0  0.51293  0.49431  0.65359  1.0000
  H   H1037     1.0  0.54998  0.39350  0.64677  1.0000
  C   C1044     1.0  0.58425  0.56553  0.65321  1.0000
  C   C1045     1.0  0.57125  0.58253  0.64471  1.0000
  C   C1046     1.0  0.58783  0.61513  0.64176  1.0000
  C   C1047     1.0  0.61759  0.63096  0.64715  1.0000
  C   C1048     1.0  0.63089  0.61389  0.65531  1.0000
  C   C1049     1.0  0.61421  0.58133  0.65837  1.0000
  H   H1038     1.0  0.54833  0.57059  0.64056  1.0000
  H   H1039     1.0  0.57745  0.62818  0.63536  1.0000
  H   H1040     1.0  0.65380  0.62580  0.65950  1.0000
  H   H1041     1.0  0.62441  0.56838  0.66499  1.0000
  H   H1042     1.0  0.63114  0.65340  0.61050  1.0000
  C   C1050     1.0  0.96029  0.36589  0.71159  1.0000
  S   S346      1.0  0.50327  0.44824  0.64462  1.0000
  C   C1051     1.0  0.84209  0.65022  0.69739  1.0000
  H   H1043     1.0  0.71007  0.63001  0.61236  1.0000
  H   H1044     1.0  0.82554  0.62688  0.69556  1.0000
  C   C1052     1.0  0.52056  0.55241  0.68390  1.0000
  C   C1053     1.0  0.65652  0.66048  0.60891  1.0000
  C   C1054     1.0  0.97903  0.34992  0.71400  1.0000
  H   H1045     1.0  0.86631  0.63499  0.71411  1.0000
  H   H1046     1.0  0.49752  0.36060  0.66165  1.0000
  C   C1055     1.0  0.52997  0.39884  0.62556  1.0000
  H   H1047     1.0  0.95652  0.40422  0.69852  1.0000
  C   C1056     1.0  0.66809  0.63800  0.61151  1.0000
  H   H1048     1.0  0.50022  0.50003  0.71608  1.0000
  C   C1057     1.0  0.52401  0.53332  0.69596  1.0000
  H   H1049     1.0  0.50899  0.41322  0.72183  1.0000
  C   C1058     1.0  0.50189  0.39167  0.61863  1.0000
  H   H1050     1.0  0.54658  0.53211  0.69660  1.0000
  C   C1059     1.0  0.49804  0.51537  0.70683  1.0000
  H   H1051     1.0  0.93734  0.35805  0.71827  1.0000
  C   C1060     1.0  0.98551  0.38226  0.65121  1.0000
  H   H1052     1.0  0.77415  0.65877  0.71369  1.0000
  C   C1061     1.0  0.49914  0.36882  0.64940  1.0000
  H   H1053     1.0  0.55259  0.41400  0.61909  1.0000
  H   H1054     1.0  0.50319  0.40149  0.60673  1.0000
  H   H1055     1.0  0.50619  0.57620  0.65920  1.0000
  H   H1056     1.0  0.50325  0.35134  0.49183  1.0000
  H   H1057     1.0  0.99078  0.66783  0.72038  1.0000
  C   C1062     1.0  0.49406  0.39372  0.71598  1.0000
  N   N88       1.0  0.98228  0.33741  0.66712  1.0000
  S   S347      1.0  0.76211  0.41721  0.96302  1.0000
  C   C1063     1.0  0.59846  0.36329  0.80586  1.0000
  Fe  Fe175     1.0  0.71493  0.38068  0.95832  1.0000
  H   H1058     1.0  0.82316  0.38889  0.77361  1.0000
  Fe  Fe176     1.0  0.69944  0.40806  0.82462  1.0000
  S   S348      1.0  0.73453  0.40599  0.80602  1.0000
  S   S349      1.0  0.71760  0.34304  0.97446  1.0000
  Fe  Fe177     1.0  0.74783  0.43210  0.84804  1.0000
  S   S350      1.0  0.78692  0.43232  0.83131  1.0000
  S   S351      1.0  0.76216  0.45106  0.87112  1.0000
  Fe  Fe178     1.0  0.76717  0.45254  0.81298  1.0000
  S   S352      1.0  0.80232  0.49029  0.79513  1.0000
  Fe  Fe179     1.0  0.75150  0.38615  0.82584  1.0000
  S   S353      1.0  0.73089  0.45631  0.83011  1.0000
  C   C1064     1.0  0.56658  0.38543  0.76166  1.0000
  C   C1065     1.0  0.62875  0.36811  0.80964  1.0000
  H   H1059     1.0  0.82338  0.43407  0.89455  1.0000
  C   C1066     1.0  0.61133  0.37124  0.75830  1.0000
  H   H1060     1.0  0.59751  0.35255  0.75160  1.0000
  S   S354      1.0  0.80995  0.62642  0.79189  1.0000
  C   C1067     1.0  0.83363  0.63866  0.97649  1.0000
  C   C1068     1.0  0.79232  0.34896  0.80957  1.0000
  H   H1061     1.0  0.79025  0.38899  0.79745  1.0000
  C   C1069     1.0  0.80192  0.52719  0.79305  1.0000
  C   C1070     1.0  0.82505  0.55090  0.78253  1.0000
  C   C1071     1.0  0.82713  0.58133  0.78166  1.0000
  C   C1072     1.0  0.80598  0.58807  0.79130  1.0000
  C   C1073     1.0  0.78226  0.56417  0.80145  1.0000
  C   C1074     1.0  0.78024  0.53380  0.80234  1.0000
  H   H1062     1.0  0.84179  0.54586  0.77524  1.0000
  H   H1063     1.0  0.84543  0.59965  0.77377  1.0000
  H   H1064     1.0  0.76574  0.56928  0.80886  1.0000
  H   H1065     1.0  0.76213  0.51568  0.81033  1.0000
  C   C1075     1.0  0.79954  0.37169  0.79696  1.0000
  C   C1076     1.0  0.87180  0.61770  0.97117  1.0000
  H   H1066     1.0  0.88872  0.61479  0.96293  1.0000
  C   C1077     1.0  0.74230  0.42809  0.88887  1.0000
  C   C1078     1.0  0.75263  0.43911  0.90315  1.0000
  C   C1079     1.0  0.73862  0.42053  0.91742  1.0000
  C   C1080     1.0  0.71402  0.39083  0.91751  1.0000
  H   H1067     1.0  0.70903  0.38995  0.87812  1.0000
  H   H1068     1.0  0.77176  0.46199  0.90316  1.0000
  H   H1069     1.0  0.74689  0.42917  0.92834  1.0000
  S   S355      1.0  0.64868  0.39788  0.82121  1.0000
  H   H1070     1.0  0.82689  0.43106  0.86578  1.0000
  Fe  Fe180     1.0  0.85027  0.66545  0.77685  1.0000
  N   N89       1.0  0.83348  0.54896  0.82817  1.0000
  C   C1081     1.0  0.85822  0.56022  0.81655  1.0000
  C   C1082     1.0  0.82176  0.56835  0.83427  1.0000
  C   C1083     1.0  0.87154  0.59159  0.81057  1.0000
  C   C1084     1.0  0.83437  0.59979  0.82848  1.0000
  C   C1085     1.0  0.85936  0.61140  0.81654  1.0000
  C   C1086     1.0  0.81957  0.51606  0.83435  1.0000
  H   H1071     1.0  0.86692  0.54468  0.81139  1.0000
  H   H1072     1.0  0.80194  0.55930  0.84336  1.0000
  H   H1073     1.0  0.89015  0.60016  0.80087  1.0000
  H   H1074     1.0  0.82409  0.61483  0.83277  1.0000
  H   H1075     1.0  0.86833  0.63538  0.81148  1.0000
  H   H1076     1.0  0.82595  0.50181  0.82624  1.0000
  H   H1077     1.0  0.82763  0.51326  0.84593  1.0000
  H   H1078     1.0  0.79330  0.50647  0.83571  1.0000
  N   N90       1.0  0.76575  0.36114  0.87727  1.0000
  S   S356      1.0  0.71348  0.38405  0.84403  1.0000
  C   C1087     1.0  0.80786  0.41321  0.88973  1.0000
  H   H1079     1.0  0.66594  0.35280  0.80703  1.0000
  C   C1088     1.0  0.64185  0.37518  0.76106  1.0000
  N   N91       1.0  0.59868  0.38989  0.76447  1.0000
  C   C1089     1.0  0.85531  0.63455  0.96596  1.0000
  S   S357      1.0  0.80409  0.36937  0.98368  1.0000
  H   H1080     1.0  0.78304  0.38955  0.91216  1.0000
  H   H1081     1.0  0.55912  0.33669  0.79334  1.0000
  C   C1090     1.0  0.81821  0.37161  0.78346  1.0000
  C   C1091     1.0  0.64269  0.34935  0.80405  1.0000
  H   H1082     1.0  0.68274  0.40109  0.77280  1.0000
  C   C1092     1.0  0.61592  0.41297  0.77321  1.0000
  C   C1093     1.0  0.71739  0.39858  0.88900  1.0000
  H   H1083     1.0  0.58759  0.37774  0.81025  1.0000
  C   C1094     1.0  0.70328  0.38006  0.90326  1.0000
  S   S358      1.0  0.69679  0.36605  0.93506  1.0000
  C   C1095     1.0  0.78858  0.38505  0.86753  1.0000
  H   H1084     1.0  0.65963  0.43494  0.78372  1.0000
  H   H1085     1.0  0.79016  0.38388  0.85496  1.0000
  H   H1086     1.0  0.73987  0.33960  0.85856  1.0000
  N   N92       1.0  0.86713  0.60571  0.98651  1.0000
  H   H1087     1.0  0.68408  0.35723  0.90326  1.0000
  C   C1096     1.0  0.64645  0.41744  0.77627  1.0000
  H   H1088     1.0  0.82137  0.65245  0.97274  1.0000
  H   H1089     1.0  0.60582  0.42760  0.77819  1.0000
  S   S359      1.0  0.76580  0.34636  0.82579  1.0000
  H   H1090     1.0  0.85998  0.64512  0.95395  1.0000
  C   C1097     1.0  0.80976  0.41157  0.87359  1.0000
  C   C1098     1.0  0.65942  0.39836  0.77016  1.0000
  S   S360      1.0  0.68659  0.39297  0.97664  1.0000
  Fe  Fe181     1.0  0.76232  0.38032  0.98073  1.0000
  H   H1091     1.0  0.55353  0.36322  0.75661  1.0000
  Fe  Fe182     1.0  0.73414  0.42688  0.98268  1.0000
  C   C1099     1.0  0.78520  0.38825  0.89961  1.0000
  H   H1092     1.0  0.65131  0.35964  0.75659  1.0000
  H   H1093     1.0  0.55252  0.38458  0.77278  1.0000
  C   C1100     1.0  0.76422  0.36222  0.89314  1.0000
  H   H1094     1.0  0.56743  0.40463  0.75330  1.0000
  C   C1101     1.0  0.58236  0.34015  0.79628  1.0000
  H   H1095     1.0  0.74608  0.34334  0.90090  1.0000
  S   S361      1.0  0.49947  0.35755  0.74074  1.0000
  H   H1096     1.0  0.58150  0.34141  0.96472  1.0000
  H   H1097     1.0  0.90594  0.59296  0.98406  1.0000
  C   C1102     1.0  0.82990  0.34895  0.78251  1.0000
  S   S362      1.0  0.73894  0.47408  0.98868  1.0000
  H   H1098     1.0  0.97974  0.37141  0.79801  1.0000
  C   C1103     1.0  0.98621  0.36138  0.78815  1.0000
  S   S363      1.0  0.85014  0.34764  0.76470  1.0000
  H   H1099     1.0  0.51546  0.95498  0.14628  1.0000
  H   H1100     1.0  0.65063  0.67014  0.09523  1.0000
  S   S364      1.0  0.69006  0.96118  0.13254  1.0000
  C   C1104     1.0  0.74049  0.67505  0.20863  1.0000
  S   S365      1.0  0.60158  0.68836  0.13077  1.0000
  S   S366      1.0  0.67197  0.68956  0.15556  1.0000
  Fe  Fe183     1.0  0.66484  0.86311  0.03199  1.0000
  S   S367      1.0  0.64604  0.81110  0.03647  1.0000
  S   S368      1.0  0.70293  0.89323  0.01255  1.0000
  Fe  Fe184     1.0  0.62709  0.86800  0.06134  1.0000
  S   S369      1.0  0.60453  0.81631  0.06785  1.0000
  S   S370      1.0  0.61379  0.89892  0.07652  1.0000
  Fe  Fe185     1.0  0.65301  0.81893  0.06169  1.0000
  S   S371      1.0  0.67780  0.79724  0.07693  1.0000
  Fe  Fe186     1.0  0.59899  0.81268  0.04222  1.0000
  S   S372      1.0  0.55404  0.77452  0.03570  1.0000
  S   S373      1.0  0.67601  0.87102  0.05680  1.0000
  S   S374      1.0  0.61728  0.86428  0.03607  1.0000
  C   C1105     1.0  0.52262  0.70999  0.00552  1.0000
  H   H1101     1.0  0.53267  0.83412  0.99283  1.0000
  N   N93       1.0  0.67699  0.71160  0.07987  1.0000
  H   H1102     1.0  0.52966  0.69188  0.00151  1.0000
  H   H1103     1.0  0.63931  0.82147  0.09443  1.0000
  C   C1106     1.0  0.63756  0.91921  0.09076  1.0000
  C   C1107     1.0  0.66563  0.91684  0.09353  1.0000
  C   C1108     1.0  0.68218  0.93081  0.10604  1.0000
  C   C1109     1.0  0.67079  0.94716  0.11587  1.0000
  C   C1110     1.0  0.64343  0.95056  0.11271  1.0000
  C   C1111     1.0  0.62693  0.93666  0.10019  1.0000
  H   H1104     1.0  0.67419  0.90367  0.08626  1.0000
  H   H1105     1.0  0.70350  0.92830  0.10832  1.0000
  H   H1106     1.0  0.63428  0.96288  0.12022  1.0000
  H   H1107     1.0  0.60528  0.93864  0.09807  1.0000
  C   C1112     1.0  0.72934  0.71513  0.09453  1.0000
  C   C1113     1.0  0.51301  0.97514  0.14110  1.0000
  C   C1114     1.0  0.62304  0.72010  0.11657  1.0000
  C   C1115     1.0  0.65613  0.73488  0.11514  1.0000
  C   C1116     1.0  0.67260  0.75946  0.10334  1.0000
  C   C1117     1.0  0.65617  0.76898  0.09271  1.0000
  C   C1118     1.0  0.62308  0.75463  0.09433  1.0000
  C   C1119     1.0  0.60659  0.73036  0.10628  1.0000
  H   H1108     1.0  0.66900  0.72731  0.12311  1.0000
  H   H1109     1.0  0.69821  0.77070  0.10225  1.0000
  H   H1110     1.0  0.61015  0.76164  0.08617  1.0000
  H   H1111     1.0  0.58097  0.71906  0.10738  1.0000
  C   C1120     1.0  0.76909  0.72626  0.18646  1.0000
  H   H1112     1.0  0.79273  0.75017  0.20542  1.0000
  C   C1121     1.0  0.54144  0.80993  0.01272  1.0000
  C   C1122     1.0  0.52997  0.78243  0.02283  1.0000
  C   C1123     1.0  0.89938  0.68902  0.99300  1.0000
  N   N94       1.0  0.53518  0.73729  0.99385  1.0000
  C   C1124     1.0  0.69546  0.70565  0.23453  1.0000
  H   H1113     1.0  0.56467  0.82814  0.01362  1.0000
  H   H1114     1.0  0.57831  0.75942  0.00414  1.0000
  H   H1115     1.0  0.59888  0.83968  0.10283  1.0000
  H   H1116     1.0  0.51455  0.97901  0.18173  1.0000
  H   H1117     1.0  0.49632  0.70017  0.00758  1.0000
  C   C1125     1.0  0.77625  0.72809  0.20200  1.0000
  S   S375      1.0  0.74359  0.76480  0.23444  1.0000
  H   H1118     1.0  0.90468  0.67284  0.13204  1.0000
  S   S376      1.0  0.66150  0.98800  0.17179  1.0000
  C   C1126     1.0  0.52335  0.81321  0.00092  1.0000
  N   N95       1.0  0.88152  0.67024  0.11132  1.0000
  C   C1127     1.0  0.69070  0.71336  0.20236  1.0000
  C   C1128     1.0  0.67235  0.68452  0.21090  1.0000
  C   C1129     1.0  0.67452  0.68090  0.22704  1.0000
  H   H1119     1.0  0.79233  0.69227  0.11106  1.0000
  N   N96       1.0  0.62277  0.86150  0.12201  1.0000
  C   C1130     1.0  0.61912  0.84464  0.10942  1.0000
  C   C1131     1.0  0.64852  0.86803  0.13017  1.0000
  C   C1132     1.0  0.64194  0.83438  0.10453  1.0000
  C   C1133     1.0  0.67183  0.85813  0.12554  1.0000
  C   C1134     1.0  0.66844  0.84120  0.11261  1.0000
  C   C1135     1.0  0.59826  0.87149  0.12717  1.0000
  H   H1120     1.0  0.65162  0.88171  0.14006  1.0000
  H   H1121     1.0  0.69251  0.86388  0.13183  1.0000
  H   H1122     1.0  0.68632  0.83346  0.10872  1.0000
  H   H1123     1.0  0.57979  0.85301  0.13553  1.0000
  H   H1124     1.0  0.60855  0.89334  0.13291  1.0000
  H   H1125     1.0  0.58704  0.87649  0.11702  1.0000
  H   H1126     1.0  0.90542  0.70396  0.09170  1.0000
  H   H1127     1.0  0.74960  0.71648  0.10041  1.0000
  S   S377      1.0  0.58032  0.99244  0.17530  1.0000
  H   H1128     1.0  0.65566  0.84554  0.99675  1.0000
  H   H1129     1.0  0.97900  0.69629  0.09233  1.0000
  H   H1130     1.0  0.74110  0.69651  0.17010  1.0000
  C   C1136     1.0  0.67366  0.68910  0.09149  1.0000
  C   C1137     1.0  0.69976  0.69054  0.09897  1.0000
  H   H1131     1.0  0.70859  0.75378  0.06622  1.0000
  H   H1132     1.0  0.74888  0.69170  0.23747  1.0000
  H   H1133     1.0  0.68904  0.71651  0.18996  1.0000
  C   C1138     1.0  0.56467  0.76050  0.99461  1.0000
  C   C1139     1.0  0.71156  0.73814  0.20986  1.0000
  S   S378      1.0  0.85232  0.69214  0.01331  1.0000
  H   H1134     1.0  0.69711  0.67281  0.10822  1.0000
  C   C1140     1.0  0.71439  0.73427  0.22591  1.0000
  C   C1141     1.0  0.77026  0.70457  0.22898  1.0000
  C   C1142     1.0  0.74724  0.69819  0.18206  1.0000
  H   H1135     1.0  0.90399  0.67636  0.00263  1.0000
  H   H1136     1.0  0.78000  0.74661  0.17796  1.0000
  C   C1143     1.0  0.49979  0.75899  0.02156  1.0000
  H   H1137     1.0  0.72479  0.96736  0.99775  1.0000
  C   C1144     1.0  0.96260  0.67377  0.09806  1.0000
  C   C1145     1.0  0.70273  0.88251  0.99332  1.0000
  H   H1138     1.0  0.64549  0.69260  0.06286  1.0000
  H   H1139     1.0  0.67626  0.00156  0.21001  1.0000
  C   C1146     1.0  0.70601  0.73568  0.07530  1.0000
  H   H1140     1.0  0.53154  0.71643  0.01703  1.0000
  H   H1141     1.0  0.72597  0.76028  0.20315  1.0000
  C   C1147     1.0  0.90319  0.70190  0.10473  1.0000
  C   C1148     1.0  0.73258  0.73790  0.08261  1.0000
  H   H1142     1.0  0.75544  0.75727  0.07913  1.0000
  H   H1143     1.0  0.92743  0.70813  0.10812  1.0000
  Fe  Fe187     1.0  0.67892  0.99548  0.14610  1.0000
  C   C1149     1.0  0.87605  0.69996  0.99523  1.0000
  C   C1150     1.0  0.64945  0.70907  0.07190  1.0000
  H   H1144     1.0  0.78054  0.72903  0.23195  1.0000
  H   H1145     1.0  0.89439  0.71876  0.10885  1.0000
  H   H1146     1.0  0.65276  0.73206  0.06620  1.0000
  N   N97       1.0  0.76188  0.70268  0.21286  1.0000
  H   H1147     1.0  0.78773  0.69477  0.23060  1.0000
  C   C1151     1.0  0.52668  0.00243  0.17595  1.0000
  C   C1152     1.0  0.73278  0.67241  0.19321  1.0000
  H   H1148     1.0  0.62789  0.70083  0.08044  1.0000
  H   H1149     1.0  0.58158  0.00000  0.21067  1.0000
  H   H1150     1.0  0.56360  0.00211  0.13613  1.0000
  H   H1151     1.0  0.98619  0.71669  0.23204  1.0000
  C   C1153     1.0  0.49382  0.78905  0.99918  1.0000
  C   C1154     1.0  0.54036  0.00167  0.13525  1.0000
  S   S379      1.0  0.73753  0.67516  0.13334  1.0000
  H   H1152     1.0  0.98695  0.67892  0.11887  1.0000
  H   H1153     1.0  0.66301  0.98472  0.23854  1.0000
  H   H1154     1.0  0.58920  0.98889  0.23841  1.0000
  N   N98       1.0  0.90732  0.70871  0.36270  1.0000
  H   H1155     1.0  0.79528  0.97622  0.24594  1.0000
  S   S380      1.0  0.92880  0.71945  0.31767  1.0000
  Fe  Fe188     1.0  0.74937  0.76065  0.26039  1.0000
  S   S381      1.0  0.78282  0.80212  0.27132  1.0000
  C   C1155     1.0  0.81722  0.67090  0.35058  1.0000
  Fe  Fe189     1.0  0.73083  0.71940  0.29102  1.0000
  S   S382      1.0  0.76236  0.75697  0.30463  1.0000
  Fe  Fe190     1.0  0.74464  0.78787  0.29133  1.0000
  S   S383      1.0  0.72616  0.81883  0.30378  1.0000
  Fe  Fe191     1.0  0.79846  0.76847  0.28370  1.0000
  S   S384      1.0  0.85161  0.78541  0.28458  1.0000
  S   S385      1.0  0.70980  0.74883  0.27951  1.0000
  S   S386      1.0  0.76826  0.72841  0.27103  1.0000
  C   C1156     1.0  0.80115  0.67303  0.36455  1.0000
  S   S387      1.0  0.71290  0.97878  0.30256  1.0000
  S   S388      1.0  0.79118  0.96721  0.29893  1.0000
  H   H1156     1.0  0.66943  0.77013  0.32727  1.0000
  S   S389      1.0  0.84105  0.82024  0.46936  1.0000
  H   H1157     1.0  0.84767  0.00170  0.47774  1.0000
  Fe  Fe192     1.0  0.72236  0.73056  0.40817  1.0000
  S   S390      1.0  0.75845  0.76573  0.38974  1.0000
  S   S391      1.0  0.72260  0.73756  0.43423  1.0000
  Fe  Fe193     1.0  0.71500  0.76235  0.37776  1.0000
  S   S392      1.0  0.69822  0.79682  0.36492  1.0000
  S   S393      1.0  0.67977  0.72804  0.39627  1.0000
  Fe  Fe194     1.0  0.53788  0.84487  0.36278  1.0000
  S   S394      1.0  0.54338  0.87682  0.38167  1.0000
  S   S395      1.0  0.58041  0.83311  0.35481  1.0000
  S   S396      1.0  0.53645  0.95398  0.35952  1.0000
  Fe  Fe195     1.0  0.54958  0.97895  0.41370  1.0000
  S   S397      1.0  0.53100  0.96846  0.43941  1.0000
  C   C1157     1.0  0.50239  0.85266  0.44497  1.0000
  H   H1158     1.0  0.67046  0.88799  0.27399  1.0000
  S   S398      1.0  0.79509  0.70818  0.36614  1.0000
  Fe  Fe196     1.0  0.75802  0.72270  0.37881  1.0000
  H   H1159     1.0  0.51479  0.87409  0.45074  1.0000
  C   C1158     1.0  0.70195  0.93657  0.26853  1.0000
  S   S399      1.0  0.51313  0.86806  0.34811  1.0000
  C   C1159     1.0  0.89131  0.72485  0.35440  1.0000
  C   C1160     1.0  0.66480  0.80672  0.36372  1.0000
  C   C1161     1.0  0.66296  0.82190  0.34954  1.0000
  C   C1162     1.0  0.63702  0.82903  0.34720  1.0000
  C   C1163     1.0  0.61230  0.82241  0.35913  1.0000
  C   C1164     1.0  0.61409  0.80761  0.37357  1.0000
  C   C1165     1.0  0.63983  0.79934  0.37575  1.0000
  H   H1160     1.0  0.68158  0.82769  0.34004  1.0000
  H   H1161     1.0  0.63627  0.84010  0.33597  1.0000
  H   H1162     1.0  0.59538  0.80200  0.38298  1.0000
  H   H1163     1.0  0.64047  0.78756  0.38681  1.0000
  C   C1166     1.0  0.61881  0.96765  0.36327  1.0000
  S   S400      1.0  0.60174  0.98676  0.40775  1.0000
  C   C1167     1.0  0.80767  0.79621  0.46017  1.0000
  C   C1168     1.0  0.77699  0.78198  0.46795  1.0000
  C   C1169     1.0  0.75130  0.76379  0.45990  1.0000
  C   C1170     1.0  0.75588  0.75991  0.44397  1.0000
  C   C1171     1.0  0.78654  0.77428  0.43620  1.0000
  C   C1172     1.0  0.81225  0.79208  0.44429  1.0000
  H   H1164     1.0  0.72314  0.82778  0.46476  1.0000
  H   H1165     1.0  0.72770  0.75270  0.46604  1.0000
  H   H1166     1.0  0.79049  0.77145  0.42399  1.0000
  H   H1167     1.0  0.83588  0.80284  0.43818  1.0000
  H   H1168     1.0  0.75644  0.82216  0.44249  1.0000
  H   H1169     1.0  0.76237  0.80946  0.35412  1.0000
  H   H1170     1.0  0.73041  0.67722  0.34875  1.0000
  H   H1171     1.0  0.88268  0.71332  0.34380  1.0000
  H   H1172     1.0  0.94884  0.77737  0.29716  1.0000
  H   H1173     1.0  0.95186  0.73535  0.34928  1.0000
  C   C1173     1.0  0.60396  0.96681  0.37820  1.0000
  C   C1174     1.0  0.62653  0.73045  0.34897  1.0000
  H   H1174     1.0  0.57912  0.95170  0.38120  1.0000
  H   H1175     1.0  0.60470  0.95400  0.35474  1.0000
  N   N99       1.0  0.81291  0.88115  0.45818  1.0000
  H   H1176     1.0  0.98512  0.81910  0.48790  1.0000
  C   C1175     1.0  0.74435  0.86014  0.30174  1.0000
  C   C1176     1.0  0.72743  0.87620  0.30777  1.0000
  C   C1177     1.0  0.74135  0.90898  0.30676  1.0000
  C   C1178     1.0  0.77263  0.92599  0.30015  1.0000
  C   C1179     1.0  0.78959  0.90995  0.29414  1.0000
  C   C1180     1.0  0.77534  0.87723  0.29465  1.0000
  H   H1177     1.0  0.70343  0.86323  0.31325  1.0000
  H   H1178     1.0  0.72819  0.92119  0.31126  1.0000
  H   H1179     1.0  0.81380  0.92295  0.28895  1.0000
  H   H1180     1.0  0.78855  0.86527  0.28977  1.0000
  N   N100      1.0  0.62950  0.72637  0.33346  1.0000
  H   H1181     1.0  0.75264  0.68961  0.32262  1.0000
  C   C1181     1.0  0.93774  0.67781  0.37820  1.0000
  H   H1182     1.0  0.69726  0.70245  0.24692  1.0000
  H   H1183     1.0  0.67073  0.70535  0.34865  1.0000
  C   C1182     1.0  0.90765  0.73756  0.30797  1.0000
  C   C1183     1.0  0.87429  0.72329  0.30993  1.0000
  C   C1184     1.0  0.85668  0.73738  0.30274  1.0000
  C   C1185     1.0  0.87232  0.76591  0.29350  1.0000
  C   C1186     1.0  0.90562  0.78015  0.29160  1.0000
  C   C1187     1.0  0.92322  0.76604  0.29874  1.0000
  H   H1184     1.0  0.86201  0.70116  0.31696  1.0000
  H   H1185     1.0  0.83109  0.72627  0.30431  1.0000
  H   H1186     1.0  0.91796  0.80229  0.28453  1.0000
  Fe  Fe197     1.0  0.51823  0.89993  0.36750  1.0000
  H   H1187     1.0  0.86522  0.67751  0.37692  1.0000
  C   C1188     1.0  0.55857  0.99556  0.36163  1.0000
  H   H1188     1.0  0.69386  0.71299  0.32113  1.0000
  C   C1189     1.0  0.71893  0.89516  0.26872  1.0000
  Fe  Fe198     1.0  0.76506  0.99745  0.30358  1.0000
  H   H1189     1.0  0.75745  0.82779  0.33638  1.0000
  N   N101      1.0  0.75711  0.94843  0.26301  1.0000
  C   C1190     1.0  0.75012  0.91736  0.26464  1.0000
  H   H1190     1.0  0.61665  0.69412  0.31625  1.0000
  H   H1191     1.0  0.90774  0.74955  0.35063  1.0000
  S   S401      1.0  0.50224  0.94660  0.40628  1.0000
  C   C1191     1.0  0.69474  0.90491  0.27074  1.0000
  C   C1192     1.0  0.73346  0.95814  0.26460  1.0000
  H   H1192     1.0  0.80546  0.90173  0.47849  1.0000
  C   C1193     1.0  0.68343  0.68999  0.32743  1.0000
  Fe  Fe199     1.0  0.68617  0.69184  0.38287  1.0000
  H   H1193     1.0  0.77309  0.78485  0.48016  1.0000
  C   C1194     1.0  0.84726  0.89987  0.45618  1.0000
  H   H1194     1.0  0.85915  0.88600  0.46118  1.0000
  C   C1195     1.0  0.62075  0.98600  0.38910  1.0000
  C   C1196     1.0  0.60949  0.70509  0.36014  1.0000
  N   N102      1.0  0.64515  0.90601  0.36245  1.0000
  C   C1197     1.0  0.67477  0.90795  0.35837  1.0000
  C   C1198     1.0  0.62578  0.90550  0.35121  1.0000
  C   C1199     1.0  0.68598  0.91031  0.34262  1.0000
  C   C1200     1.0  0.63612  0.90767  0.33537  1.0000
  C   C1201     1.0  0.66646  0.91023  0.33108  1.0000
  C   C1202     1.0  0.63333  0.90231  0.37902  1.0000
  H   H1195     1.0  0.68984  0.90755  0.36730  1.0000
  H   H1196     1.0  0.60188  0.90281  0.35445  1.0000
  H   H1197     1.0  0.70955  0.91201  0.33944  1.0000
  H   H1198     1.0  0.62062  0.90749  0.32657  1.0000
  H   H1199     1.0  0.67467  0.91202  0.31883  1.0000
  H   H1200     1.0  0.61538  0.91176  0.38072  1.0000
  H   H1201     1.0  0.62218  0.87720  0.38343  1.0000
  H   H1202     1.0  0.65273  0.91533  0.38609  1.0000
  N   N103      1.0  0.79209  0.80927  0.33426  1.0000
  C   C1203     1.0  0.80586  0.79262  0.34172  1.0000
  C   C1204     1.0  0.80525  0.82564  0.31996  1.0000
  C   C1205     1.0  0.83407  0.79276  0.33502  1.0000
  C   C1206     1.0  0.83340  0.82624  0.31290  1.0000
  C   C1207     1.0  0.84796  0.80987  0.32056  1.0000
  C   C1208     1.0  0.76213  0.80809  0.34129  1.0000
  H   H1203     1.0  0.79498  0.77898  0.35290  1.0000
  H   H1204     1.0  0.79369  0.83789  0.31384  1.0000
  H   H1205     1.0  0.84484  0.77939  0.34091  1.0000
  H   H1206     1.0  0.84352  0.83866  0.30138  1.0000
  H   H1207     1.0  0.86964  0.80994  0.31508  1.0000
  H   H1208     1.0  0.74212  0.78615  0.33909  1.0000
  S   S402      1.0  0.72133  0.72592  0.36426  1.0000
  C   C1209     1.0  0.61431  0.69747  0.32854  1.0000
  Fe  Fe200     1.0  0.98230  0.73455  0.31333  1.0000
  H   H1209     1.0  0.76881  0.90961  0.26319  1.0000
  H   H1210     1.0  0.85412  0.92139  0.46220  1.0000
  H   H1211     1.0  0.85617  0.90698  0.44361  1.0000
  H   H1212     1.0  0.81407  0.85541  0.43895  1.0000
  H   H1213     1.0  0.63409  0.76548  0.31841  1.0000
  C   C1210     1.0  0.76689  0.84006  0.45025  1.0000
  C   C1211     1.0  0.79946  0.85907  0.44824  1.0000
  C   C1212     1.0  0.79473  0.88459  0.47043  1.0000
  C   C1213     1.0  0.74823  0.84314  0.46279  1.0000
  C   C1214     1.0  0.76218  0.86557  0.47296  1.0000
  C   C1215     1.0  0.95455  0.70171  0.36631  1.0000
  H   H1214     1.0  0.82454  0.68962  0.34126  1.0000
  H   H1215     1.0  0.63829  0.75324  0.35284  1.0000
  H   H1216     1.0  0.68338  0.94453  0.26995  1.0000
  H   H1217     1.0  0.73890  0.98272  0.26296  1.0000
  C   C1216     1.0  0.93880  0.71690  0.35858  1.0000
  H   H1218     1.0  0.87089  0.72473  0.36193  1.0000
  S   S403      1.0  0.72282  0.68841  0.39748  1.0000
  C   C1217     1.0  0.89041  0.68460  0.37398  1.0000
  C   C1218     1.0  0.67094  0.68576  0.34313  1.0000
  H   H1219     1.0  0.74805  0.86790  0.48292  1.0000
  S   S404      1.0  0.66819  0.98499  0.34015  1.0000
  C   C1219     1.0  0.78996  0.97139  0.25886  1.0000
  H   H1220     1.0  0.71370  0.87061  0.27054  1.0000
  C   C1220     1.0  0.65126  0.98630  0.35919  1.0000
  C   C1221     1.0  0.64859  0.75330  0.32210  1.0000
  H   H1221     1.0  0.60858  0.70835  0.37250  1.0000
  H   H1222     1.0  0.97967  0.70847  0.36312  1.0000
  H   H1223     1.0  0.65821  0.74632  0.31160  1.0000
  H   H1224     1.0  0.52051  0.84711  0.43854  1.0000
  H   H1225     1.0  0.80675  0.96304  0.26374  1.0000
  C   C1222     1.0  0.76087  0.67081  0.32269  1.0000
  H   H1226     1.0  0.56010  0.99170  0.38638  1.0000
  C   C1223     1.0  0.59478  0.67540  0.35531  1.0000
  H   H1227     1.0  0.78703  0.68162  0.32230  1.0000
  H   H1228     1.0  0.93689  0.67136  0.29824  1.0000
  H   H1229     1.0  0.79422  0.99346  0.26404  1.0000
  C   C1224     1.0  0.59686  0.67152  0.33939  1.0000
  Fe  Fe201     1.0  0.49438  0.84125  0.39126  1.0000
  Fe  Fe202     1.0  0.86007  0.90643  0.50290  1.0000
  S   S405      1.0  0.81626  0.86140  0.50427  1.0000
  H   H1230     1.0  0.64345  0.70883  0.61238  1.0000
  Fe  Fe203     1.0  0.90012  0.87169  0.51381  1.0000
  S   S406      1.0  0.85865  0.82463  0.51572  1.0000
  H   H1231     1.0  0.94278  0.84458  0.55362  1.0000
  Fe  Fe204     1.0  0.83116  0.84855  0.52708  1.0000
  S   S407      1.0  0.79602  0.83342  0.54914  1.0000
  S   S408      1.0  0.87305  0.89502  0.52634  1.0000
  Fe  Fe205     1.0  0.75461  0.74071  0.63450  1.0000
  S   S409      1.0  0.71127  0.74963  0.63796  1.0000
  S   S410      1.0  0.78733  0.74979  0.61185  1.0000
  Fe  Fe206     1.0  0.74338  0.70923  0.66806  1.0000
  S   S411      1.0  0.69870  0.71528  0.67396  1.0000
  C   C1225     1.0  0.90420  0.74159  0.70593  1.0000
  Fe  Fe207     1.0  0.68676  0.70078  0.65002  1.0000
  Fe  Fe208     1.0  0.72647  0.76333  0.66167  1.0000
  S   S412      1.0  0.72589  0.80738  0.67014  1.0000
  C   C1226     1.0  0.88529  0.68504  0.71034  1.0000
  S   S413      1.0  0.77215  0.75835  0.65730  1.0000
  H   H1232     1.0  0.79164  0.84163  0.68163  1.0000
  H   H1233     1.0  0.77627  0.77291  0.72005  1.0000
  C   C1227     1.0  0.78739  0.68381  0.71244  1.0000
  H   H1234     1.0  0.90282  0.68835  0.71851  1.0000
  C   C1228     1.0  0.78515  0.80527  0.69962  1.0000
  C   C1229     1.0  0.73864  0.98858  0.70321  1.0000
  C   C1230     1.0  0.78405  0.70161  0.69963  1.0000
  S   S414      1.0  0.72912  0.69078  0.64501  1.0000
  C   C1231     1.0  0.82545  0.73049  0.72195  1.0000
  C   C1232     1.0  0.82189  0.74833  0.70923  1.0000
  C   C1233     1.0  0.80136  0.73392  0.69807  1.0000
  H   H1235     1.0  0.82262  0.67274  0.68146  1.0000
  H   H1236     1.0  0.83550  0.77332  0.70786  1.0000
  H   H1237     1.0  0.79955  0.74760  0.68801  1.0000
  C   C1234     1.0  0.71401  0.80823  0.69001  1.0000
  C   C1235     1.0  0.70818  0.78329  0.70118  1.0000
  C   C1236     1.0  0.70253  0.78595  0.71715  1.0000
  C   C1237     1.0  0.70233  0.81341  0.72212  1.0000
  C   C1238     1.0  0.70695  0.83800  0.71093  1.0000
  C   C1239     1.0  0.71290  0.83542  0.69492  1.0000
  H   H1238     1.0  0.70906  0.76229  0.69758  1.0000
  H   H1239     1.0  0.81054  0.68423  0.73334  1.0000
  H   H1240     1.0  0.70675  0.85924  0.71460  1.0000
  H   H1241     1.0  0.71728  0.85479  0.68633  1.0000
  H   H1242     1.0  0.83993  0.85704  0.59012  1.0000
  C   C1240     1.0  0.72086  0.97011  0.71698  1.0000
  C   C1241     1.0  0.77979  0.79618  0.71569  1.0000
  S   S415      1.0  0.94786  0.87897  0.52241  1.0000
  C   C1242     1.0  0.96820  0.84476  0.50296  1.0000
  H   H1243     1.0  0.72753  0.95306  0.72256  1.0000
  H   H1244     1.0  0.78838  0.87763  0.70044  1.0000
  C   C1243     1.0  0.97416  0.86305  0.51547  1.0000
  H   H1245     1.0  0.69899  0.76684  0.72573  1.0000
  C   C1244     1.0  0.91975  0.82410  0.55712  1.0000
  C   C1245     1.0  0.79284  0.80869  0.56614  1.0000
  C   C1246     1.0  0.77396  0.80875  0.57960  1.0000
  C   C1247     1.0  0.77166  0.79055  0.59362  1.0000
  C   C1248     1.0  0.78806  0.77185  0.59427  1.0000
  C   C1249     1.0  0.80626  0.77111  0.58070  1.0000
  C   C1250     1.0  0.80881  0.78956  0.56671  1.0000
  H   H1246     1.0  0.76143  0.82339  0.57925  1.0000
  H   H1247     1.0  0.75759  0.79139  0.60396  1.0000
  H   H1248     1.0  0.81882  0.75650  0.58106  1.0000
  H   H1249     1.0  0.82316  0.78906  0.55641  1.0000
  C   C1251     1.0  0.86877  0.86417  0.56830  1.0000
  C   C1252     1.0  0.86135  0.70590  0.69226  1.0000
  N   N104      1.0  0.88286  0.71010  0.70288  1.0000
  C   C1253     1.0  0.80809  0.69817  0.72355  1.0000
  H   H1250     1.0  0.76207  0.87718  0.72758  1.0000
  C   C1254     1.0  0.97017  0.72840  0.71964  1.0000
  H   H1251     1.0  0.85627  0.81791  0.60215  1.0000
  H   H1252     1.0  0.78527  0.78904  0.69138  1.0000
  C   C1255     1.0  0.85914  0.98697  0.51532  1.0000
  H   H1253     1.0  0.92740  0.74921  0.69882  1.0000
  S   S416      1.0  0.76039  0.68260  0.68509  1.0000
  C   C1256     1.0  0.85702  0.85104  0.58366  1.0000
  C   C1257     1.0  0.78882  0.83492  0.69414  1.0000
  N   N105      1.0  0.78091  0.84581  0.72056  1.0000
  H   H1254     1.0  0.86305  0.97010  0.52285  1.0000
  C   C1258     1.0  0.69454  0.97383  0.72347  1.0000
  H   H1255     1.0  0.89394  0.75843  0.70329  1.0000
  S   S417      1.0  0.85262  0.74936  0.73523  1.0000
  C   C1259     1.0  0.70889  0.70017  0.60360  1.0000
  H   H1256     1.0  0.72503  0.72444  0.60063  1.0000
  H   H1257     1.0  0.95549  0.73693  0.72623  1.0000
  S   S418      1.0  0.63727  0.67199  0.64337  1.0000
  N   N106      1.0  0.89830  0.83335  0.56648  1.0000
  C   C1260     1.0  0.78666  0.85504  0.70483  1.0000
  C   C1261     1.0  0.88689  0.82031  0.58156  1.0000
  C   C1262     1.0  0.97046  0.70006  0.72484  1.0000
  Fe  Fe209     1.0  0.84724  0.84154  0.49273  1.0000
  C   C1263     1.0  0.86622  0.82908  0.59039  1.0000
  H   H1258     1.0  0.85943  0.72571  0.68629  1.0000
  C   C1264     1.0  0.66424  0.71455  0.60360  1.0000
  H   H1259     1.0  0.92447  0.80576  0.56355  1.0000
  C   C1265     1.0  0.88966  0.85513  0.55987  1.0000
  H   H1260     1.0  0.75908  0.98573  0.69829  1.0000
  H   H1261     1.0  0.89866  0.86527  0.54792  1.0000
  H   H1262     1.0  0.89320  0.80262  0.58677  1.0000
  H   H1263     1.0  0.86091  0.88048  0.56278  1.0000
  H   H1264     1.0  0.90940  0.81506  0.54623  1.0000
  H   H1265     1.0  0.68201  0.73803  0.60562  1.0000
  C   C1266     1.0  0.85550  0.98253  0.49955  1.0000
  H   H1266     1.0  0.90782  0.74229  0.71855  1.0000
  H   H1267     1.0  0.94687  0.83967  0.49731  1.0000
  H   H1268     1.0  0.65715  0.71553  0.59162  1.0000
  C   C1267     1.0  0.72130  0.67827  0.60585  1.0000
  N   N107      1.0  0.67690  0.69122  0.60552  1.0000
  C   C1268     1.0  0.77772  0.81689  0.72607  1.0000
  C   C1269     1.0  0.77854  0.86741  0.73145  1.0000
  H   H1269     1.0  0.66585  0.99912  0.72107  1.0000
  H   H1270     1.0  0.74677  0.68575  0.60480  1.0000
  C   C1270     1.0  0.98908  0.74581  0.70590  1.0000
  S   S419      1.0  0.85741  0.94993  0.49119  1.0000
  H   H1271     1.0  0.77250  0.80927  0.73850  1.0000
  C   C1271     1.0  0.84057  0.67593  0.68940  1.0000
  C   C1272     1.0  0.99034  0.68968  0.71640  1.0000
  H   H1272     1.0  0.80222  0.88661  0.73206  1.0000
  C   C1273     1.0  0.98996  0.83308  0.49765  1.0000
  H   H1273     1.0  0.98873  0.76770  0.70191  1.0000
  C   C1274     1.0  0.68617  0.99610  0.71612  1.0000
  S   S420      1.0  0.89080  0.88725  0.49029  1.0000
  Fe  Fe210     1.0  0.79922  0.92168  0.90372  1.0000
  S   S421      1.0  0.75181  0.88307  0.90126  1.0000
  S   S422      1.0  0.84538  0.91680  0.90180  1.0000
  Fe  Fe211     1.0  0.77206  0.96786  0.91059  1.0000
  S   S423      1.0  0.72254  0.93270  0.90870  1.0000
  C   C1275     1.0  0.60436  0.91560  0.79123  1.0000
  Fe  Fe212     1.0  0.73526  0.89913  0.92268  1.0000
  S   S424      1.0  0.69982  0.86431  0.94170  1.0000
  Fe  Fe213     1.0  0.74330  0.92003  0.88736  1.0000
  S   S425      1.0  0.71312  0.90990  0.86705  1.0000
  S   S426      1.0  0.78331  0.93508  0.92622  1.0000
  S   S427      1.0  0.79213  0.95790  0.88821  1.0000
  Fe  Fe214     1.0  0.92416  0.74183  0.92612  1.0000
  S   S428      1.0  0.93064  0.79135  0.92619  1.0000
  S   S429      1.0  0.93156  0.71486  0.94694  1.0000
  Fe  Fe215     1.0  0.91416  0.74054  0.89112  1.0000
  S   S430      1.0  0.92027  0.78991  0.88854  1.0000
  S   S431      1.0  0.90154  0.70865  0.87181  1.0000
  Fe  Fe216     1.0  0.96052  0.79919  0.90328  1.0000
  Fe  Fe217     1.0  0.88987  0.77727  0.91151  1.0000
  S   S432      1.0  0.84534  0.78458  0.91529  1.0000
  S   S433      1.0  0.95686  0.75066  0.90406  1.0000
  S   S434      1.0  0.88101  0.72691  0.91325  1.0000
  H   H1274     1.0  0.81953  0.73577  0.82775  1.0000
  Fe  Fe218     1.0  0.71985  0.90077  0.77829  1.0000
  S   S435      1.0  0.68941  0.84969  0.77993  1.0000
  S   S436      1.0  0.75815  0.91788  0.79469  1.0000
  H   H1275     1.0  0.93449  0.68556  0.97655  1.0000
  Fe  Fe219     1.0  0.64852  0.86240  0.77996  1.0000
  S   S437      1.0  0.61009  0.84098  0.80020  1.0000
  Fe  Fe220     1.0  0.69221  0.85557  0.75368  1.0000
  S   S438      1.0  0.67893  0.91339  0.77971  1.0000
  S   S439      1.0  0.72664  0.90619  0.75183  1.0000
  Fe  Fe221     1.0  0.91198  0.69099  0.75538  1.0000
  S   S440      1.0  0.92566  0.75994  0.80005  1.0000
  C   C1276     1.0  0.85887  0.79025  0.84236  1.0000
  S   S441      1.0  0.91863  0.74028  0.75601  1.0000
  H   H1276     1.0  0.65847  0.90532  0.96342  1.0000
  C   C1277     1.0  0.52931  0.80111  0.77938  1.0000
  C   C1278     1.0  0.56153  0.81588  0.78168  1.0000
  C   C1279     1.0  0.57033  0.82030  0.79683  1.0000
  C   C1280     1.0  0.54691  0.80940  0.80965  1.0000
  H   H1277     1.0  0.52790  0.86142  0.79647  1.0000
  H   H1278     1.0  0.52254  0.79794  0.76764  1.0000
  H   H1279     1.0  0.57949  0.82413  0.77175  1.0000
  S   S442      1.0  0.90075  0.67942  0.78156  1.0000
  H   H1280     1.0  0.68084  0.91752  0.94466  1.0000
  C   C1281     1.0  0.90691  0.72343  0.85200  1.0000
  N   N108      1.0  0.84969  0.75881  0.84462  1.0000
  H   H1281     1.0  0.72652  0.85503  0.80793  1.0000
  C   C1282     1.0  0.91775  0.74538  0.81996  1.0000
  C   C1283     1.0  0.92705  0.76632  0.83138  1.0000
  C   C1284     1.0  0.92159  0.75541  0.84736  1.0000
  C   C1285     1.0  0.85709  0.79294  0.87027  1.0000
  H   H1282     1.0  0.57244  0.89038  0.81174  1.0000
  H   H1283     1.0  0.93873  0.79108  0.82781  1.0000
  H   H1284     1.0  0.92920  0.77172  0.85604  1.0000
  C   C1286     1.0  0.91063  0.71036  0.96552  1.0000
  C   C1287     1.0  0.88761  0.72167  0.96778  1.0000
  C   C1288     1.0  0.72572  0.96786  0.98508  1.0000
  H   H1285     1.0  0.88275  0.73404  0.95809  1.0000
  C   C1289     1.0  0.72710  0.91457  0.84696  1.0000
  C   C1290     1.0  0.70517  0.90894  0.83589  1.0000
  C   C1291     1.0  0.71451  0.91005  0.81989  1.0000
  C   C1292     1.0  0.74608  0.91742  0.81472  1.0000
  C   C1293     1.0  0.76817  0.92346  0.82576  1.0000
  C   C1294     1.0  0.75872  0.92191  0.84184  1.0000
  H   H1286     1.0  0.68068  0.90322  0.83973  1.0000
  H   H1287     1.0  0.69721  0.90516  0.81158  1.0000
  H   H1288     1.0  0.79265  0.92918  0.82186  1.0000
  H   H1289     1.0  0.77584  0.92628  0.85025  1.0000
  C   C1295     1.0  0.70190  0.87100  0.96159  1.0000
  C   C1296     1.0  0.67586  0.85299  0.97259  1.0000
  H   H1290     1.0  0.96130  0.69695  0.84906  1.0000
  C   C1297     1.0  0.72868  0.89423  0.96657  1.0000
  H   H1291     1.0  0.65519  0.83486  0.96878  1.0000
  C   C1298     1.0  0.52924  0.76496  0.97087  1.0000
  H   H1292     1.0  0.74890  0.90817  0.95824  1.0000
  S   S443      1.0  0.85174  0.71297  0.77864  1.0000
  C   C1299     1.0  0.84491  0.87953  0.90388  1.0000
  C   C1300     1.0  0.87372  0.87679  0.90288  1.0000
  C   C1301     1.0  0.87421  0.84761  0.90594  1.0000
  C   C1302     1.0  0.84581  0.82110  0.91006  1.0000
  C   C1303     1.0  0.81699  0.82370  0.91060  1.0000
  C   C1304     1.0  0.81652  0.85282  0.90752  1.0000
  H   H1293     1.0  0.89576  0.89742  0.90006  1.0000
  H   H1294     1.0  0.89655  0.84578  0.90547  1.0000
  H   H1295     1.0  0.79497  0.80318  0.91369  1.0000
  H   H1296     1.0  0.79424  0.85465  0.90832  1.0000
  H   H1297     1.0  0.68511  0.84276  0.86608  1.0000
  H   H1298     1.0  0.88575  0.67772  0.84414  1.0000
  H   H1299     1.0  0.62417  0.92787  0.79776  1.0000
  H   H1300     1.0  0.55361  0.81275  0.82140  1.0000
  C   C1305     1.0  0.55904  0.78899  0.97171  1.0000
  Fe  Fe222     1.0  0.68243  0.91439  0.75350  1.0000
  H   H1301     1.0  0.77569  0.00212  0.95184  1.0000
  H   H1302     1.0  0.63088  0.93581  0.76884  1.0000
  H   H1303     1.0  0.85994  0.80622  0.88029  1.0000
  H   H1304     1.0  0.70749  0.81326  0.80840  1.0000
  H   H1305     1.0  0.61781  0.82298  0.83217  1.0000
  C   C1306     1.0  0.57700  0.78675  0.98360  1.0000
  H   H1306     1.0  0.72527  0.84362  0.84562  1.0000
  H   H1307     1.0  0.84377  0.74929  0.88426  1.0000
  H   H1308     1.0  0.83752  0.71923  0.86130  1.0000
  C   C1307     1.0  0.84794  0.76092  0.87249  1.0000
  H   H1309     1.0  0.74991  0.91785  0.98619  1.0000
  N   N109      1.0  0.80030  0.85328  0.94597  1.0000
  C   C1308     1.0  0.82479  0.88213  0.94232  1.0000
  C   C1309     1.0  0.80623  0.82776  0.94913  1.0000
  C   C1310     1.0  0.85618  0.88586  0.94127  1.0000
  C   C1311     1.0  0.83735  0.83064  0.94814  1.0000
  C   C1312     1.0  0.86243  0.85989  0.94412  1.0000
  C   C1313     1.0  0.76757  0.84989  0.94697  1.0000
  H   H1310     1.0  0.82021  0.90235  0.93962  1.0000
  H   H1311     1.0  0.78687  0.80486  0.95199  1.0000
  H   H1312     1.0  0.87539  0.90859  0.93760  1.0000
  H   H1313     1.0  0.84194  0.81015  0.94991  1.0000
  H   H1314     1.0  0.88660  0.86227  0.94277  1.0000
  H   H1315     1.0  0.75085  0.82633  0.94447  1.0000
  H   H1316     1.0  0.76028  0.85408  0.95884  1.0000
  H   H1317     1.0  0.76502  0.86661  0.93819  1.0000
  N   N110      1.0  0.69375  0.83203  0.82786  1.0000
  C   C1314     1.0  0.66414  0.82677  0.82406  1.0000
  C   C1315     1.0  0.70137  0.83777  0.84275  1.0000
  C   C1316     1.0  0.64108  0.82667  0.83536  1.0000
  C   C1317     1.0  0.67874  0.83741  0.85439  1.0000
  C   C1318     1.0  0.64850  0.83203  0.85062  1.0000
  C   C1319     1.0  0.71771  0.83289  0.81566  1.0000
  H   H1318     1.0  0.65824  0.82302  0.81218  1.0000
  H   H1319     1.0  0.60346  0.89439  0.74557  1.0000
  C   C1320     1.0  0.51473  0.79456  0.80736  1.0000
  C   C1321     1.0  0.69945  0.94806  0.97817  1.0000
  C   C1322     1.0  0.84354  0.74069  0.83110  1.0000
  H   H1320     1.0  0.56781  0.80962  0.96339  1.0000
  H   H1321     1.0  0.86312  0.80191  0.83061  1.0000
  H   H1322     1.0  0.73834  0.83143  0.82067  1.0000
  C   C1323     1.0  0.90251  0.71342  0.82462  1.0000
  C   C1324     1.0  0.57530  0.89468  0.79907  1.0000
  H   H1323     1.0  0.87010  0.83276  0.85335  1.0000
  C   C1325     1.0  0.67613  0.85888  0.98840  1.0000
  Fe  Fe223     1.0  0.86680  0.72117  0.75277  1.0000
  C   C1326     1.0  0.72921  0.89966  0.98242  1.0000
  C   C1327     1.0  0.51767  0.73903  0.98205  1.0000
  H   H1324     1.0  0.85247  0.72509  0.98425  1.0000
  H   H1325     1.0  0.89503  0.69716  0.81590  1.0000
  C   C1328     1.0  0.55034  0.87839  0.79050  1.0000
  N   N111      1.0  0.58368  0.90333  0.76654  1.0000
  C   C1329     1.0  0.86281  0.80781  0.85514  1.0000
  Fe  Fe224     1.0  0.90292  0.72737  0.78182  1.0000
  N   N112      1.0  0.70095  0.94723  0.96228  1.0000
  C   C1330     1.0  0.89720  0.70250  0.84060  1.0000
  C   C1331     1.0  0.50588  0.79061  0.79221  1.0000
  C   C1332     1.0  0.67334  0.92622  0.95518  1.0000
  H   H1326     1.0  0.63113  0.83279  0.85942  1.0000
  S   S444      1.0  0.64818  0.86393  0.75386  1.0000
  C   C1333     1.0  0.72776  0.96667  0.95288  1.0000
  C   C1334     1.0  0.58901  0.90675  0.74940  1.0000
  C   C1335     1.0  0.55508  0.88272  0.77414  1.0000
  H   H1327     1.0  0.65888  0.93858  0.95171  1.0000
  C   C1336     1.0  0.87049  0.71657  0.98261  1.0000
  C   C1337     1.0  0.91666  0.69430  0.97821  1.0000
  H   H1328     1.0  0.97848  0.72953  0.87079  1.0000
  H   H1329     1.0  0.49409  0.72089  0.98156  1.0000
  C   C1338     1.0  0.60811  0.91976  0.77486  1.0000
  H   H1330     1.0  0.86126  0.75355  0.82086  1.0000
  C   C1339     1.0  0.84436  0.74409  0.85945  1.0000
  H   H1331     1.0  0.60221  0.93171  0.74483  1.0000
  H   H1332     1.0  0.53593  0.86890  0.76761  1.0000
  H   H1333     1.0  0.72879  0.96642  0.94026  1.0000
  H   H1334     1.0  0.84508  0.71821  0.83366  1.0000
  H   H1335     1.0  0.49680  0.78649  0.81731  1.0000
  H   H1336     1.0  0.56646  0.89732  0.74397  1.0000
  C   C1340     1.0  0.98547  0.74041  0.85882  1.0000
  H   H1337     1.0  0.98369  0.78193  0.95917  1.0000
  H   H1338     1.0  0.51457  0.76696  0.96202  1.0000
  H   H1339     1.0  0.67833  0.93249  0.98569  1.0000
  C   C1341     1.0  0.75439  0.98694  0.95938  1.0000
  H   H1340     1.0  0.77401  0.00268  0.98080  1.0000
  S   S445      1.0  0.86094  0.67231  0.75064  1.0000
  C   C1342     1.0  0.75337  0.98737  0.97560  1.0000
  C   C1343     1.0  0.97567  0.72180  0.84656  1.0000
  H   H1341     1.0  0.97455  0.72171  0.82154  1.0000
  C   C1344     1.0  0.98299  0.73570  0.83115  1.0000
  H   H1342     1.0  0.59988  0.80559  0.98460  1.0000
  H   H1343     1.0  0.76862  0.85550  0.74343  1.0000
  S   S446      1.0  0.69961  0.81695  0.74243  1.0000
  H   H1344     1.0  0.98730  0.77739  0.93858  1.0000
  S   S447      1.0  0.94606  0.67682  0.74166  1.0000
  S   S448      1.0  0.67167  0.95152  0.74082  1.0000
