data_image0
_chemical_formula_structural       CHCFeS2FeS2FeSFeS3FeS2FeS2FeSFeS3HFeSH2SCFeS2FeS2FeS2FeSFeS3FeS2FeS2FeSFeS3C3H2C6H4C4NH2C7H4C3H2CSC8H4C6H4C6H6CHCHC4HC5H4CHCHC2H2C4H2CH2CHC5HC4H2CNC6H10CH8C2HCNHCHC4H2C3HCNC3HNC2HC2H4C3HCHCH3NH7C2HCSNH5C3NCSH2NCH3C4HCHCSHCHCH4CSCHFeS2FeS3CS2FeSFeSHSHCFeS2FeS2Fe2S3FeS2FeS2FeHFeS3CHNC7H4C6H4C6H2C7H4SC2HFeC4HC4FeCSH4C6H4C2HC3H2CH3CH3NH5NH2C2H7SNC6H7FeH2C2SCHNHC3HC2FeSCH2C2HCNC2H2CH4C2H2C3H2SH2SHCHNC2FeH4CH7CH3FeHFeSCFeSHCSFeS2FeS2FeSFeS3FeS2FeS2FeSFeS3FeSHFeS2FeSFeS3C7HSH2CH2CSC3H3C6H4C6H4CHSHC2H2CNC2HC3H3C6H4CHSCHN2HCHSCH6C2HC2HFeHCNHC2HC3HC5H2NHC4NC6HC2H3CH6CHCH6C2HC3HCHNH4C2H3CNH3C2H4CSCHCH2CHC4HCH4CH2CH2CH3SH3SFeHCH3CHSHC2HSC4SHSHCNCHCH3CHNHCHCH2FeH2NC2HFeH2C2FeHC3HC2H2CHCH2CSCH4FeS3HFe2HS2CHCHCHC4HNCHCSHFeC2HCHS2HCHCFeSH4C3HCH2FeH4C7SH2N2CH2CNHCH4C3H2CFeS2FeSFeSFeSHSFeSHFeS2C2FeHS2FeS2FeS2FeSFeS3FeS2FeSHFeSFeS3C2SHNCHC2HCNHCH2C2HC3H2C3H2C6H4C6H7C4SH3CNHCHC6H4C7H4C2NH3C2HC2H2C4SCNCHC3H3SHC3HC3HC2NC6H9SCHCH3CHCH4C2HNSH2CHCHSCH7NHCFeSH2FeHC2HCH6FeS2HFeS2CFeS2FeSCFeSFeS3FeS2FeS2FeSFeS3FeS2FeS2FeHFeS3CH4C2NHCH2C6H3CH2C6H6C3HCHC3HC2H6C7H5C6H4C4H2C2NCHC4SH5CH2C2H2CHCH3NSCHCH5CHCNC6H8C2HC2HC4H2FeCH6NC6HNH3SHCHC5H2SHNCHC2H2NC2H2CH2CSC5NC4H3CH3CHC2FeS2HFeH2SFeS2FeS2FeSFeS3FeS2FeS2FeSFeS3HSHFeSHFeSFeSFeSFeS2FeS2FeSFeS3C9H2CHCHC4H6C4H2C6H4SC2H4C6H4C3H2C6H4C6H8C6NCH2CHNC6H3CHC2HCH2CHC3HCH2CH2CH2SCSHCH4N2HNH2C3H2SHC4H3CHCH2SHN2CHCHC3NC6H3CHCH3CHCH2C2H4NHCH2CNCHCH2FeHC2H2CHC3HC3SCH7NCH2CFeS2FeS2FeSFeS3FeHCFeS2FeHFeCS2H2CHSCHCH3SC2HCHC2SH5CH4CHC6H5CHCH3CH4CHNH3CNH3C3HCH2C3HC2H3CHCH2CH2FeSCHSHFeNFeSCSFeS2FeS2Fe2S3FeS2FeSCFeSFeS3FeS2FeS2FeSFeS3C6H4C6H5C5H2C8H4C4H2CHC2NH3CSCH5CSCH3C3HC2HCH4CH3C2H4C3NC2SCH2C3HCHCNC6H8CHCH2NH2CH2CH4C2HC2H2SHC3NHSC3HCFeC2HNC5H3CHC2H2C2NC2H4CH3C2HSC2FeHFeS2HS3HCHFeS2FeS3CH3NH2NFeSFeSCFeS2FeSFeSCFeSFeS3FeSCFeS2FeSFeS3FeS2FeS2FeHFeS3C7H4FeC9H2C3H2C6H4C6H4C2HCHC3FeHCH3C6H3C7H2CHCHC3H4SHCHSHC2HC2H2CHC2H3C2HC2H8FeCN2CHCFe2HC3SCH5NCH2SC3H2CHC2SNC4SHCH3C2H3C2H5C3HSH2SH5C3H3CSH2CHC2H7CFeCNHSHCH3SHCSHCHNCH2CHCHC4HFeSHFeS2FeSFeS3FeSCFeS2HFeS2FeS2FeS2FeCFeS3FeS2FeS2FeSFeSFeS2FeS2FeHFeS3FeS2FeSHFeSFeSHC7H7C7H4C6H4C6H3CHC4H5C6H4C6H4C2H8CHNC3HNHC2H6CSH3CHCH2NC7HCNHC2SH2CHC4HC2HCSH2C2NC6H8FeCH2SNC6H7CHCNHSC4NSCH2NC2HC2HCHCH3CH2CHC7SHCHCH7CNC3H2SC2H2CH2SH2SHSC2HCNH2CH2NCH3CH2CNHCH2C4HCH4FeS2FeSCFeSFeS3FeCSFeS2FeSHCS2FeSHFeS2Fe3S3FeCHFeS2FeCFeCS2C3H2C6HSH2C6H5C7H4C6H4SC6SC2H6CH3CH2CHC2HC2HCH3CSH3C2H2CHCH3NCHC2NCH3NCSCHNC6H12CSHCH5CFeH2FeSHS2FeCFeS2FeH2S2CHCH2CS4HCSC3H2C2HC4H3SHSC3H3CHCHCHCH2CSHC2HFeHCH2FeCHCNC2H4C4NH6CNCH2CHCHCHSH5FeS2FeHS2FeS2FeS2Fe2S3FeS2FeS2FeSFeS3FeSHFeS2FeSFeS3FeSHFeS2FeSFeS3HCH3C6H3C2HC6H4C6H4C6H2C2H2C2SCHC7H2CHCSH3C3H2C3H2CHFeN2CHNHC3H3C2H2CHNH2NC6H8NH2C2HC2HC3H4C2HSNC4HCNC2H4C2H2C2H3CH2NH2CHCHC2HC2HC3NH2C2H3C3H2CHNCH3C2FeCH3C4H2CH3SHCHCNC2HC2HC2H3CHCHCH3CH3C2SH4C3HC2SCSCH3FeSHCFeSCSC2SHFeSHCH2C2FeS2FeS2FeSFeS3FeS2FeS2FeSFeS3C2H3CHCH2C2HCHCH4C4H4C7H4C6H3SC6H4C4HCH2CHC2HC8H8CNH2NCHFeC2HC3HCSH2NH4CSCSC2HCNHC3H2CH2C3SH3CSH2C3NC2HSHCHS2CH3C9HNC6H9NCHCH2FeHNCHC2H2FeS2H2NHSH4CNH4CSC3FeCSHCH2CFeS2HSHFeS3H2C2FeS2FeS2FeSFeS3FeS2FeSHFeSFeS3HFeS2FeSHFeSFeS3CH2CHCHC6H4C8H4C6H4CH2CHCH2C7H4C3H5C2FeSH3C8H4C2HCHC3NH3CHCH2CHCH4CH2NHCH2C2HNCH2SHSHC2HC5NC2H2CHCN2C3HCNH2C2H3CH3FeCHCH3NCH2CH4C3HCH4C2HCH2CSHFeSHFeCFeSHSC3HC6H3SC3SCH2FeC2HCH2NH3NHCH2C6HSHCNC2H3CHSC3NH5CHC2NCH2C2HNH4C3HCS2CHCH3CHSC5HCFeHSFeSCFeSHSC2HC2HCHCHC4H2C3H4CH2SH2C2HFeCHC2NCH2CHC2NSC2HCNH5CH2CH2C2HC2H7FeS3C2FeCS2C2SFeS2FeS2FeSFeS3FeS2FeS2FeHFeS3NSH4CHCHC2H3C3H2SC6HCH2C6H4C6H5FeC2HCFeH2CFeCHSH7C5HC2HCHCHC2HNCHCHCNH2CH7C3HC4SNCH2C2NCFeHCH2NC6H7SC4HCFeC2HSH4CHC2H3C2H2C3H6SH4CHCHCHCHFeSHC2HCFeSHFeSFeSFeS3FeS2FeSFe2SFeS3HFeS2FeH2SHC2FeS2FeSFeSFeS3HC2HC5SCH4C2HSHCH5CSHCSC6H4SCHC8H6CNC6H4C4HSH3NHC3H3CHCHCHCHSCH2C2HCH2CSHFeC8HCH2NC6H8NHCH3NHC4HCNHC2SHC2HC3NHCSHC2HCH4CFeH2NCHC4SCHC2HC2H4C3H2CHC4HCHCHCNHC2SC2HFeHNFeS2FeSFeS2FeS2FeS2FeSFeS3FeS2FeS2FeSFeS3NCSCFeS2FeS2FeSFeS3FeS2FeS2FeSFeS3C6H4C6H4C5H4C6H4C2HC6H4C6H5C2H5C9H4C2HC3HCH3C2HC6SH2C2NC6H8NC6H8CSHSHC5H2C2HCH5SC2H3C4H2NH2CH2CHCHC4SH2CHCNC2HCH2NH2CNCH6CHNCHCHCH2CHC4H5C2H2C2H2CH5CHCH2CHC3H
_chemical_formula_sum              "C1920 H1920 Fe320 S640 N160"
_cell_length_a       57.9307
_cell_length_b       58.0793
_cell_length_c       103.74
_cell_angle_alpha    78.4642
_cell_angle_beta     78.6336
_cell_angle_gamma    78.8062

_space_group_name_H-M_alt    "P 1"
_space_group_IT_number       1

loop_
  _space_group_symop_operation_xyz
  'x, y, z'

loop_
  _atom_site_type_symbol
  _atom_site_label
  _atom_site_symmetry_multiplicity
  _atom_site_fract_x
  _atom_site_fract_y
  _atom_site_fract_z
  _atom_site_occupancy
  C   C1        1.0  0.29446  0.44184  0.10167  1.0000
  H   H1        1.0  0.14206  0.41670  0.04064  1.0000
  C   C2        1.0  0.26192  0.05124  0.17318  1.0000
  Fe  Fe1       1.0  0.18543  0.18016  0.10798  1.0000
  S   S1        1.0  0.21879  0.18322  0.09298  1.0000
  S   S2        1.0  0.14957  0.18952  0.10091  1.0000
  Fe  Fe2       1.0  0.21284  0.16662  0.13176  1.0000
  S   S3        1.0  0.24792  0.16938  0.11822  1.0000
  S   S4        1.0  0.21780  0.15750  0.15349  1.0000
  Fe  Fe3       1.0  0.22868  0.20281  0.10731  1.0000
  S   S5        1.0  0.24533  0.23654  0.09999  1.0000
  Fe  Fe4       1.0  0.23440  0.14974  0.10550  1.0000
  S   S6        1.0  0.25303  0.11476  0.09938  1.0000
  S   S7        1.0  0.19447  0.20159  0.12171  1.0000
  S   S8        1.0  0.20019  0.14517  0.11961  1.0000
  Fe  Fe5       1.0  0.25135  0.40534  0.10957  1.0000
  S   S9        1.0  0.22045  0.43443  0.11333  1.0000
  S   S10       1.0  0.28799  0.41410  0.10025  1.0000
  Fe  Fe6       1.0  0.22208  0.36538  0.12164  1.0000
  S   S11       1.0  0.18936  0.39194  0.12673  1.0000
  S   S12       1.0  0.21588  0.32701  0.12887  1.0000
  Fe  Fe7       1.0  0.19976  0.41177  0.10617  1.0000
  S   S13       1.0  0.17176  0.42816  0.09309  1.0000
  Fe  Fe8       1.0  0.21323  0.41184  0.13346  1.0000
  S   S14       1.0  0.20306  0.42489  0.15341  1.0000
  S   S15       1.0  0.23138  0.38433  0.10065  1.0000
  S   S16       1.0  0.24524  0.38363  0.13009  1.0000
  H   H2        1.0  0.26111  0.39891  0.15225  1.0000
  Fe  Fe9       1.0  0.26676  0.01480  0.21233  1.0000
  S   S17       1.0  0.23561  0.00429  0.20656  1.0000
  H   H3        1.0  0.15331  0.06456  0.03292  1.0000
  H   H4        1.0  0.25116  0.19224  0.14344  1.0000
  S   S18       1.0  0.17199  0.05501  0.98081  1.0000
  C   C3        1.0  0.28850  0.43754  0.16141  1.0000
  Fe  Fe10      1.0  0.21818  0.04200  0.20820  1.0000
  S   S19       1.0  0.19742  0.06055  0.19157  1.0000
  S   S20       1.0  0.25011  0.05325  0.21297  1.0000
  Fe  Fe11      1.0  0.10638  0.16318  0.03856  1.0000
  S   S21       1.0  0.11729  0.19128  0.02146  1.0000
  S   S22       1.0  0.13438  0.14715  0.05173  1.0000
  Fe  Fe12      1.0  0.06084  0.16125  0.02770  1.0000
  S   S23       1.0  0.06946  0.18859  0.00961  1.0000
  S   S24       1.0  0.02655  0.14529  0.03289  1.0000
  Fe  Fe13      1.0  0.10725  0.16880  0.00876  1.0000
  S   S25       1.0  0.13469  0.16159  0.99054  1.0000
  Fe  Fe14      1.0  0.07875  0.20790  0.02414  1.0000
  S   S26       1.0  0.06210  0.24588  0.02602  1.0000
  S   S27       1.0  0.09793  0.13989  0.02577  1.0000
  S   S28       1.0  0.06844  0.18148  0.04237  1.0000
  Fe  Fe15      1.0  0.11037  0.41115  0.01814  1.0000
  S   S29       1.0  0.09084  0.40799  0.03939  1.0000
  S   S30       1.0  0.11829  0.44784  0.00787  1.0000
  Fe  Fe16      1.0  0.11414  0.35818  0.01798  1.0000
  S   S31       1.0  0.09616  0.35130  0.03912  1.0000
  S   S32       1.0  0.12658  0.32666  0.00731  1.0000
  Fe  Fe17      1.0  0.07002  0.38399  0.03319  1.0000
  S   S33       1.0  0.03135  0.37827  0.04021  1.0000
  Fe  Fe18      1.0  0.11861  0.37565  0.04306  1.0000
  S   S34       1.0  0.14109  0.36294  0.05944  1.0000
  S   S35       1.0  0.08724  0.38982  0.01168  1.0000
  S   S36       1.0  0.13899  0.37993  0.02222  1.0000
  C   C4        1.0  0.27836  0.45721  0.10927  1.0000
  C   C5        1.0  0.00872  0.38524  0.03012  1.0000
  C   C6        1.0  0.01037  0.40178  0.01830  1.0000
  H   H5        1.0  0.01791  0.35332  0.00961  1.0000
  H   H6        1.0  0.02587  0.41060  0.01509  1.0000
  C   C7        1.0  0.08075  0.26768  0.02115  1.0000
  C   C8        1.0  0.07222  0.29032  0.02455  1.0000
  C   C9        1.0  0.08633  0.30839  0.02047  1.0000
  C   C10       1.0  0.10907  0.30391  0.01295  1.0000
  C   C11       1.0  0.11763  0.28125  0.00955  1.0000
  C   C12       1.0  0.10354  0.26309  0.01371  1.0000
  H   H7        1.0  0.05461  0.29397  0.03033  1.0000
  H   H8        1.0  0.07929  0.32596  0.02283  1.0000
  H   H9        1.0  0.13514  0.27776  0.00363  1.0000
  H   H10       1.0  0.11016  0.24572  0.01093  1.0000
  C   C13       1.0  0.18630  0.09489  0.00722  1.0000
  C   C14       1.0  0.00293  0.15393  0.02345  1.0000
  C   C15       1.0  0.00393  0.17161  0.01210  1.0000
  C   C16       1.0  0.19417  0.46341  0.99041  1.0000
  N   N1        1.0  0.27371  0.42133  0.16236  1.0000
  H   H11       1.0  0.02001  0.17932  0.00838  1.0000
  H   H12       1.0  0.26195  0.45183  0.11485  1.0000
  C   C17       1.0  0.03460  0.34630  0.00380  1.0000
  C   C18       1.0  0.16480  0.41104  0.08255  1.0000
  C   C19       1.0  0.14461  0.41929  0.07632  1.0000
  C   C20       1.0  0.13759  0.40513  0.06871  1.0000
  C   C21       1.0  0.15096  0.38276  0.06718  1.0000
  C   C22       1.0  0.17159  0.37490  0.07303  1.0000
  C   C23       1.0  0.17846  0.38895  0.08072  1.0000
  H   H13       1.0  0.13393  0.43635  0.07775  1.0000
  H   H14       1.0  0.12136  0.41112  0.06450  1.0000
  H   H15       1.0  0.18197  0.35759  0.07191  1.0000
  H   H16       1.0  0.19406  0.38246  0.08543  1.0000
  C   C24       1.0  0.21506  0.44792  0.15736  1.0000
  C   C25       1.0  0.20822  0.45390  0.17021  1.0000
  C   C26       1.0  0.31611  0.12819  0.07662  1.0000
  H   H17       1.0  0.26677  0.03978  0.18221  1.0000
  H   H18       1.0  0.28349  0.07402  0.09093  1.0000
  C   C27       1.0  0.23258  0.45901  0.14839  1.0000
  S   S37       1.0  0.21728  0.00018  0.97730  1.0000
  C   C28       1.0  0.16079  0.07945  0.02656  1.0000
  C   C29       1.0  0.02196  0.30716  0.00864  1.0000
  C   C30       1.0  0.14566  0.17797  0.08709  1.0000
  C   C31       1.0  0.12405  0.18504  0.08207  1.0000
  C   C32       1.0  0.12032  0.17579  0.07122  1.0000
  C   C33       1.0  0.13822  0.15941  0.06531  1.0000
  C   C34       1.0  0.15984  0.15244  0.07028  1.0000
  C   C35       1.0  0.16361  0.16175  0.08108  1.0000
  H   H19       1.0  0.11002  0.19740  0.08677  1.0000
  H   H20       1.0  0.10341  0.18081  0.06767  1.0000
  H   H21       1.0  0.17372  0.13968  0.06580  1.0000
  H   H22       1.0  0.18025  0.15610  0.08491  1.0000
  C   C36       1.0  0.21207  0.13040  0.16388  1.0000
  C   C37       1.0  0.22282  0.12259  0.17535  1.0000
  C   C38       1.0  0.21866  0.10115  0.18388  1.0000
  C   C39       1.0  0.20332  0.08756  0.18113  1.0000
  C   C40       1.0  0.19244  0.09547  0.16971  1.0000
  C   C41       1.0  0.19695  0.11669  0.16104  1.0000
  H   H23       1.0  0.23442  0.13318  0.17766  1.0000
  H   H24       1.0  0.22703  0.09532  0.19267  1.0000
  H   H25       1.0  0.18042  0.08515  0.16756  1.0000
  H   H26       1.0  0.18832  0.12268  0.15234  1.0000
  C   C42       1.0  0.23450  0.26283  0.10697  1.0000
  C   C43       1.0  0.21722  0.26306  0.11846  1.0000
  C   C44       1.0  0.21114  0.28324  0.12475  1.0000
  C   C45       1.0  0.22203  0.30350  0.11956  1.0000
  C   C46       1.0  0.23854  0.30374  0.10773  1.0000
  C   C47       1.0  0.24481  0.28341  0.10150  1.0000
  H   H27       1.0  0.20909  0.24743  0.12276  1.0000
  H   H28       1.0  0.19831  0.28293  0.13389  1.0000
  H   H29       1.0  0.24709  0.31922  0.10364  1.0000
  H   H30       1.0  0.25820  0.28338  0.09261  1.0000
  H   H31       1.0  0.22576  0.05643  0.15037  1.0000
  H   H32       1.0  0.19875  0.09232  0.99814  1.0000
  C   C48       1.0  0.18982  0.43980  0.99396  1.0000
  H   H33       1.0  0.06440  0.29555  0.99372  1.0000
  C   C49       1.0  0.05120  0.36151  0.99804  1.0000
  H   H34       1.0  0.21457  0.47392  0.18432  1.0000
  C   C50       1.0  0.16058  0.35210  0.10950  1.0000
  C   C51       1.0  0.16667  0.43477  0.99924  1.0000
  C   C52       1.0  0.14756  0.45336  0.00084  1.0000
  C   C53       1.0  0.13823  0.34210  0.09511  1.0000
  H   H35       1.0  0.16363  0.41652  0.00199  1.0000
  C   C54       1.0  0.17970  0.40975  0.03380  1.0000
  C   C55       1.0  0.24398  0.47496  0.15247  1.0000
  C   C56       1.0  0.29259  0.08917  0.08699  1.0000
  C   C57       1.0  0.28196  0.11166  0.09007  1.0000
  C   C58       1.0  0.29379  0.13119  0.08495  1.0000
  H   H36       1.0  0.28483  0.07635  0.17309  1.0000
  H   H37       1.0  0.18505  0.13308  0.00326  1.0000
  H   H38       1.0  0.28874  0.44559  0.16997  1.0000
  H   H39       1.0  0.28561  0.14861  0.08726  1.0000
  C   C59       1.0  0.25580  0.26958  0.14177  1.0000
  H   H40       1.0  0.23787  0.45467  0.13845  1.0000
  C   C60       1.0  0.16204  0.12162  0.02146  1.0000
  H   H41       1.0  0.09456  0.32166  0.98366  1.0000
  C   C61       1.0  0.13233  0.11354  0.99433  1.0000
  C   C62       1.0  0.14081  0.09016  0.99193  1.0000
  H   H42       1.0  0.11643  0.11717  0.00153  1.0000
  H   H43       1.0  0.21702  0.40836  0.02553  1.0000
  C   C63       1.0  0.29270  0.01229  0.99719  1.0000
  C   C64       1.0  0.26108  0.08042  0.06099  1.0000
  C   C65       1.0  0.27306  0.41155  0.15150  1.0000
  C   C66       1.0  0.31928  0.01328  0.01274  1.0000
  H   H44       1.0  0.20447  0.42527  0.99274  1.0000
  H   H45       1.0  0.27790  0.04655  0.98723  1.0000
  C   C67       1.0  0.06037  0.31418  0.99481  1.0000
  H   H46       1.0  0.22319  0.21123  0.14124  1.0000
  H   H47       1.0  0.23138  0.24939  0.15561  1.0000
  C   C68       1.0  0.29113  0.45067  0.06753  1.0000
  H   H48       1.0  0.25536  0.09115  0.12920  1.0000
  C   C69       1.0  0.14427  0.13215  0.98731  1.0000
  C   C70       1.0  0.32047  0.47539  0.05618  1.0000
  C   C71       1.0  0.24253  0.09634  0.13802  1.0000
  C   C72       1.0  0.26530  0.08652  0.15651  1.0000
  C   C73       1.0  0.23786  0.48018  0.16550  1.0000
  H   H49       1.0  0.19454  0.44551  0.17719  1.0000
  C   C74       1.0  0.18460  0.05192  0.01216  1.0000
  C   C75       1.0  0.27790  0.46998  0.07330  1.0000
  C   C76       1.0  0.31162  0.10597  0.03776  1.0000
  C   C77       1.0  0.24524  0.04568  0.16674  1.0000
  H   H50       1.0  0.24217  0.40900  0.17370  1.0000
  H   H51       1.0  0.27225  0.21491  0.12396  1.0000
  C   C78       1.0  0.17875  0.11797  0.01010  1.0000
  N   N2        1.0  0.13341  0.23682  0.04597  1.0000
  C   C79       1.0  0.14238  0.25776  0.04241  1.0000
  C   C80       1.0  0.10970  0.23686  0.05092  1.0000
  C   C81       1.0  0.12742  0.27950  0.04368  1.0000
  C   C82       1.0  0.09428  0.25825  0.05240  1.0000
  C   C83       1.0  0.10328  0.27966  0.04883  1.0000
  C   C84       1.0  0.14954  0.21414  0.04522  1.0000
  H   H52       1.0  0.16116  0.25779  0.03849  1.0000
  H   H53       1.0  0.10253  0.22032  0.05366  1.0000
  H   H54       1.0  0.13441  0.29617  0.04052  1.0000
  H   H55       1.0  0.07539  0.25823  0.05604  1.0000
  H   H56       1.0  0.09144  0.29643  0.04971  1.0000
  H   H57       1.0  0.14017  0.20035  0.04346  1.0000
  H   H58       1.0  0.16471  0.21600  0.03688  1.0000
  H   H59       1.0  0.15653  0.20758  0.05478  1.0000
  H   H60       1.0  0.23672  0.03013  0.17091  1.0000
  H   H61       1.0  0.22424  0.09520  0.13667  1.0000
  C   C85       1.0  0.31596  0.44892  0.09473  1.0000
  H   H62       1.0  0.28041  0.28593  0.12582  1.0000
  H   H63       1.0  0.24260  0.11537  0.13832  1.0000
  H   H64       1.0  0.01303  0.31163  0.01855  1.0000
  H   H65       1.0  0.27301  0.10263  0.15267  1.0000
  H   H66       1.0  0.31392  0.45815  0.14846  1.0000
  H   H67       1.0  0.11208  0.39462  0.10521  1.0000
  H   H68       1.0  0.13173  0.47107  0.04431  1.0000
  H   H69       1.0  0.99277  0.42083  0.00187  1.0000
  C   C86       1.0  0.31629  0.03813  0.00968  1.0000
  C   C87       1.0  0.32095  0.47153  0.09499  1.0000
  H   H70       1.0  0.28622  0.41094  0.13052  1.0000
  C   C88       1.0  0.13301  0.46417  0.03492  1.0000
  N   N3        1.0  0.29043  0.10362  0.04802  1.0000
  H   H71       1.0  0.00830  0.30909  0.00218  1.0000
  C   C89       1.0  0.28133  0.08276  0.05121  1.0000
  H   H72       1.0  0.02229  0.19870  0.02821  1.0000
  C   C90       1.0  0.21952  0.47001  0.17427  1.0000
  C   C91       1.0  0.31475  0.08622  0.07863  1.0000
  C   C92       1.0  0.30767  0.00046  0.00646  1.0000
  C   C93       1.0  0.17588  0.45873  0.02623  1.0000
  H   H73       1.0  0.28988  0.06770  0.04631  1.0000
  H   H74       1.0  0.28671  0.13918  0.05160  1.0000
  C   C94       1.0  0.19810  0.44437  0.02374  1.0000
  C   C95       1.0  0.16473  0.12713  0.97782  1.0000
  C   C96       1.0  0.00948  0.21228  0.03326  1.0000
  H   H75       1.0  0.25049  0.13605  0.06871  1.0000
  C   C97       1.0  0.30109  0.04999  0.00053  1.0000
  N   N4        1.0  0.25167  0.22962  0.14073  1.0000
  C   C98       1.0  0.26818  0.22987  0.12930  1.0000
  C   C99       1.0  0.27205  0.07178  0.16805  1.0000
  C   C100      1.0  0.27915  0.24990  0.12393  1.0000
  H   H76       1.0  0.18082  0.39061  0.03684  1.0000
  N   N5        1.0  0.24884  0.08099  0.15030  1.0000
  C   C101      1.0  0.23947  0.20897  0.14580  1.0000
  C   C102      1.0  0.30195  0.43515  0.13809  1.0000
  H   H77       1.0  0.19175  0.03945  0.02057  1.0000
  C   C103      1.0  0.25909  0.41373  0.17519  1.0000
  C   C104      1.0  0.16145  0.08505  0.98262  1.0000
  H   H78       1.0  0.25386  0.42835  0.18120  1.0000
  H   H79       1.0  0.14684  0.38509  0.11705  1.0000
  H   H80       1.0  0.30630  0.11608  0.02825  1.0000
  H   H81       1.0  0.03064  0.28819  0.01042  1.0000
  C   C105      1.0  0.27287  0.26987  0.13021  1.0000
  C   C106      1.0  0.14409  0.37284  0.11107  1.0000
  C   C107      1.0  0.24983  0.09975  0.06725  1.0000
  H   H82       1.0  0.13136  0.07591  0.99738  1.0000
  C   C108      1.0  0.12448  0.37817  0.10444  1.0000
  H   H83       1.0  0.16909  0.04557  0.00997  1.0000
  C   C109      1.0  0.27936  0.12274  0.05401  1.0000
  H   H84       1.0  0.17386  0.30820  0.09102  1.0000
  H   H85       1.0  0.19860  0.05136  0.00313  1.0000
  H   H86       1.0  0.04742  0.37997  0.99942  1.0000
  N   N6        1.0  0.03951  0.32285  0.00236  1.0000
  H   H87       1.0  0.23453  0.09809  0.07514  1.0000
  H   H88       1.0  0.32174  0.08834  0.03584  1.0000
  H   H89       1.0  0.26910  0.39806  0.18090  1.0000
  H   H90       1.0  0.13992  0.10503  0.03862  1.0000
  H   H91       1.0  0.15565  0.13949  0.02367  1.0000
  H   H92       1.0  0.23416  0.20646  0.15682  1.0000
  H   H93       1.0  0.29868  0.06921  0.99805  1.0000
  C   C110      1.0  0.17561  0.31604  0.09965  1.0000
  C   C111      1.0  0.28926  0.03719  0.99437  1.0000
  H   H94       1.0  0.00934  0.22972  0.02649  1.0000
  C   C112      1.0  0.12137  0.36262  0.09650  1.0000
  S   S38       1.0  0.30406  0.00480  0.20099  1.0000
  N   N7        1.0  0.15603  0.44877  0.03216  1.0000
  H   H95       1.0  0.19387  0.32065  0.09770  1.0000
  H   H96       1.0  0.99607  0.17786  0.05269  1.0000
  H   H97       1.0  0.24996  0.28546  0.14633  1.0000
  H   H98       1.0  0.25433  0.06364  0.06381  1.0000
  H   H99       1.0  0.13608  0.33063  0.08850  1.0000
  C   C113      1.0  0.07747  0.32887  0.98901  1.0000
  C   C114      1.0  0.15308  0.10225  0.02981  1.0000
  C   C115      1.0  0.23898  0.06074  0.15520  1.0000
  N   N8        1.0  0.17725  0.07600  0.01540  1.0000
  C   C116      1.0  0.25881  0.12115  0.06362  1.0000
  S   S39       1.0  0.28033  0.99517  0.98865  1.0000
  H   H100      1.0  0.10657  0.36690  0.09098  1.0000
  H   H101      1.0  0.17378  0.30235  0.10878  1.0000
  N   N9        1.0  0.15772  0.33728  0.10140  1.0000
  C   C117      1.0  0.24524  0.24920  0.14690  1.0000
  H   H102      1.0  0.29150  0.25033  0.11458  1.0000
  H   H103      1.0  0.26143  0.46752  0.08013  1.0000
  H   H104      1.0  0.17597  0.34823  0.11455  1.0000
  C   C118      1.0  0.15775  0.42464  0.03599  1.0000
  C   C119      1.0  0.07290  0.35261  0.99076  1.0000
  C   C120      1.0  0.30271  0.44482  0.14925  1.0000
  C   C121      1.0  0.99153  0.40761  0.01085  1.0000
  H   H105      1.0  0.08636  0.36396  0.98667  1.0000
  C   C122      1.0  0.31256  0.45344  0.05892  1.0000
  H   H106      1.0  0.28502  0.43354  0.07000  1.0000
  C   C123      1.0  0.28710  0.41836  0.13920  1.0000
  S   S40       1.0  0.22384  0.46858  0.98445  1.0000
  H   H107      1.0  0.01611  0.21395  0.04232  1.0000
  C   C124      1.0  0.19996  0.41972  0.02755  1.0000
  H   H108      1.0  0.11789  0.45440  0.03581  1.0000
  C   C125      1.0  0.15183  0.47700  0.99709  1.0000
  H   H109      1.0  0.31267  0.44080  0.12854  1.0000
  H   H110      1.0  0.17449  0.47784  0.02304  1.0000
  H   H111      1.0  0.21360  0.45231  0.01854  1.0000
  H   H112      1.0  0.13081  0.47928  0.02654  1.0000
  C   C126      1.0  0.28355  0.47965  0.10974  1.0000
  S   S41       1.0  0.13006  0.44802  0.35738  1.0000
  C   C127      1.0  0.01818  0.98540  0.35488  1.0000
  H   H113      1.0  0.23371  0.45117  0.35804  1.0000
  Fe  Fe19      1.0  0.23045  0.01677  0.44253  1.0000
  S   S42       1.0  0.21796  0.04606  0.45501  1.0000
  S   S43       1.0  0.22382  0.01770  0.42125  1.0000
  Fe  Fe20      1.0  0.25676  0.04209  0.45692  1.0000
  S   S44       1.0  0.27637  0.07255  0.45663  1.0000
  S   S45       1.0  0.09976  0.99294  0.37280  1.0000
  S   S46       1.0  0.26948  0.01484  0.44348  1.0000
  C   C128      1.0  0.15061  0.44244  0.39004  1.0000
  S   S47       1.0  0.11595  0.00699  0.34021  1.0000
  S   S48       1.0  0.11676  0.04462  0.36033  1.0000
  Fe  Fe21      1.0  0.09061  0.02332  0.35662  1.0000
  S   S49       1.0  0.05233  0.04042  0.35473  1.0000
  Fe  Fe22      1.0  0.14284  0.02571  0.34519  1.0000
  S   S50       1.0  0.17093  0.04001  0.32866  1.0000
  H   H114      1.0  0.26674  0.08185  0.24073  1.0000
  S   S51       1.0  0.22814  0.05521  0.25426  1.0000
  H   H115      1.0  0.31025  0.39717  0.33654  1.0000
  C   C129      1.0  0.18550  0.01810  0.29667  1.0000
  Fe  Fe23      1.0  0.26288  0.18797  0.30337  1.0000
  S   S52       1.0  0.29515  0.15993  0.29981  1.0000
  S   S53       1.0  0.26851  0.22630  0.29550  1.0000
  Fe  Fe24      1.0  0.23119  0.15022  0.31591  1.0000
  S   S54       1.0  0.26112  0.11975  0.31360  1.0000
  S   S55       1.0  0.19423  0.14331  0.32570  1.0000
  Fe  Fe25      1.0  0.28223  0.14230  0.32059  1.0000
  Fe  Fe26      1.0  0.27084  0.14028  0.29308  1.0000
  S   S56       1.0  0.28108  0.12543  0.27360  1.0000
  S   S57       1.0  0.25132  0.17128  0.32457  1.0000
  S   S58       1.0  0.23956  0.16977  0.29502  1.0000
  Fe  Fe27      1.0  0.25354  0.40120  0.31959  1.0000
  S   S59       1.0  0.28751  0.40534  0.30514  1.0000
  S   S60       1.0  0.23653  0.43474  0.32774  1.0000
  Fe  Fe28      1.0  0.25732  0.34890  0.31733  1.0000
  S   S61       1.0  0.29134  0.34946  0.30272  1.0000
  S   S62       1.0  0.23949  0.31609  0.32473  1.0000
  Fe  Fe29      1.0  0.30178  0.36989  0.31636  1.0000
  H   H116      1.0  0.12511  0.98336  0.24170  1.0000
  Fe  Fe30      1.0  0.27343  0.38487  0.29304  1.0000
  S   S63       1.0  0.27420  0.39184  0.27063  1.0000
  S   S64       1.0  0.26888  0.36711  0.33167  1.0000
  S   S65       1.0  0.23843  0.38300  0.30676  1.0000
  C   C130      1.0  0.18241  0.12274  0.28747  1.0000
  H   H117      1.0  0.16714  0.98956  0.23377  1.0000
  N   N10       1.0  0.17351  0.44501  0.38134  1.0000
  C   C131      1.0  0.26035  0.32951  0.27397  1.0000
  C   C132      1.0  0.26284  0.24878  0.30549  1.0000
  C   C133      1.0  0.27642  0.26733  0.30182  1.0000
  C   C134      1.0  0.26999  0.28766  0.30798  1.0000
  C   C135      1.0  0.24986  0.28963  0.31789  1.0000
  C   C136      1.0  0.23680  0.27065  0.32196  1.0000
  C   C137      1.0  0.24327  0.25026  0.31580  1.0000
  H   H118      1.0  0.29158  0.26630  0.29385  1.0000
  H   H119      1.0  0.28028  0.30200  0.30479  1.0000
  H   H120      1.0  0.22124  0.27199  0.32966  1.0000
  H   H121      1.0  0.23255  0.23617  0.31864  1.0000
  C   C138      1.0  0.24491  0.07283  0.25975  1.0000
  C   C139      1.0  0.23933  0.07653  0.27310  1.0000
  C   C140      1.0  0.25047  0.09229  0.27758  1.0000
  C   C141      1.0  0.26758  0.10425  0.26878  1.0000
  C   C142      1.0  0.27360  0.10006  0.25554  1.0000
  C   C143      1.0  0.26227  0.08451  0.25102  1.0000
  H   H122      1.0  0.22593  0.06758  0.27996  1.0000
  H   H123      1.0  0.24574  0.09528  0.28780  1.0000
  H   H124      1.0  0.28689  0.10917  0.24868  1.0000
  H   H125      1.0  0.03942  0.98372  0.32731  1.0000
  C   C144      1.0  0.26835  0.46399  0.26072  1.0000
  C   C145      1.0  0.26973  0.44079  0.26813  1.0000
  C   C146      1.0  0.26985  0.42150  0.26193  1.0000
  C   C147      1.0  0.26780  0.42574  0.24834  1.0000
  C   C148      1.0  0.26584  0.44906  0.24098  1.0000
  C   C149      1.0  0.22886  0.29921  0.28779  1.0000
  H   H126      1.0  0.27119  0.43780  0.27860  1.0000
  H   H127      1.0  0.26793  0.41092  0.24344  1.0000
  C   C150      1.0  0.19644  0.01518  0.28368  1.0000
  C   C151      1.0  0.17636  0.06923  0.32747  1.0000
  C   C152      1.0  0.19614  0.07667  0.31854  1.0000
  C   C153      1.0  0.20183  0.09933  0.31796  1.0000
  C   C154      1.0  0.18753  0.11483  0.32614  1.0000
  C   C155      1.0  0.16744  0.10761  0.33482  1.0000
  C   C156      1.0  0.16193  0.08481  0.33554  1.0000
  H   H128      1.0  0.20736  0.06473  0.31223  1.0000
  H   H129      1.0  0.21710  0.10487  0.31107  1.0000
  H   H130      1.0  0.15619  0.11962  0.34108  1.0000
  H   H131      1.0  0.14656  0.07932  0.34238  1.0000
  S   S66       1.0  0.13206  0.01289  0.39679  1.0000
  C   C157      1.0  0.03114  0.02338  0.35320  1.0000
  C   C158      1.0  0.03591  0.99851  0.35539  1.0000
  H   H132      1.0  0.21064  0.02520  0.27873  1.0000
  Fe  Fe31      1.0  0.22235  0.99562  0.22854  1.0000
  C   C159      1.0  0.17163  0.98705  0.28362  1.0000
  C   C160      1.0  0.29444  0.08482  0.44203  1.0000
  C   C161      1.0  0.29726  0.07624  0.43006  1.0000
  C   C162      1.0  0.30703  0.10293  0.44258  1.0000
  H   H133      1.0  0.28771  0.06229  0.42951  1.0000
  C   C163      1.0  0.20544  0.46742  0.37197  1.0000
  C   C164      1.0  0.19779  0.01728  0.41465  1.0000
  C   C165      1.0  0.19955  0.01871  0.40078  1.0000
  C   C166      1.0  0.17956  0.01787  0.39508  1.0000
  Fe  Fe32      1.0  0.12811  0.01260  0.37533  1.0000
  C   C167      1.0  0.17573  0.01506  0.42278  1.0000
  S   S67       1.0  0.25396  0.01480  0.47575  1.0000
  H   H134      1.0  0.18127  0.01869  0.38444  1.0000
  H   H135      1.0  0.21707  0.28697  0.29341  1.0000
  H   H136      1.0  0.17556  0.06913  0.37080  1.0000
  H   H137      1.0  0.20417  0.47610  0.33411  1.0000
  C   C168      1.0  0.15847  0.44509  0.34743  1.0000
  C   C169      1.0  0.17083  0.46440  0.34344  1.0000
  C   C170      1.0  0.19447  0.46121  0.33681  1.0000
  C   C171      1.0  0.20583  0.43875  0.33400  1.0000
  C   C172      1.0  0.19315  0.41961  0.33740  1.0000
  C   C173      1.0  0.16949  0.42278  0.34416  1.0000
  H   H138      1.0  0.00272  0.03989  0.39365  1.0000
  H   H139      1.0  0.20184  0.40221  0.33527  1.0000
  H   H140      1.0  0.15992  0.40781  0.34715  1.0000
  H   H141      1.0  0.18953  0.33720  0.29525  1.0000
  C   C174      1.0  0.31531  0.45666  0.44065  1.0000
  C   C175      1.0  0.21715  0.44924  0.36490  1.0000
  H   H142      1.0  0.21356  0.00938  0.25935  1.0000
  C   C176      1.0  0.22626  0.15381  0.26170  1.0000
  C   C177      1.0  0.29599  0.47510  0.40931  1.0000
  C   C178      1.0  0.18365  0.46485  0.38035  1.0000
  H   H143      1.0  0.31417  0.17400  0.32622  1.0000
  H   H144      1.0  0.26450  0.45210  0.23050  1.0000
  C   C179      1.0  0.20705  0.42876  0.36633  1.0000
  H   H145      1.0  0.30492  0.10968  0.45181  1.0000
  H   H146      1.0  0.13835  0.43698  0.38462  1.0000
  H   H147      1.0  0.29113  0.10334  0.38174  1.0000
  C   C180      1.0  0.15753  0.01558  0.40324  1.0000
  H   H148      1.0  0.03902  0.47866  0.36779  1.0000
  H   H149      1.0  0.27546  0.13122  0.36469  1.0000
  H   H150      1.0  0.16465  0.09476  0.28527  1.0000
  N   N11       1.0  0.31937  0.44010  0.40153  1.0000
  H   H151      1.0  0.01126  0.45721  0.36107  1.0000
  H   H152      1.0  0.17410  0.01393  0.43345  1.0000
  H   H153      1.0  0.30975  0.19451  0.37608  1.0000
  H   H154      1.0  0.31520  0.15347  0.38898  1.0000
  H   H155      1.0  0.29934  0.46016  0.44786  1.0000
  N   N12       1.0  0.18936  0.99987  0.27733  1.0000
  H   H156      1.0  0.18770  0.99896  0.25716  1.0000
  H   H157      1.0  0.21655  0.02036  0.39441  1.0000
  C   C181      1.0  0.18763  0.10685  0.26712  1.0000
  C   C182      1.0  0.26382  0.30623  0.27149  1.0000
  H   H158      1.0  0.20158  0.31565  0.30852  1.0000
  H   H159      1.0  0.25077  0.27263  0.27679  1.0000
  H   H160      1.0  0.00517  0.05129  0.37593  1.0000
  H   H161      1.0  0.31894  0.40823  0.39458  1.0000
  H   H162      1.0  0.15338  0.42892  0.39903  1.0000
  H   H163      1.0  0.31717  0.40492  0.41255  1.0000
  H   H164      1.0  0.27899  0.29985  0.26442  1.0000
  S   S68       1.0  0.20183  0.03223  0.22976  1.0000
  N   N13       1.0  0.22450  0.08944  0.35177  1.0000
  C   C183      1.0  0.23207  0.07204  0.34403  1.0000
  C   C184      1.0  0.20432  0.08867  0.36118  1.0000
  C   C185      1.0  0.21977  0.05280  0.34594  1.0000
  C   C186      1.0  0.19162  0.06967  0.36337  1.0000
  C   C187      1.0  0.19946  0.05163  0.35569  1.0000
  C   C188      1.0  0.23734  0.10969  0.34951  1.0000
  H   H165      1.0  0.24748  0.07315  0.33619  1.0000
  H   H166      1.0  0.19779  0.10292  0.36698  1.0000
  H   H167      1.0  0.22542  0.03931  0.33958  1.0000
  H   H168      1.0  0.18936  0.03719  0.35696  1.0000
  H   H169      1.0  0.22909  0.12453  0.34246  1.0000
  H   H170      1.0  0.23674  0.11609  0.35898  1.0000
  H   H171      1.0  0.25649  0.10482  0.34525  1.0000
  Fe  Fe33      1.0  0.23528  0.04068  0.23460  1.0000
  H   H172      1.0  0.00469  0.05424  0.34882  1.0000
  H   H173      1.0  0.27259  0.34159  0.26872  1.0000
  C   C189      1.0  0.20553  0.33029  0.30009  1.0000
  C   C190      1.0  0.24103  0.33718  0.28340  1.0000
  S   S69       1.0  0.30375  0.12602  0.33714  1.0000
  C   C191      1.0  0.99074  0.02186  0.34999  1.0000
  H   H174      1.0  0.13882  0.01242  0.42350  1.0000
  N   N14       1.0  0.22583  0.32194  0.29033  1.0000
  H   H175      1.0  0.31837  0.41545  0.35451  1.0000
  C   C192      1.0  0.24787  0.29102  0.27834  1.0000
  C   C193      1.0  0.17698  0.10695  0.28041  1.0000
  C   C194      1.0  0.30143  0.18090  0.37386  1.0000
  H   H176      1.0  0.23976  0.14609  0.25383  1.0000
  C   C195      1.0  0.18495  0.42705  0.37451  1.0000
  C   C196      1.0  0.20114  0.99648  0.26384  1.0000
  Fe  Fe34      1.0  0.26403  0.98778  0.46212  1.0000
  S   S70       1.0  0.22603  0.98741  0.46022  1.0000
  C   C197      1.0  0.20380  0.12243  0.26111  1.0000
  H   H177      1.0  0.19111  0.03023  0.30172  1.0000
  H   H178      1.0  0.05320  0.98938  0.35759  1.0000
  C   C198      1.0  0.16037  0.98949  0.29664  1.0000
  C   C199      1.0  0.28208  0.14524  0.36766  1.0000
  H   H179      1.0  0.29161  0.43933  0.41845  1.0000
  C   C200      1.0  0.19874  0.13799  0.28117  1.0000
  N   N15       1.0  0.20945  0.13746  0.26820  1.0000
  C   C201      1.0  0.15576  0.01422  0.41709  1.0000
  C   C202      1.0  0.30006  0.11588  0.38505  1.0000
  H   H180      1.0  0.17416  0.12310  0.29780  1.0000
  H   H181      1.0  0.23847  0.35535  0.28520  1.0000
  C   C203      1.0  0.26643  0.46826  0.24711  1.0000
  H   H182      1.0  0.15885  0.00724  0.31328  1.0000
  H   H183      1.0  0.30537  0.02455  0.46791  1.0000
  H   H184      1.0  0.21654  0.17102  0.25722  1.0000
  H   H185      1.0  0.20291  0.15009  0.28677  1.0000
  C   C204      1.0  0.00311  0.03527  0.38373  1.0000
  C   C205      1.0  0.30137  0.45032  0.41032  1.0000
  H   H186      1.0  0.28650  0.20381  0.35744  1.0000
  H   H187      1.0  0.14153  0.45947  0.39333  1.0000
  C   C206      1.0  0.27839  0.16828  0.36035  1.0000
  C   C207      1.0  0.30460  0.15770  0.38104  1.0000
  C   C208      1.0  0.28833  0.18614  0.36342  1.0000
  H   H188      1.0  0.20957  0.34453  0.30465  1.0000
  H   H189      1.0  0.18398  0.09433  0.26157  1.0000
  S   S71       1.0  0.15596  0.99520  0.36046  1.0000
  H   H190      1.0  0.26903  0.17193  0.35189  1.0000
  H   H191      1.0  0.17469  0.47904  0.38584  1.0000
  S   S72       1.0  0.25506  0.00338  0.23430  1.0000
  H   H192      1.0  0.17666  0.41158  0.37507  1.0000
  C   C209      1.0  0.00850  0.03499  0.35051  1.0000
  H   H193      1.0  0.21582  0.41478  0.36064  1.0000
  N   N16       1.0  0.29517  0.14022  0.37781  1.0000
  C   C210      1.0  0.99560  0.99699  0.35212  1.0000
  C   C211      1.0  0.16737  0.00515  0.30317  1.0000
  Fe  Fe35      1.0  0.21614  0.01647  0.47288  1.0000
  H   H194      1.0  0.21243  0.12179  0.25087  1.0000
  H   H195      1.0  0.01933  0.02193  0.38155  1.0000
  H   H196      1.0  0.31848  0.41839  0.44607  1.0000
  H   H197      1.0  0.23657  0.15711  0.26894  1.0000
  C   C212      1.0  0.31275  0.08547  0.41881  1.0000
  H   H198      1.0  0.32109  0.40903  0.26080  1.0000
  H   H199      1.0  0.99832  0.99033  0.38347  1.0000
  H   H200      1.0  0.31962  0.10934  0.38340  1.0000
  H   H201      1.0  0.31514  0.07836  0.40968  1.0000
  H   H202      1.0  0.29391  0.11558  0.39592  1.0000
  H   H203      1.0  0.32024  0.99317  0.45325  1.0000
  H   H204      1.0  0.26890  0.47869  0.26555  1.0000
  C   C213      1.0  0.00451  0.47403  0.36452  1.0000
  H   H205      1.0  0.32008  0.44813  0.26729  1.0000
  H   H206      1.0  0.16232  0.48176  0.34560  1.0000
  H   H207      1.0  0.32201  0.04798  0.46615  1.0000
  Fe  Fe36      1.0  0.29001  0.05303  0.70309  1.0000
  H   H208      1.0  0.14563  0.23249  0.67688  1.0000
  Fe  Fe37      1.0  0.27698  0.01894  0.68634  1.0000
  S   S73       1.0  0.23795  0.02813  0.69367  1.0000
  C   C214      1.0  0.17100  0.08079  0.53745  1.0000
  Fe  Fe38      1.0  0.24502  0.06592  0.68957  1.0000
  S   S74       1.0  0.22702  0.09297  0.67391  1.0000
  H   H209      1.0  0.19603  0.05472  0.51932  1.0000
  C   C215      1.0  0.11328  0.46851  0.70891  1.0000
  S   S75       1.0  0.28438  0.05659  0.68176  1.0000
  Fe  Fe39      1.0  0.11032  0.18095  0.65862  1.0000
  S   S76       1.0  0.13055  0.19785  0.63937  1.0000
  S   S77       1.0  0.12652  0.16091  0.67677  1.0000
  Fe  Fe40      1.0  0.06208  0.19991  0.64943  1.0000
  S   S78       1.0  0.07877  0.21730  0.62948  1.0000
  S   S79       1.0  0.02201  0.20763  0.65459  1.0000
  Fe  Fe41      1.0  0.10543  0.18369  0.62986  1.0000
  S   S80       1.0  0.11985  0.16359  0.61259  1.0000
  Fe  Fe42      1.0  0.10172  0.23002  0.64091  1.0000
  S   S81       1.0  0.10150  0.27010  0.63608  1.0000
  S   S82       1.0  0.08689  0.16502  0.64907  1.0000
  S   S83       1.0  0.08344  0.21427  0.66089  1.0000
  Fe  Fe43      1.0  0.14596  0.42271  0.64524  1.0000
  S   S84       1.0  0.12360  0.44357  0.66053  1.0000
  S   S85       1.0  0.16409  0.44237  0.62616  1.0000
  Fe  Fe44      1.0  0.13712  0.37495  0.66193  1.0000
  S   S86       1.0  0.11356  0.39218  0.67857  1.0000
  S   S87       1.0  0.14843  0.33499  0.66286  1.0000
  Fe  Fe45      1.0  0.09810  0.41817  0.66204  1.0000
  S   S88       1.0  0.06041  0.43597  0.66011  1.0000
  Fe  Fe46      1.0  0.14124  0.41628  0.67558  1.0000
  S   S89       1.0  0.15408  0.42434  0.69344  1.0000
  S   S90       1.0  0.11947  0.39908  0.64569  1.0000
  S   S91       1.0  0.16588  0.39714  0.66012  1.0000
  Fe  Fe47      1.0  0.10440  0.04656  0.57418  1.0000
  S   S92       1.0  0.10910  0.08344  0.56373  1.0000
  H   H210      1.0  0.01533  0.14161  0.63313  1.0000
  Fe  Fe48      1.0  0.05742  0.05002  0.56393  1.0000
  S   S93       1.0  0.05890  0.08726  0.55299  1.0000
  S   S94       1.0  0.02723  0.02948  0.56507  1.0000
  Fe  Fe49      1.0  0.09782  0.07315  0.54644  1.0000
  S   S95       1.0  0.11761  0.08335  0.52544  1.0000
  Fe  Fe50      1.0  0.07029  0.09360  0.57143  1.0000
  S   S96       1.0  0.05337  0.12333  0.58327  1.0000
  S   S97       1.0  0.09582  0.03540  0.55634  1.0000
  S   S98       1.0  0.06606  0.05721  0.58281  1.0000
  C   C216      1.0  0.22503  0.02552  0.64447  1.0000
  C   C217      1.0  0.13802  0.06287  0.51650  1.0000
  C   C218      1.0  0.15239  0.07149  0.50459  1.0000
  C   C219      1.0  0.16800  0.05569  0.49686  1.0000
  C   C220      1.0  0.16908  0.03110  0.50090  1.0000
  C   C221      1.0  0.15469  0.02252  0.51281  1.0000
  C   C222      1.0  0.13945  0.03829  0.52066  1.0000
  H   H211      1.0  0.15133  0.09050  0.50125  1.0000
  S   S99       1.0  0.10465  0.47850  0.57878  1.0000
  H   H212      1.0  0.15547  0.00351  0.51601  1.0000
  H   H213      1.0  0.12852  0.03139  0.52978  1.0000
  C   C223      1.0  0.04342  0.09579  0.62013  1.0000
  H   H214      1.0  0.23145  0.04674  0.66315  1.0000
  H   H215      1.0  0.00762  0.07436  0.54917  1.0000
  C   C224      1.0  0.01877  0.17010  0.64281  1.0000
  S   S100      1.0  0.13279  0.03197  0.58708  1.0000
  C   C225      1.0  0.03862  0.41735  0.66274  1.0000
  C   C226      1.0  0.04289  0.39370  0.66911  1.0000
  C   C227      1.0  0.17833  0.19730  0.66168  1.0000
  H   H216      1.0  0.03987  0.07951  0.61728  1.0000
  H   H217      1.0  0.05994  0.38640  0.67224  1.0000
  H   H218      1.0  0.19179  0.39013  0.63258  1.0000
  C   C228      1.0  0.07190  0.13580  0.59079  1.0000
  C   C229      1.0  0.06158  0.15099  0.60011  1.0000
  C   C230      1.0  0.07601  0.16000  0.60676  1.0000
  C   C231      1.0  0.10089  0.15419  0.60394  1.0000
  C   C232      1.0  0.11114  0.13952  0.59439  1.0000
  C   C233      1.0  0.09674  0.13021  0.58793  1.0000
  H   H219      1.0  0.04238  0.15559  0.60232  1.0000
  H   H220      1.0  0.06792  0.17134  0.61408  1.0000
  H   H221      1.0  0.13035  0.13500  0.59213  1.0000
  H   H222      1.0  0.10494  0.11872  0.58074  1.0000
  C   C234      1.0  0.11345  0.28744  0.64456  1.0000
  C   C235      1.0  0.10556  0.31216  0.64293  1.0000
  C   C236      1.0  0.11543  0.32684  0.64893  1.0000
  C   C237      1.0  0.13367  0.31695  0.65639  1.0000
  C   C238      1.0  0.14147  0.29221  0.65809  1.0000
  C   C239      1.0  0.13129  0.27747  0.65228  1.0000
  H   H223      1.0  0.09188  0.32005  0.63689  1.0000
  H   H224      1.0  0.10928  0.34585  0.64754  1.0000
  H   H225      1.0  0.15569  0.28448  0.66378  1.0000
  H   H226      1.0  0.13776  0.25857  0.65339  1.0000
  C   C240      1.0  0.00660  0.18826  0.64985  1.0000
  H   H227      1.0  0.03803  0.16745  0.64048  1.0000
  S   S101      1.0  0.29108  0.99186  0.67230  1.0000
  H   H228      1.0  0.05221  0.29880  0.64449  1.0000
  C   C241      1.0  0.12802  0.44167  0.61246  1.0000
  C   C242      1.0  0.11539  0.44944  0.60173  1.0000
  H   H229      1.0  0.12292  0.42725  0.62014  1.0000
  H   H230      1.0  0.10058  0.44097  0.60124  1.0000
  C   C243      1.0  0.09356  0.02267  0.51191  1.0000
  N   N17       1.0  0.02343  0.29237  0.66018  1.0000
  C   C244      1.0  0.22387  0.01009  0.63592  1.0000
  C   C245      1.0  0.14742  0.45229  0.61304  1.0000
  H   H231      1.0  0.03276  0.09748  0.63016  1.0000
  C   C246      1.0  0.16860  0.44864  0.69361  1.0000
  C   C247      1.0  0.17953  0.44849  0.70462  1.0000
  C   C248      1.0  0.07214  0.45650  0.68825  1.0000
  H   H232      1.0  0.05143  0.31241  0.65885  1.0000
  H   H233      1.0  0.18031  0.43297  0.71238  1.0000
  H   H234      1.0  0.12964  0.20778  0.68420  1.0000
  C   C249      1.0  0.19779  0.10949  0.67499  1.0000
  C   C250      1.0  0.18295  0.11168  0.68721  1.0000
  C   C251      1.0  0.16075  0.12690  0.68757  1.0000
  C   C252      1.0  0.15316  0.13990  0.67575  1.0000
  C   C253      1.0  0.16768  0.13709  0.66352  1.0000
  C   C254      1.0  0.18992  0.12204  0.66316  1.0000
  H   H235      1.0  0.18880  0.10215  0.69638  1.0000
  H   H236      1.0  0.14958  0.12894  0.69708  1.0000
  H   H237      1.0  0.16205  0.14698  0.65436  1.0000
  H   H238      1.0  0.20130  0.12047  0.65366  1.0000
  C   C255      1.0  0.08553  0.08123  0.61219  1.0000
  H   H239      1.0  0.13726  0.33357  0.62036  1.0000
  S   S102      1.0  0.28720  0.01405  0.70655  1.0000
  C   C256      1.0  0.00592  0.15551  0.63865  1.0000
  H   H240      1.0  0.28447  0.02203  0.64092  1.0000
  N   N18       1.0  0.17710  0.05477  0.53920  1.0000
  N   N19       1.0  0.16504  0.19838  0.67408  1.0000
  H   H241      1.0  0.08004  0.07122  0.60587  1.0000
  C   C257      1.0  0.11725  0.09413  0.61947  1.0000
  H   H242      1.0  0.20860  0.03379  0.64993  1.0000
  S   S103      1.0  0.18776  0.01028  0.49148  1.0000
  C   C258      1.0  0.19474  0.16897  0.68396  1.0000
  H   H243      1.0  0.08763  0.98960  0.52501  1.0000
  H   H244      1.0  0.06092  0.28103  0.65961  1.0000
  H   H245      1.0  0.01298  0.44492  0.65383  1.0000
  H   H246      1.0  0.20950  0.36358  0.62702  1.0000
  H   H247      1.0  0.03716  0.11142  0.61284  1.0000
  H   H248      1.0  0.12297  0.07021  0.60523  1.0000
  C   C259      1.0  0.24764  0.04552  0.65536  1.0000
  C   C260      1.0  0.01641  0.42662  0.65873  1.0000
  H   H249      1.0  0.04611  0.05347  0.53741  1.0000
  C   C261      1.0  0.04814  0.29641  0.65556  1.0000
  C   C262      1.0  0.17309  0.18466  0.68515  1.0000
  H   H250      1.0  0.26316  0.03893  0.66067  1.0000
  Fe  Fe51      1.0  0.24863  0.02575  0.71372  1.0000
  H   H251      1.0  0.17195  0.20816  0.65290  1.0000
  C   C263      1.0  0.99847  0.41232  0.66112  1.0000
  N   N20       1.0  0.24662  0.02953  0.64626  1.0000
  H   H252      1.0  0.10576  0.11921  0.63311  1.0000
  C   C264      1.0  0.16446  0.99433  0.59673  1.0000
  C   C265      1.0  0.01813  0.26993  0.66157  1.0000
  H   H253      1.0  0.13606  0.09459  0.61888  1.0000
  C   C266      1.0  0.10021  0.10789  0.62752  1.0000
  C   C267      1.0  0.14245  0.21493  0.67554  1.0000
  C   C268      1.0  0.14568  0.00169  0.58936  1.0000
  H   H254      1.0  0.13361  0.21729  0.66668  1.0000
  C   C269      1.0  0.17025  0.04134  0.55130  1.0000
  C   C270      1.0  0.17637  0.01652  0.55323  1.0000
  C   C271      1.0  0.14074  0.47925  0.59242  1.0000
  C   C272      1.0  0.10992  0.08063  0.61176  1.0000
  C   C273      1.0  0.26682  0.00376  0.63063  1.0000
  H   H255      1.0  0.21015  0.18035  0.65025  1.0000
  H   H256      1.0  0.06646  0.07732  0.51738  1.0000
  N   N21       1.0  0.09895  0.45590  0.70334  1.0000
  H   H257      1.0  0.16238  0.18523  0.69495  1.0000
  C   C274      1.0  0.19055  0.04412  0.52892  1.0000
  C   C275      1.0  0.16267  0.35071  0.62611  1.0000
  C   C276      1.0  0.99436  0.06270  0.55184  1.0000
  C   C277      1.0  0.09859  0.06115  0.49766  1.0000
  N   N22       1.0  0.17370  0.37031  0.62367  1.0000
  C   C278      1.0  0.16919  0.38832  0.61331  1.0000
  C   C279      1.0  0.08684  0.46783  0.69328  1.0000
  C   C280      1.0  0.15264  0.38734  0.60533  1.0000
  C   C281      1.0  0.20003  0.18174  0.66012  1.0000
  C   C282      1.0  0.14094  0.36764  0.60792  1.0000
  C   C283      1.0  0.15389  0.47093  0.60292  1.0000
  H   H258      1.0  0.17824  0.40369  0.61122  1.0000
  C   C284      1.0  0.24493  0.99910  0.62900  1.0000
  C   C285      1.0  0.06550  0.01999  0.53252  1.0000
  H   H259      1.0  0.20063  0.15743  0.69269  1.0000
  H   H260      1.0  0.09387  0.46469  0.64060  1.0000
  H   H261      1.0  0.17892  0.06252  0.48769  1.0000
  C   C286      1.0  0.08213  0.42091  0.70392  1.0000
  H   H262      1.0  0.06279  0.46579  0.68012  1.0000
  H   H263      1.0  0.31031  0.10887  0.70284  1.0000
  H   H264      1.0  0.22455  0.15464  0.67026  1.0000
  H   H265      1.0  0.20674  0.01096  0.52213  1.0000
  H   H266      1.0  0.99109  0.12643  0.60298  1.0000
  H   H267      1.0  0.05859  0.42387  0.68971  1.0000
  C   C287      1.0  0.06973  0.43293  0.69365  1.0000
  H   H268      1.0  0.12363  0.99058  0.57805  1.0000
  C   C288      1.0  0.16761  0.46891  0.68371  1.0000
  H   H269      1.0  0.10083  0.07871  0.49958  1.0000
  H   H270      1.0  0.17089  0.00595  0.56283  1.0000
  H   H271      1.0  0.06861  0.45190  0.62868  1.0000
  H   H272      1.0  0.17037  0.00713  0.60110  1.0000
  H   H273      1.0  0.17029  0.08871  0.52682  1.0000
  H   H274      1.0  0.23947  0.99247  0.67588  1.0000
  C   C289      1.0  0.09675  0.43273  0.70867  1.0000
  C   C290      1.0  0.05948  0.04472  0.53028  1.0000
  H   H275      1.0  0.22036  0.98362  0.71184  1.0000
  C   C291      1.0  0.19152  0.37139  0.63169  1.0000
  C   C292      1.0  0.18927  0.46834  0.70577  1.0000
  C   C293      1.0  0.07597  0.10806  0.62770  1.0000
  H   H276      1.0  0.15995  0.04973  0.55956  1.0000
  C   C294      1.0  0.02478  0.37959  0.67176  1.0000
  H   H277      1.0  0.12797  0.36671  0.60187  1.0000
  N   N23       1.0  0.08773  0.04697  0.50989  1.0000
  H   H278      1.0  0.00967  0.32908  0.66111  1.0000
  H   H279      1.0  0.10696  0.01388  0.50479  1.0000
  H   H280      1.0  0.15296  0.08629  0.54303  1.0000
  H   H281      1.0  0.02798  0.36147  0.67698  1.0000
  C   C295      1.0  0.00565  0.31116  0.66242  1.0000
  C   C296      1.0  0.09655  0.47937  0.63248  1.0000
  H   H282      1.0  0.18741  0.36143  0.64201  1.0000
  H   H283      1.0  0.08723  0.06407  0.48985  1.0000
  H   H284      1.0  0.16658  0.33623  0.63418  1.0000
  C   C297      1.0  0.19679  0.01933  0.53048  1.0000
  N   N24       1.0  0.06892  0.09462  0.62020  1.0000
  H   H285      1.0  0.14886  0.40188  0.59726  1.0000
  H   H286      1.0  0.15916  0.46940  0.67522  1.0000
  H   H287      1.0  0.00420  0.23512  0.62829  1.0000
  C   C298      1.0  0.26735  0.01913  0.63935  1.0000
  C   C299      1.0  0.18958  0.00548  0.54272  1.0000
  H   H288      1.0  0.06285  0.11950  0.63361  1.0000
  H   H289      1.0  0.19744  0.46799  0.71434  1.0000
  H   H290      1.0  0.03212  0.25507  0.65952  1.0000
  H   H291      1.0  0.10681  0.42309  0.71642  1.0000
  C   C300      1.0  0.08272  0.00883  0.52331  1.0000
  S   S104      1.0  0.25116  0.06482  0.71059  1.0000
  C   C301      1.0  0.07092  0.05804  0.51889  1.0000
  H   H292      1.0  0.00929  0.10203  0.58525  1.0000
  C   C302      1.0  0.99021  0.10395  0.58889  1.0000
  H   H293      1.0  0.06126  0.46914  0.61327  1.0000
  H   H294      1.0  0.24916  0.06372  0.64975  1.0000
  C   C303      1.0  0.14608  0.34910  0.61831  1.0000
  H   H295      1.0  0.18431  0.08831  0.54103  1.0000
  C   C304      1.0  0.20819  0.16744  0.67135  1.0000
  C   C305      1.0  0.00252  0.38885  0.66781  1.0000
  C   C306      1.0  0.06391  0.47043  0.62342  1.0000
  C   C307      1.0  0.12151  0.46845  0.59177  1.0000
  H   H296      1.0  0.05687  0.00957  0.54143  1.0000
  C   C308      1.0  0.99928  0.04027  0.55967  1.0000
  H   H297      1.0  0.12716  0.45586  0.71392  1.0000
  H   H298      1.0  0.19419  0.98622  0.54407  1.0000
  H   H299      1.0  0.11672  0.05214  0.49384  1.0000
  H   H300      1.0  0.99933  0.19984  0.61978  1.0000
  C   C309      1.0  0.99459  0.26574  0.66570  1.0000
  H   H301      1.0  0.04692  0.47871  0.62896  1.0000
  H   H302      1.0  0.28330  0.99481  0.62557  1.0000
  C   C310      1.0  0.32093  0.10647  0.71064  1.0000
  H   H303      1.0  0.16892  0.47917  0.60328  1.0000
  H   H304      1.0  0.20684  0.00601  0.63495  1.0000
  C   C311      1.0  0.13814  0.98506  0.58372  1.0000
  H   H305      1.0  0.99057  0.27847  0.62806  1.0000
  H   H306      1.0  0.24428  0.98636  0.62275  1.0000
  H   H307      1.0  0.08083  0.40239  0.70797  1.0000
  S   S105      1.0  0.31889  0.05786  0.71421  1.0000
  H   H308      1.0  0.99053  0.24785  0.66690  1.0000
  H   H309      1.0  0.10167  0.47902  0.71626  1.0000
  H   H310      1.0  0.12300  0.48058  0.70089  1.0000
  S   S106      1.0  0.21091  0.03219  0.94782  1.0000
  Fe  Fe52      1.0  0.24901  0.03738  0.94625  1.0000
  H   H311      1.0  0.31958  0.01707  0.73555  1.0000
  C   C312      1.0  0.29583  0.04251  0.91886  1.0000
  H   H312      1.0  0.29628  0.04752  0.94852  1.0000
  H   H313      1.0  0.16909  0.98851  0.94800  1.0000
  H   H314      1.0  0.17399  0.14146  0.97230  1.0000
  C   C313      1.0  0.26477  0.46023  0.95284  1.0000
  H   H315      1.0  0.27854  0.03605  0.73121  1.0000
  S   S107      1.0  0.24325  0.04828  0.96653  1.0000
  H   H316      1.0  0.26401  0.02981  0.89516  1.0000
  C   C314      1.0  0.23460  0.01390  0.91666  1.0000
  C   C315      1.0  0.31789  0.06229  0.95843  1.0000
  H   H317      1.0  0.28577  0.42730  0.75527  1.0000
  S   S108      1.0  0.26854  0.05644  0.92713  1.0000
  C   C316      1.0  0.28814  0.98723  0.76935  1.0000
  C   C317      1.0  0.31067  0.00874  0.74507  1.0000
  C   C318      1.0  0.29745  0.45911  0.93437  1.0000
  C   C319      1.0  0.29440  0.00196  0.89552  1.0000
  S   S109      1.0  0.23164  0.00608  0.73348  1.0000
  H   H318      1.0  0.27419  0.46262  0.97153  1.0000
  S   S110      1.0  0.26216  0.99910  0.95342  1.0000
  H   H319      1.0  0.31679  0.46355  0.96213  1.0000
  C   C320      1.0  0.29484  0.45768  0.74067  1.0000
  N   N25       1.0  0.31282  0.46068  0.94252  1.0000
  C   C321      1.0  0.27954  0.47631  0.77148  1.0000
  H   H320      1.0  0.22342  0.01754  0.90871  1.0000
  C   C322      1.0  0.30003  0.43680  0.74989  1.0000
  H   H321      1.0  0.25776  0.01370  0.76544  1.0000
  H   H322      1.0  0.30385  0.45846  0.92387  1.0000
  H   H323      1.0  0.31765  0.46770  0.76955  1.0000
  C   C323      1.0  0.27489  0.03803  0.74187  1.0000
  H   H324      1.0  0.31211  0.08052  0.95392  1.0000
  N   N26       1.0  0.28747  0.01734  0.74975  1.0000
  H   H325      1.0  0.30123  0.01306  0.93480  1.0000
  C   C324      1.0  0.28063  0.46153  0.96108  1.0000
  H   H326      1.0  0.27669  0.46427  0.73902  1.0000
  C   C325      1.0  0.30531  0.05288  0.90594  1.0000
  H   H327      1.0  0.28111  0.05455  0.74268  1.0000
  H   H328      1.0  0.23554  0.03099  0.91966  1.0000
  Fe  Fe53      1.0  0.22378  0.99409  0.95599  1.0000
  H   H329      1.0  0.18926  0.09990  0.96828  1.0000
  H   H330      1.0  0.25521  0.03988  0.74499  1.0000
  N   N27       1.0  0.25869  0.00221  0.91189  1.0000
  C   C326      1.0  0.27143  0.01273  0.90042  1.0000
  C   C327      1.0  0.30278  0.48084  0.76651  1.0000
  H   H331      1.0  0.24597  0.46037  0.95691  1.0000
  Fe  Fe54      1.0  0.25428  0.00937  0.97385  1.0000
  H   H332      1.0  0.30924  0.00581  0.95920  1.0000
  H   H333      1.0  0.22544  0.00266  0.92540  1.0000
  C   C328      1.0  0.30814  0.02121  0.92489  1.0000
  C   C329      1.0  0.31320  0.47000  0.73367  1.0000
  Fe  Fe55      1.0  0.20648  0.03892  0.96889  1.0000
  H   H334      1.0  0.30470  0.01059  0.88659  1.0000
  C   C330      1.0  0.27317  0.45908  0.93938  1.0000
  C   C331      1.0  0.31643  0.02037  0.96123  1.0000
  C   C332      1.0  0.27624  0.00704  0.76179  1.0000
  H   H335      1.0  0.29601  0.06947  0.90123  1.0000
  C   C333      1.0  0.30903  0.04374  0.95535  1.0000
  C   C334      1.0  0.17341  0.10362  0.97553  1.0000
  H   H336      1.0  0.27659  0.45989  0.77823  1.0000
  H   H337      1.0  0.26094  0.45834  0.93285  1.0000
  C   C335      1.0  0.30472  0.46181  0.95573  1.0000
  H   H338      1.0  0.32191  0.34939  0.76004  1.0000
  C   C336      1.0  0.24857  0.98211  0.74281  1.0000
  H   H339      1.0  0.25944  0.52523  0.14043  1.0000
  H   H340      1.0  0.22322  0.61120  0.20543  1.0000
  C   C337      1.0  0.20872  0.61293  0.19951  1.0000
  S   S111      1.0  0.25906  0.55352  0.00843  1.0000
  C   C338      1.0  0.14545  0.65560  0.21544  1.0000
  H   H341      1.0  0.31390  0.63597  0.04530  1.0000
  H   H342      1.0  0.31393  0.54814  0.12059  1.0000
  H   H343      1.0  0.27745  0.96838  0.19853  1.0000
  H   H344      1.0  0.31330  0.51115  0.06010  1.0000
  Fe  Fe56      1.0  0.25820  0.55833  0.19667  1.0000
  S   S112      1.0  0.22825  0.55204  0.18769  1.0000
  S   S113      1.0  0.27002  0.59416  0.18828  1.0000
  S   S114      1.0  0.25532  0.49738  0.17073  1.0000
  H   H345      1.0  0.31506  0.56099  0.18659  1.0000
  Fe  Fe57      1.0  0.24587  0.51377  0.18980  1.0000
  Fe  Fe58      1.0  0.20972  0.54315  0.20878  1.0000
  H   H346      1.0  0.17818  0.50029  0.98925  1.0000
  S   S115      1.0  0.27721  0.52060  0.19773  1.0000
  S   S116      1.0  0.23844  0.55180  0.21757  1.0000
  C   C339      1.0  0.31673  0.91224  0.21528  1.0000
  H   H347      1.0  0.27946  0.90914  0.22180  1.0000
  C   C340      1.0  0.28062  0.55037  0.15090  1.0000
  H   H348      1.0  0.28668  0.61300  0.02385  1.0000
  C   C341      1.0  0.27651  0.52836  0.13377  1.0000
  H   H349      1.0  0.20543  0.64698  0.21402  1.0000
  C   C342      1.0  0.30469  0.48703  0.10242  1.0000
  C   C343      1.0  0.30431  0.62006  0.17396  1.0000
  C   C344      1.0  0.30534  0.53100  0.01096  1.0000
  C   C345      1.0  0.18833  0.64479  0.21209  1.0000
  H   H350      1.0  0.30623  0.52558  0.00146  1.0000
  N   N28       1.0  0.18696  0.62794  0.20486  1.0000
  C   C346      1.0  0.29965  0.59758  0.18083  1.0000
  H   H351      1.0  0.16852  0.67113  0.22395  1.0000
  C   C347      1.0  0.14429  0.63887  0.20772  1.0000
  S   S117      1.0  0.22439  0.50388  0.21028  1.0000
  H   H352      1.0  0.13712  0.49150  0.99823  1.0000
  Fe  Fe59      1.0  0.25452  0.51317  0.21803  1.0000
  C   C348      1.0  0.31842  0.57838  0.18131  1.0000
  C   C349      1.0  0.31765  0.59276  0.01397  1.0000
  H   H353      1.0  0.26029  0.50535  0.08622  1.0000
  C   C350      1.0  0.30762  0.55308  0.13040  1.0000
  H   H354      1.0  0.27239  0.53598  0.12361  1.0000
  S   S118      1.0  0.21808  0.53987  0.98550  1.0000
  S   S119      1.0  0.27144  0.50618  0.98384  1.0000
  H   H355      1.0  0.21525  0.62051  0.18901  1.0000
  C   C351      1.0  0.30539  0.60579  0.02392  1.0000
  H   H356      1.0  0.28578  0.63126  0.04231  1.0000
  C   C352      1.0  0.29546  0.96451  0.19334  1.0000
  Fe  Fe60      1.0  0.25488  0.54189  0.98927  1.0000
  S   S120      1.0  0.17086  0.55825  0.21543  1.0000
  H   H357      1.0  0.29034  0.93129  0.18888  1.0000
  H   H358      1.0  0.09378  0.93230  0.22408  1.0000
  H   H359      1.0  0.28989  0.63499  0.17352  1.0000
  H   H360      1.0  0.26556  0.54336  0.15740  1.0000
  C   C353      1.0  0.28432  0.54426  0.01662  1.0000
  C   C354      1.0  0.28352  0.55122  0.02897  1.0000
  C   C355      1.0  0.30376  0.62216  0.04430  1.0000
  H   H361      1.0  0.28379  0.52221  0.07937  1.0000
  C   C356      1.0  0.30582  0.95396  0.22591  1.0000
  H   H362      1.0  0.26734  0.56153  0.03341  1.0000
  H   H363      1.0  0.30283  0.55129  0.04480  1.0000
  Fe  Fe61      1.0  0.23555  0.50503  0.97889  1.0000
  H   H364      1.0  0.12920  0.66554  0.22016  1.0000
  H   H365      1.0  0.12712  0.63586  0.20630  1.0000
  H   H366      1.0  0.28561  0.57025  0.16530  1.0000
  H   H367      1.0  0.16425  0.61150  0.19689  1.0000
  C   C357      1.0  0.16536  0.62514  0.20244  1.0000
  C   C358      1.0  0.30360  0.54534  0.03549  1.0000
  C   C359      1.0  0.16759  0.65871  0.21759  1.0000
  C   C360      1.0  0.30283  0.94344  0.18785  1.0000
  C   C361      1.0  0.31169  0.97989  0.19259  1.0000
  C   C362      1.0  0.27195  0.51148  0.07677  1.0000
  C   C363      1.0  0.29337  0.91946  0.22145  1.0000
  S   S121      1.0  0.31003  0.51583  0.10256  1.0000
  H   H368      1.0  0.30169  0.60986  0.05401  1.0000
  H   H369      1.0  0.25819  0.48259  0.14561  1.0000
  N   N29       1.0  0.28607  0.49129  0.07078  1.0000
  N   N30       1.0  0.28837  0.54447  0.13846  1.0000
  C   C364      1.0  0.31144  0.57467  0.14728  1.0000
  H   H370      1.0  0.26073  0.52297  0.06968  1.0000
  H   H371      1.0  0.28840  0.51095  0.13335  1.0000
  C   C365      1.0  0.29195  0.56560  0.15546  1.0000
  N   N31       1.0  0.31671  0.60891  0.03372  1.0000
  H   H372      1.0  0.20533  0.59459  0.19992  1.0000
  C   C366      1.0  0.30692  0.49423  0.06223  1.0000
  H   H373      1.0  0.27089  0.49146  0.11558  1.0000
  H   H374      1.0  0.31047  0.98121  0.00871  1.0000
  H   H375      1.0  0.30846  0.58972  0.00643  1.0000
  H   H376      1.0  0.32039  0.58652  0.15074  1.0000
  C   C367      1.0  0.31940  0.56836  0.13467  1.0000
  C   C368      1.0  0.17507  0.48204  0.99198  1.0000
  C   C369      1.0  0.16230  0.57923  0.22647  1.0000
  H   H377      1.0  0.32070  0.89625  0.21080  1.0000
  H   H378      1.0  0.12468  0.58101  0.22670  1.0000
  C   C370      1.0  0.28789  0.94052  0.22675  1.0000
  Fe  Fe62      1.0  0.07144  0.51552  0.37448  1.0000
  S   S122      1.0  0.09223  0.54203  0.37830  1.0000
  S   S123      1.0  0.03073  0.52387  0.37781  1.0000
  Fe  Fe63      1.0  0.23370  0.52359  0.46713  1.0000
  S   S124      1.0  0.14092  0.50767  0.36655  1.0000
  Fe  Fe64      1.0  0.11788  0.51043  0.38641  1.0000
  S   S125      1.0  0.13617  0.50169  0.40490  1.0000
  Fe  Fe65      1.0  0.11376  0.53713  0.35824  1.0000
  S   S126      1.0  0.12566  0.56718  0.34249  1.0000
  H   H379      1.0  0.30577  0.50856  0.39876  1.0000
  S   S127      1.0  0.09165  0.51277  0.35391  1.0000
  Fe  Fe66      1.0  0.25733  0.56693  0.45530  1.0000
  S   S128      1.0  0.27142  0.53034  0.46513  1.0000
  H   H380      1.0  0.30173  0.97072  0.22962  1.0000
  Fe  Fe67      1.0  0.22784  0.54735  0.43887  1.0000
  S   S129      1.0  0.24022  0.50947  0.44766  1.0000
  S   S130      1.0  0.20305  0.55968  0.42335  1.0000
  C   C371      1.0  0.14185  0.51858  0.44821  1.0000
  C   C372      1.0  0.16363  0.95733  0.40432  1.0000
  Fe  Fe68      1.0  0.27661  0.52014  0.44472  1.0000
  H   H381      1.0  0.12713  0.93232  0.40249  1.0000
  S   S131      1.0  0.21931  0.56083  0.45841  1.0000
  S   S132      1.0  0.26442  0.55753  0.43476  1.0000
  Fe  Fe69      1.0  0.04725  0.89583  0.29013  1.0000
  S   S133      1.0  0.06781  0.86110  0.29859  1.0000
  S   S134      1.0  0.00729  0.90247  0.29732  1.0000
  Fe  Fe70      1.0  0.09257  0.91370  0.27394  1.0000
  S   S135      1.0  0.11645  0.88007  0.28094  1.0000
  S   S136      1.0  0.10402  0.94556  0.25922  1.0000
  Fe  Fe71      1.0  0.08820  0.86077  0.27787  1.0000
  S   S137      1.0  0.09526  0.83089  0.26557  1.0000
  Fe  Fe72      1.0  0.09388  0.88356  0.30103  1.0000
  S   S138      1.0  0.10822  0.87508  0.32044  1.0000
  S   S139      1.0  0.06597  0.89440  0.26917  1.0000
  S   S140      1.0  0.07168  0.91827  0.29423  1.0000
  Fe  Fe73      1.0  0.04980  0.67056  0.26034  1.0000
  S   S141      1.0  0.04199  0.67742  0.28136  1.0000
  S   S142      1.0  0.01953  0.67942  0.24842  1.0000
  Fe  Fe74      1.0  0.10235  0.65302  0.26122  1.0000
  S   S143      1.0  0.09848  0.65863  0.28248  1.0000
  H   H382      1.0  0.07092  0.94848  0.33059  1.0000
  Fe  Fe75      1.0  0.06539  0.64227  0.28583  1.0000
  S   S144      1.0  0.05174  0.61750  0.30425  1.0000
  Fe  Fe76      1.0  0.07555  0.69365  0.27638  1.0000
  S   S145      1.0  0.07506  0.72438  0.28729  1.0000
  S   S146      1.0  0.07076  0.63396  0.26510  1.0000
  S   S147      1.0  0.08187  0.68951  0.25477  1.0000
  C   C373      1.0  0.18162  0.54706  0.26086  1.0000
  C   C374      1.0  0.13795  0.58775  0.23029  1.0000
  S   S148      1.0  0.13470  0.93834  0.35723  1.0000
  H   H383      1.0  0.17893  0.53686  0.47040  1.0000
  N   N32       1.0  0.00983  0.53558  0.34047  1.0000
  C   C375      1.0  0.19919  0.51748  0.24744  1.0000
  H   H384      1.0  0.21156  0.97825  0.26405  1.0000
  C   C376      1.0  0.17330  0.94381  0.38347  1.0000
  C   C377      1.0  0.17195  0.60575  0.23933  1.0000
  H   H385      1.0  0.21025  0.94111  0.37410  1.0000
  C   C378      1.0  0.99943  0.64040  0.26245  1.0000
  N   N33       1.0  0.00834  0.83212  0.28440  1.0000
  H   H386      1.0  0.23354  0.51389  0.26219  1.0000
  C   C379      1.0  0.13547  0.55947  0.43591  1.0000
  H   H387      1.0  0.18323  0.55920  0.26722  1.0000
  H   H388      1.0  0.27433  0.63967  0.47076  1.0000
  C   C380      1.0  0.13064  0.60544  0.23846  1.0000
  C   C381      1.0  0.01293  0.82415  0.25839  1.0000
  H   H389      1.0  0.11189  0.61234  0.24103  1.0000
  C   C382      1.0  0.16870  0.53158  0.46410  1.0000
  C   C383      1.0  0.01395  0.96316  0.32461  1.0000
  C   C384      1.0  0.99085  0.82477  0.26674  1.0000
  H   H390      1.0  0.13984  0.53262  0.24636  1.0000
  H   H391      1.0  0.01520  0.63522  0.26713  1.0000
  C   C385      1.0  0.13393  0.95054  0.25501  1.0000
  C   C386      1.0  0.15248  0.93426  0.26010  1.0000
  C   C387      1.0  0.17632  0.93767  0.25548  1.0000
  H   H392      1.0  0.14852  0.91872  0.26731  1.0000
  H   H393      1.0  0.19062  0.92470  0.25921  1.0000
  C   C388      1.0  0.11567  0.89429  0.32972  1.0000
  C   C389      1.0  0.12309  0.88388  0.34190  1.0000
  C   C390      1.0  0.12879  0.89778  0.35001  1.0000
  C   C391      1.0  0.12696  0.92246  0.34622  1.0000
  C   C392      1.0  0.11963  0.93322  0.33396  1.0000
  C   C393      1.0  0.11414  0.91906  0.32564  1.0000
  H   H394      1.0  0.12444  0.86482  0.34511  1.0000
  H   H395      1.0  0.13456  0.88926  0.35938  1.0000
  H   H396      1.0  0.11844  0.95227  0.33087  1.0000
  H   H397      1.0  0.10872  0.92721  0.31615  1.0000
  C   C394      1.0  0.08981  0.80125  0.27179  1.0000
  C   C395      1.0  0.08265  0.79334  0.28538  1.0000
  C   C396      1.0  0.07815  0.76981  0.28989  1.0000
  C   C397      1.0  0.08066  0.75392  0.28090  1.0000
  C   C398      1.0  0.08762  0.76189  0.26729  1.0000
  C   C399      1.0  0.09221  0.78542  0.26278  1.0000
  H   H398      1.0  0.08088  0.80521  0.29246  1.0000
  H   H399      1.0  0.07288  0.76381  0.30044  1.0000
  H   H400      1.0  0.08968  0.74986  0.26026  1.0000
  H   H401      1.0  0.09773  0.79133  0.25224  1.0000
  H   H402      1.0  0.17564  0.50609  0.23708  1.0000
  H   H403      1.0  0.04475  0.54169  0.33127  1.0000
  H   H404      1.0  0.08207  0.92768  0.24166  1.0000
  C   C400      1.0  0.30864  0.58557  0.46879  1.0000
  C   C401      1.0  0.22477  0.53239  0.25892  1.0000
  C   C402      1.0  0.02718  0.92163  0.32539  1.0000
  C   C403      1.0  0.09160  0.91859  0.23320  1.0000
  S   S149      1.0  0.09493  0.48433  0.38448  1.0000
  H   H405      1.0  0.01661  0.89291  0.27021  1.0000
  H   H406      1.0  0.31795  0.55504  0.43252  1.0000
  H   H407      1.0  0.01464  0.82139  0.24819  1.0000
  C   C404      1.0  0.02029  0.48615  0.36832  1.0000
  N   N34       1.0  0.20121  0.53218  0.25581  1.0000
  H   H408      1.0  0.01515  0.50152  0.33458  1.0000
  C   C405      1.0  0.31373  0.94410  0.47430  1.0000
  H   H409      1.0  0.30860  0.56876  0.46580  1.0000
  C   C406      1.0  0.07289  0.60159  0.31414  1.0000
  C   C407      1.0  0.09713  0.60309  0.31021  1.0000
  C   C408      1.0  0.11340  0.59186  0.31883  1.0000
  C   C409      1.0  0.10549  0.57898  0.33133  1.0000
  C   C410      1.0  0.08134  0.57692  0.33511  1.0000
  C   C411      1.0  0.06506  0.58827  0.32654  1.0000
  H   H410      1.0  0.10335  0.61310  0.30062  1.0000
  H   H411      1.0  0.13210  0.59339  0.31586  1.0000
  H   H412      1.0  0.07514  0.56719  0.34482  1.0000
  H   H413      1.0  0.04629  0.58721  0.32962  1.0000
  C   C412      1.0  0.15723  0.51700  0.40855  1.0000
  C   C413      1.0  0.17062  0.50602  0.41872  1.0000
  C   C414      1.0  0.18579  0.51837  0.42289  1.0000
  C   C415      1.0  0.18749  0.54200  0.41702  1.0000
  C   C416      1.0  0.17471  0.55268  0.40655  1.0000
  C   C417      1.0  0.15976  0.54024  0.40228  1.0000
  C   C418      1.0  0.15918  0.54714  0.25774  1.0000
  H   H414      1.0  0.19550  0.50991  0.43095  1.0000
  H   H415      1.0  0.17591  0.57094  0.40193  1.0000
  H   H416      1.0  0.14960  0.54893  0.39445  1.0000
  H   H417      1.0  0.14377  0.55934  0.26151  1.0000
  C   C419      1.0  0.01176  0.50778  0.37294  1.0000
  C   C420      1.0  0.13937  0.97065  0.24567  1.0000
  N   N35       1.0  0.15679  0.94994  0.39414  1.0000
  H   H418      1.0  0.18525  0.61292  0.24264  1.0000
  H   H419      1.0  0.02200  0.96614  0.35664  1.0000
  H   H420      1.0  0.01759  0.84890  0.29871  1.0000
  C   C421      1.0  0.20438  0.95346  0.39295  1.0000
  C   C422      1.0  0.99383  0.55537  0.34321  1.0000
  H   H421      1.0  0.21480  0.50602  0.24324  1.0000
  C   C423      1.0  0.15152  0.50142  0.45811  1.0000
  C   C424      1.0  0.31276  0.59220  0.43423  1.0000
  H   H422      1.0  0.19795  0.58158  0.22853  1.0000
  H   H423      1.0  0.29495  0.59618  0.43168  1.0000
  C   C425      1.0  0.03274  0.82733  0.26321  1.0000
  C   C426      1.0  0.13811  0.87046  0.24666  1.0000
  C   C427      1.0  0.03010  0.83132  0.27632  1.0000
  C   C428      1.0  0.28905  0.60378  0.46765  1.0000
  S   S150      1.0  0.13993  0.63945  0.25133  1.0000
  C   C429      1.0  0.05388  0.94638  0.32856  1.0000
  N   N36       1.0  0.00956  0.94104  0.32419  1.0000
  C   C430      1.0  0.18750  0.95920  0.40390  1.0000
  H   H424      1.0  0.16618  0.97481  0.27856  1.0000
  C   C431      1.0  0.30931  0.62921  0.47634  1.0000
  C   C432      1.0  0.19730  0.94562  0.38267  1.0000
  C   C433      1.0  0.13441  0.91674  0.23281  1.0000
  H   H425      1.0  0.14798  0.57213  0.43093  1.0000
  H   H426      1.0  0.17513  0.87242  0.24595  1.0000
  H   H427      1.0  0.08035  0.90638  0.23149  1.0000
  S   S151      1.0  0.26604  0.49770  0.23820  1.0000
  H   H428      1.0  0.23628  0.54030  0.24987  1.0000
  C   C434      1.0  0.99827  0.89140  0.27436  1.0000
  C   C435      1.0  0.13168  0.94794  0.39496  1.0000
  C   C436      1.0  0.11639  0.88279  0.24314  1.0000
  H   H429      1.0  0.16791  0.93776  0.37542  1.0000
  C   C437      1.0  0.00253  0.51730  0.33664  1.0000
  C   C438      1.0  0.04951  0.92395  0.32777  1.0000
  C   C439      1.0  0.17706  0.51722  0.24405  1.0000
  H   H430      1.0  0.13912  0.85250  0.25231  1.0000
  C   C440      1.0  0.18175  0.95750  0.24589  1.0000
  C   C441      1.0  0.03511  0.53433  0.34113  1.0000
  N   N37       1.0  0.07021  0.65653  0.32438  1.0000
  C   C442      1.0  0.08553  0.64098  0.33179  1.0000
  C   C443      1.0  0.07839  0.67419  0.31472  1.0000
  C   C444      1.0  0.10992  0.64230  0.32923  1.0000
  C   C445      1.0  0.10261  0.67617  0.31197  1.0000
  C   C446      1.0  0.11849  0.65995  0.31919  1.0000
  C   C447      1.0  0.04469  0.65503  0.32717  1.0000
  H   H431      1.0  0.07912  0.62693  0.33945  1.0000
  H   H432      1.0  0.06622  0.68667  0.30894  1.0000
  H   H433      1.0  0.12210  0.62926  0.33479  1.0000
  H   H434      1.0  0.10897  0.68999  0.30409  1.0000
  H   H435      1.0  0.13740  0.66095  0.31695  1.0000
  H   H436      1.0  0.03518  0.66713  0.33423  1.0000
  H   H437      1.0  0.03696  0.65991  0.31780  1.0000
  H   H438      1.0  0.04162  0.63652  0.33143  1.0000
  H   H439      1.0  0.02405  0.90422  0.32452  1.0000
  S   S152      1.0  0.26436  0.60084  0.46070  1.0000
  C   C448      1.0  0.15826  0.88162  0.24308  1.0000
  H   H440      1.0  0.04555  0.83393  0.27996  1.0000
  C   C449      1.0  0.16502  0.50804  0.46611  1.0000
  H   H441      1.0  0.26970  0.94667  0.23124  1.0000
  H   H442      1.0  0.01174  0.81875  0.30460  1.0000
  H   H443      1.0  0.22372  0.54265  0.26703  1.0000
  C   C450      1.0  0.00618  0.83588  0.29817  1.0000
  H   H444      1.0  0.04363  0.51566  0.34418  1.0000
  C   C451      1.0  0.99737  0.66088  0.25275  1.0000
  H   H445      1.0  0.00003  0.97857  0.32359  1.0000
  H   H446      1.0  0.99966  0.56988  0.34619  1.0000
  H   H447      1.0  0.06336  0.90847  0.32891  1.0000
  H   H448      1.0  0.13173  0.55114  0.42793  1.0000
  C   C452      1.0  0.14769  0.61484  0.24278  1.0000
  C   C453      1.0  0.15695  0.53210  0.24927  1.0000
  H   H449      1.0  0.03732  0.54439  0.34876  1.0000
  N   N38       1.0  0.14610  0.54153  0.44611  1.0000
  S   S153      1.0  0.21192  0.96030  0.23968  1.0000
  H   H450      1.0  0.16288  0.56628  0.45218  1.0000
  H   H451      1.0  0.15047  0.96257  0.41267  1.0000
  C   C454      1.0  0.15931  0.54815  0.45391  1.0000
  H   H452      1.0  0.17188  0.91396  0.23348  1.0000
  C   C455      1.0  0.17922  0.58801  0.23126  1.0000
  H   H453      1.0  0.11859  0.56950  0.44052  1.0000
  S   S154      1.0  0.28881  0.95222  0.46581  1.0000
  C   C456      1.0  0.28938  0.62547  0.47161  1.0000
  H   H454      1.0  0.17275  0.49502  0.47384  1.0000
  H   H455      1.0  0.21297  0.48355  0.37083  1.0000
  H   H456      1.0  0.05007  0.82676  0.25686  1.0000
  H   H457      1.0  0.19271  0.96573  0.41184  1.0000
  H   H458      1.0  0.14637  0.97924  0.30164  1.0000
  H   H459      1.0  0.10078  0.87405  0.24610  1.0000
  H   H460      1.0  0.13144  0.51330  0.44198  1.0000
  N   N39       1.0  0.11478  0.90558  0.23624  1.0000
  H   H461      1.0  0.22286  0.95528  0.39243  1.0000
  C   C457      1.0  0.03617  0.96619  0.32674  1.0000
  Fe  Fe77      1.0  0.11678  0.48362  0.36408  1.0000
  S   S155      1.0  0.31221  0.50578  0.43294  1.0000
  H   H462      1.0  0.99018  0.72242  0.25994  1.0000
  H   H463      1.0  0.16887  0.48801  0.42360  1.0000
  Fe  Fe78      1.0  0.12692  0.97805  0.35666  1.0000
  H   H464      1.0  0.12776  0.94579  0.38523  1.0000
  C   C458      1.0  0.15648  0.90485  0.23603  1.0000
  C   C459      1.0  0.16317  0.97422  0.24117  1.0000
  H   H465      1.0  0.11997  0.96435  0.39781  1.0000
  C   C460      1.0  0.30924  0.48937  0.39929  1.0000
  H   H466      1.0  0.31240  0.62777  0.43721  1.0000
  H   H467      1.0  0.99118  0.88156  0.25674  1.0000
  H   H468      1.0  0.28238  0.48316  0.41663  1.0000
  H   H469      1.0  0.14864  0.48311  0.45953  1.0000
  H   H470      1.0  0.31845  0.90730  0.47200  1.0000
  H   H471      1.0  0.13293  0.93519  0.22790  1.0000
  Fe  Fe79      1.0  0.25246  0.56439  0.70221  1.0000
  S   S156      1.0  0.21480  0.56285  0.71214  1.0000
  S   S157      1.0  0.26448  0.59437  0.68629  1.0000
  H   H472      1.0  0.26976  0.59709  0.64431  1.0000
  Fe  Fe80      1.0  0.22278  0.52414  0.70971  1.0000
  S   S158      1.0  0.19760  0.51530  0.69747  1.0000
  S   S159      1.0  0.26024  0.52656  0.69888  1.0000
  C   C461      1.0  0.30330  0.92841  0.51275  1.0000
  Fe  Fe81      1.0  0.21333  0.91404  0.60611  1.0000
  S   S160      1.0  0.20812  0.89860  0.62788  1.0000
  S   S161      1.0  0.18216  0.92381  0.59486  1.0000
  Fe  Fe82      1.0  0.26717  0.90488  0.60392  1.0000
  S   S162      1.0  0.26601  0.88891  0.62566  1.0000
  C   C462      1.0  0.26226  0.95865  0.70455  1.0000
  Fe  Fe83      1.0  0.23808  0.86960  0.62221  1.0000
  S   S163      1.0  0.23648  0.83051  0.63072  1.0000
  Fe  Fe84      1.0  0.23635  0.91945  0.62934  1.0000
  S   S164      1.0  0.22720  0.94205  0.64597  1.0000
  S   S165      1.0  0.24132  0.88358  0.60036  1.0000
  S   S166      1.0  0.23945  0.93686  0.60775  1.0000
  Fe  Fe85      1.0  0.20864  0.66997  0.62659  1.0000
  S   S167      1.0  0.18536  0.69771  0.61405  1.0000
  S   S168      1.0  0.19397  0.65464  0.64780  1.0000
  Fe  Fe86      1.0  0.24921  0.66537  0.60376  1.0000
  S   S169      1.0  0.22924  0.69205  0.58956  1.0000
  S   S170      1.0  0.28694  0.64894  0.59690  1.0000
  Fe  Fe87      1.0  0.21884  0.71399  0.60599  1.0000
  S   S171      1.0  0.22312  0.75299  0.59819  1.0000
  Fe  Fe88      1.0  0.19789  0.67348  0.59872  1.0000
  S   S172      1.0  0.17599  0.66705  0.58416  1.0000
  S   S173      1.0  0.24102  0.68809  0.61974  1.0000
  S   S174      1.0  0.21895  0.64486  0.61171  1.0000
  Fe  Fe89      1.0  0.11281  0.56375  0.57450  1.0000
  S   S175      1.0  0.13696  0.53563  0.56398  1.0000
  S   S176      1.0  0.12826  0.57461  0.59050  1.0000
  Fe  Fe90      1.0  0.07024  0.56093  0.56102  1.0000
  S   S177      1.0  0.09165  0.53285  0.54951  1.0000
  S   S178      1.0  0.03142  0.57676  0.55958  1.0000
  Fe  Fe91      1.0  0.10528  0.51666  0.56881  1.0000
  H   H473      1.0  0.23069  0.54297  0.67740  1.0000
  Fe  Fe92      1.0  0.12130  0.55460  0.54582  1.0000
  S   S179      1.0  0.14310  0.56868  0.52616  1.0000
  S   S180      1.0  0.08196  0.54344  0.58048  1.0000
  S   S181      1.0  0.09896  0.58416  0.55608  1.0000
  C   C463      1.0  0.00652  0.58283  0.52526  1.0000
  H   H474      1.0  0.21085  0.95570  0.71182  1.0000
  H   H475      1.0  0.18874  0.84833  0.64102  1.0000
  H   H476      1.0  0.28580  0.63749  0.72275  1.0000
  H   H477      1.0  0.17899  0.87329  0.59227  1.0000
  C   C464      1.0  0.25189  0.57572  0.49465  1.0000
  C   C465      1.0  0.01566  0.53755  0.55461  1.0000
  N   N40       1.0  0.04829  0.58043  0.52565  1.0000
  H   H478      1.0  0.15918  0.84046  0.64535  1.0000
  C   C466      1.0  0.17693  0.48892  0.68499  1.0000
  H   H479      1.0  0.03393  0.52859  0.55420  1.0000
  H   H480      1.0  0.16293  0.87062  0.63844  1.0000
  C   C467      1.0  0.19407  0.52328  0.49750  1.0000
  C   C468      1.0  0.17998  0.51223  0.50879  1.0000
  C   C469      1.0  0.16446  0.52581  0.51779  1.0000
  C   C470      1.0  0.16284  0.55060  0.51549  1.0000
  C   C471      1.0  0.17705  0.56161  0.50426  1.0000
  C   C472      1.0  0.19267  0.54804  0.49535  1.0000
  H   H481      1.0  0.07496  0.50715  0.60466  1.0000
  H   H482      1.0  0.15365  0.51710  0.52642  1.0000
  H   H483      1.0  0.17592  0.58077  0.50241  1.0000
  C   C473      1.0  0.29946  0.87615  0.57559  1.0000
  H   H484      1.0  0.30960  0.64626  0.47898  1.0000
  H   H485      1.0  0.27222  0.90360  0.49608  1.0000
  C   C474      1.0  0.16111  0.64217  0.58675  1.0000
  C   C475      1.0  0.16363  0.62364  0.59755  1.0000
  C   C476      1.0  0.15296  0.60333  0.59871  1.0000
  C   C477      1.0  0.13981  0.60128  0.58907  1.0000
  C   C478      1.0  0.13687  0.62002  0.57842  1.0000
  C   C479      1.0  0.14747  0.64037  0.57729  1.0000
  H   H486      1.0  0.17398  0.62487  0.60493  1.0000
  H   H487      1.0  0.15517  0.58900  0.60703  1.0000
  H   H488      1.0  0.12642  0.61889  0.57107  1.0000
  H   H489      1.0  0.14527  0.65474  0.56897  1.0000
  H   H490      1.0  0.28130  0.70873  0.53243  1.0000
  H   H491      1.0  0.32059  0.87014  0.52336  1.0000
  C   C480      1.0  0.27456  0.64066  0.56121  1.0000
  C   C481      1.0  0.30389  0.59810  0.51099  1.0000
  C   C482      1.0  0.27122  0.64420  0.57447  1.0000
  H   H492      1.0  0.27925  0.93877  0.64345  1.0000
  C   C483      1.0  0.28728  0.92705  0.50454  1.0000
  H   H493      1.0  0.25339  0.64751  0.58001  1.0000
  C   C484      1.0  0.16824  0.95383  0.59285  1.0000
  C   C485      1.0  0.31602  0.85014  0.60665  1.0000
  C   C486      1.0  0.26001  0.62437  0.71490  1.0000
  H   H494      1.0  0.06314  0.59950  0.53658  1.0000
  C   C487      1.0  0.29760  0.63661  0.55393  1.0000
  C   C488      1.0  0.31142  0.88623  0.51801  1.0000
  H   H495      1.0  0.26139  0.56257  0.66118  1.0000
  H   H496      1.0  0.19007  0.96498  0.60424  1.0000
  H   H497      1.0  0.17381  0.88234  0.61495  1.0000
  H   H498      1.0  0.14571  0.49379  0.58474  1.0000
  H   H499      1.0  0.26175  0.58417  0.63163  1.0000
  H   H500      1.0  0.28241  0.87421  0.58171  1.0000
  C   C489      1.0  0.30257  0.69819  0.56126  1.0000
  C   C490      1.0  0.23424  0.80874  0.62140  1.0000
  C   C491      1.0  0.23591  0.81369  0.60752  1.0000
  C   C492      1.0  0.23314  0.79616  0.60054  1.0000
  C   C493      1.0  0.22852  0.77358  0.60736  1.0000
  C   C494      1.0  0.22725  0.76852  0.62121  1.0000
  C   C495      1.0  0.23017  0.78600  0.62818  1.0000
  H   H501      1.0  0.23900  0.83108  0.60215  1.0000
  H   H502      1.0  0.23411  0.80027  0.58983  1.0000
  H   H503      1.0  0.22372  0.75123  0.62659  1.0000
  H   H504      1.0  0.22897  0.78194  0.63891  1.0000
  H   H505      1.0  0.10644  0.53142  0.60351  1.0000
  C   C496      1.0  0.24439  0.61235  0.67621  1.0000
  C   C497      1.0  0.25322  0.62752  0.66474  1.0000
  C   C498      1.0  0.23786  0.64104  0.65608  1.0000
  C   C499      1.0  0.21349  0.63976  0.65898  1.0000
  C   C500      1.0  0.20452  0.62534  0.67074  1.0000
  C   C501      1.0  0.21994  0.61145  0.67925  1.0000
  H   H506      1.0  0.27210  0.62847  0.66240  1.0000
  H   H507      1.0  0.24491  0.65230  0.64711  1.0000
  H   H508      1.0  0.18565  0.62437  0.67306  1.0000
  H   H509      1.0  0.21290  0.59989  0.68806  1.0000
  C   C502      1.0  0.08586  0.50316  0.61246  1.0000
  C   C503      1.0  0.30245  0.81872  0.59956  1.0000
  C   C504      1.0  0.24564  0.95415  0.65381  1.0000
  C   C505      1.0  0.30844  0.57592  0.50697  1.0000
  H   H510      1.0  0.20769  0.60454  0.63976  1.0000
  H   H511      1.0  0.30348  0.95852  0.65395  1.0000
  C   C506      1.0  0.01082  0.55988  0.52223  1.0000
  C   C507      1.0  0.26987  0.72654  0.55454  1.0000
  N   N41       1.0  0.08274  0.48449  0.62268  1.0000
  C   C508      1.0  0.17470  0.82319  0.62289  1.0000
  H   H512      1.0  0.25925  0.64140  0.55654  1.0000
  C   C509      1.0  0.17085  0.85170  0.63800  1.0000
  C   C510      1.0  0.18780  0.48881  0.69602  1.0000
  C   C511      1.0  0.30872  0.86165  0.56585  1.0000
  C   C512      1.0  0.29095  0.64325  0.58056  1.0000
  S   S182      1.0  0.30758  0.49723  0.72276  1.0000
  H   H513      1.0  0.25706  0.97284  0.69665  1.0000
  H   H514      1.0  0.17659  0.58579  0.65599  1.0000
  H   H515      1.0  0.24859  0.61711  0.50294  1.0000
  H   H516      1.0  0.17563  0.50465  0.67740  1.0000
  H   H517      1.0  0.30329  0.68494  0.53819  1.0000
  C   C513      1.0  0.02558  0.59289  0.52694  1.0000
  H   H518      1.0  0.08464  0.57866  0.52808  1.0000
  H   H519      1.0  0.30658  0.94575  0.51362  1.0000
  C   C514      1.0  0.14943  0.96116  0.58547  1.0000
  C   C515      1.0  0.11822  0.51135  0.62145  1.0000
  H   H520      1.0  0.18511  0.63719  0.72469  1.0000
  H   H521      1.0  0.07162  0.60592  0.51864  1.0000
  C   C516      1.0  0.27320  0.97691  0.66569  1.0000
  H   H522      1.0  0.07068  0.54797  0.52169  1.0000
  C   C517      1.0  0.23642  0.62033  0.71698  1.0000
  H   H523      1.0  0.18816  0.55460  0.67499  1.0000
  H   H524      1.0  0.27833  0.94313  0.49906  1.0000
  H   H525      1.0  0.31354  0.97889  0.47855  1.0000
  N   N42       1.0  0.17312  0.84627  0.62455  1.0000
  S   S183      1.0  0.30263  0.90917  0.59069  1.0000
  C   C518      1.0  0.29589  0.88421  0.50968  1.0000
  H   H526      1.0  0.18103  0.49308  0.51058  1.0000
  C   C519      1.0  0.17570  0.97049  0.59848  1.0000
  H   H527      1.0  0.25941  0.73579  0.54690  1.0000
  H   H528      1.0  0.13243  0.52150  0.62074  1.0000
  H   H529      1.0  0.14355  0.94831  0.58112  1.0000
  H   H530      1.0  0.31114  0.91948  0.71254  1.0000
  H   H531      1.0  0.27082  0.72374  0.58751  1.0000
  C   C520      1.0  0.00956  0.56063  0.55760  1.0000
  H   H532      1.0  0.31304  0.86404  0.61268  1.0000
  C   C521      1.0  0.17753  0.85903  0.60081  1.0000
  N   N43       1.0  0.18408  0.59565  0.55951  1.0000
  C   C522      1.0  0.19103  0.61750  0.55511  1.0000
  C   C523      1.0  0.19114  0.58150  0.57073  1.0000
  C   C524      1.0  0.20554  0.62562  0.56198  1.0000
  C   C525      1.0  0.20575  0.58903  0.57779  1.0000
  C   C526      1.0  0.21293  0.61126  0.57337  1.0000
  C   C527      1.0  0.16820  0.58749  0.55259  1.0000
  H   H533      1.0  0.18479  0.62912  0.54651  1.0000
  H   H534      1.0  0.18478  0.56463  0.57452  1.0000
  H   H535      1.0  0.21019  0.64336  0.55886  1.0000
  H   H536      1.0  0.21073  0.57808  0.58689  1.0000
  H   H537      1.0  0.22349  0.61776  0.57902  1.0000
  H   H538      1.0  0.17641  0.57003  0.54954  1.0000
  H   H539      1.0  0.15100  0.58545  0.55933  1.0000
  H   H540      1.0  0.16416  0.60015  0.54345  1.0000
  C   C528      1.0  0.17866  0.83561  0.59904  1.0000
  C   C529      1.0  0.11470  0.49250  0.63193  1.0000
  H   H541      1.0  0.24754  0.61351  0.63484  1.0000
  C   C530      1.0  0.28385  0.90480  0.50286  1.0000
  C   C531      1.0  0.24831  0.98056  0.66900  1.0000
  H   H542      1.0  0.27867  0.63021  0.51275  1.0000
  C   C532      1.0  0.29282  0.92857  0.71336  1.0000
  C   C533      1.0  0.17469  0.86407  0.61371  1.0000
  C   C534      1.0  0.27055  0.95025  0.65061  1.0000
  C   C535      1.0  0.17711  0.81756  0.61015  1.0000
  H   H543      1.0  0.99602  0.55155  0.52142  1.0000
  H   H544      1.0  0.19525  0.60535  0.72628  1.0000
  Fe  Fe93      1.0  0.27108  0.51735  0.71920  1.0000
  C   C536      1.0  0.26532  0.60538  0.50411  1.0000
  H   H545      1.0  0.29863  0.84868  0.56455  1.0000
  H   H546      1.0  0.17865  0.79917  0.60886  1.0000
  H   H547      1.0  0.17455  0.80891  0.63143  1.0000
  H   H548      1.0  0.28220  0.83844  0.61476  1.0000
  H   H549      1.0  0.18115  0.83136  0.58909  1.0000
  H   H550      1.0  0.31804  0.68495  0.55893  1.0000
  N   N44       1.0  0.23637  0.58446  0.64942  1.0000
  C   C537      1.0  0.24285  0.56740  0.65983  1.0000
  C   C538      1.0  0.21293  0.59072  0.64786  1.0000
  C   C539      1.0  0.22561  0.55635  0.66909  1.0000
  C   C540      1.0  0.19520  0.58019  0.65704  1.0000
  C   C541      1.0  0.20165  0.56287  0.66770  1.0000
  C   C542      1.0  0.25477  0.59526  0.63954  1.0000
  H   H551      1.0  0.26033  0.56411  0.48711  1.0000
  N   N45       1.0  0.27000  0.58365  0.50008  1.0000
  H   H552      1.0  0.29866  0.95212  0.69448  1.0000
  H   H553      1.0  0.31716  0.60388  0.51514  1.0000
  H   H554      1.0  0.24067  0.59109  0.48936  1.0000
  S   S184      1.0  0.21279  0.50579  0.48614  1.0000
  H   H555      1.0  0.27237  0.61956  0.70617  1.0000
  C   C543      1.0  0.25263  0.93422  0.72549  1.0000
  H   H556      1.0  0.24025  0.56572  0.50277  1.0000
  C   C544      1.0  0.10362  0.51687  0.61171  1.0000
  C   C545      1.0  0.32220  0.96054  0.47962  1.0000
  C   C546      1.0  0.28220  0.61293  0.50961  1.0000
  C   C547      1.0  0.03405  0.54732  0.52087  1.0000
  C   C548      1.0  0.99822  0.52633  0.55169  1.0000
  H   H557      1.0  0.00330  0.50876  0.54902  1.0000
  H   H558      1.0  0.20358  0.55679  0.48682  1.0000
  S   S185      1.0  0.26685  0.55571  0.72143  1.0000
  H   H559      1.0  0.31077  0.71453  0.53250  1.0000
  N   N46       1.0  0.24608  0.95245  0.71564  1.0000
  C   C549      1.0  0.31405  0.63863  0.57337  1.0000
  H   H560      1.0  0.23076  0.61255  0.70967  1.0000
  C   C550      1.0  0.31259  0.89255  0.57761  1.0000
  C   C551      1.0  0.29111  0.56883  0.50160  1.0000
  H   H561      1.0  0.24738  0.74501  0.56989  1.0000
  H   H562      1.0  0.30616  0.69321  0.58204  1.0000
  N   N47       1.0  0.28924  0.70959  0.55164  1.0000
  C   C552      1.0  0.23468  0.96911  0.66316  1.0000
  C   C553      1.0  0.28587  0.94691  0.70327  1.0000
  H   H563      1.0  0.03746  0.52926  0.51884  1.0000
  H   H564      1.0  0.02198  0.61037  0.52981  1.0000
  C   C554      1.0  0.31738  0.63563  0.55999  1.0000
  H   H565      1.0  0.29482  0.55160  0.49843  1.0000
  H   H566      1.0  0.29347  0.86679  0.50840  1.0000
  C   C555      1.0  0.26308  0.73200  0.56745  1.0000
  S   S186      1.0  0.30110  0.63314  0.53722  1.0000
  C   C556      1.0  0.28424  0.96150  0.65658  1.0000
  C   C557      1.0  0.06791  0.59165  0.52728  1.0000
  C   C558      1.0  0.27632  0.72011  0.57737  1.0000
  C   C559      1.0  0.05272  0.55796  0.52259  1.0000
  C   C560      1.0  0.26749  0.63450  0.72417  1.0000
  N   N48       1.0  0.31529  0.90814  0.51924  1.0000
  C   C561      1.0  0.29865  0.83596  0.60770  1.0000
  C   C562      1.0  0.27611  0.92207  0.72453  1.0000
  C   C563      1.0  0.29616  0.70306  0.57429  1.0000
  C   C564      1.0  0.29649  0.70426  0.53804  1.0000
  H   H567      1.0  0.21542  0.97227  0.66568  1.0000
  H   H568      1.0  0.28894  0.80771  0.60029  1.0000
  H   H569      1.0  0.12635  0.48774  0.63937  1.0000
  C   C565      1.0  0.22129  0.96463  0.71666  1.0000
  H   H570      1.0  0.32186  0.91603  0.53718  1.0000
  H   H571      1.0  0.08862  0.48616  0.68904  1.0000
  H   H572      1.0  0.00127  0.83263  0.92531  1.0000
  C   C566      1.0  0.30523  0.51261  0.91352  1.0000
  H   H573      1.0  0.20134  0.55644  0.93184  1.0000
  C   C567      1.0  0.03481  0.95817  0.92606  1.0000
  C   C568      1.0  0.26444  0.51348  0.75845  1.0000
  Fe  Fe94      1.0  0.23057  0.55658  0.96424  1.0000
  S   S187      1.0  0.24526  0.52138  0.95738  1.0000
  S   S188      1.0  0.21470  0.58515  0.94844  1.0000
  H   H574      1.0  0.23267  0.89360  0.87786  1.0000
  Fe  Fe95      1.0  0.27957  0.52552  0.96280  1.0000
  H   H575      1.0  0.15345  0.85506  0.86427  1.0000
  H   H576      1.0  0.16431  0.72945  0.84605  1.0000
  S   S189      1.0  0.26575  0.56151  0.96858  1.0000
  Fe  Fe96      1.0  0.12285  0.91411  0.91647  1.0000
  S   S190      1.0  0.12604  0.92313  0.89407  1.0000
  S   S191      1.0  0.12627  0.94273  0.92800  1.0000
  Fe  Fe97      1.0  0.10960  0.86503  0.91697  1.0000
  S   S192      1.0  0.11286  0.87053  0.89481  1.0000
  S   S193      1.0  0.09642  0.83102  0.92793  1.0000
  Fe  Fe98      1.0  0.14560  0.88569  0.89456  1.0000
  S   S194      1.0  0.17944  0.87170  0.88177  1.0000
  Fe  Fe99      1.0  0.09266  0.90693  0.89663  1.0000
  S   S195      1.0  0.06338  0.91942  0.88395  1.0000
  S   S196      1.0  0.14422  0.87730  0.91678  1.0000
  S   S197      1.0  0.08754  0.90098  0.91895  1.0000
  Fe  Fe100     1.0  0.06552  0.69122  0.90532  1.0000
  S   S198      1.0  0.08296  0.70235  0.92024  1.0000
  S   S199      1.0  0.02592  0.70598  0.90585  1.0000
  Fe  Fe101     1.0  0.11290  0.66602  0.89221  1.0000
  S   S200      1.0  0.13353  0.67553  0.90592  1.0000
  S   S201      1.0  0.13639  0.64254  0.87830  1.0000
  Fe  Fe102     1.0  0.10397  0.66524  0.92210  1.0000
  S   S202      1.0  0.11129  0.64308  0.94199  1.0000
  Fe  Fe103     1.0  0.11120  0.71157  0.90281  1.0000
  S   S203      1.0  0.13157  0.74251  0.89785  1.0000
  S   S204      1.0  0.08424  0.65320  0.90868  1.0000
  S   S205      1.0  0.09280  0.70303  0.88765  1.0000
  H   H577      1.0  0.09050  0.72926  0.95776  1.0000
  S   S206      1.0  0.27916  0.92936  0.80400  1.0000
  H   H578      1.0  0.25142  0.95368  0.83160  1.0000
  Fe  Fe104     1.0  0.27529  0.86105  0.80935  1.0000
  S   S207      1.0  0.24999  0.88909  0.79846  1.0000
  H   H579      1.0  0.10305  0.68943  0.95084  1.0000
  Fe  Fe105     1.0  0.28249  0.90578  0.78873  1.0000
  S   S208      1.0  0.29245  0.91957  0.76668  1.0000
  Fe  Fe106     1.0  0.24900  0.90991  0.81465  1.0000
  S   S209      1.0  0.21435  0.92838  0.82491  1.0000
  Fe  Fe107     1.0  0.30289  0.89884  0.81425  1.0000
  S   S210      1.0  0.27252  0.88133  0.82603  1.0000
  Fe  Fe108     1.0  0.25202  0.65266  0.79263  1.0000
  S   S211      1.0  0.23216  0.64184  0.81324  1.0000
  S   S212      1.0  0.26600  0.62844  0.77686  1.0000
  Fe  Fe109     1.0  0.25969  0.70000  0.79929  1.0000
  S   S213      1.0  0.24104  0.69237  0.82036  1.0000
  S   S214      1.0  0.27559  0.73377  0.79007  1.0000
  Fe  Fe110     1.0  0.26042  0.65498  0.82051  1.0000
  S   S215      1.0  0.27123  0.63342  0.83961  1.0000
  Fe  Fe111     1.0  0.21409  0.67991  0.81170  1.0000
  S   S216      1.0  0.17568  0.69264  0.82013  1.0000
  S   S217      1.0  0.28181  0.66333  0.80016  1.0000
  S   S218      1.0  0.23137  0.69007  0.79031  1.0000
  C   C569      1.0  0.14854  0.86473  0.85453  1.0000
  C   C570      1.0  0.26815  0.88917  0.86635  1.0000
  C   C571      1.0  0.31162  0.97798  0.76452  1.0000
  C   C572      1.0  0.25088  0.61120  0.76991  1.0000
  C   C573      1.0  0.22637  0.61077  0.77355  1.0000
  C   C574      1.0  0.21519  0.59722  0.76745  1.0000
  C   C575      1.0  0.22829  0.58419  0.75756  1.0000
  C   C576      1.0  0.30450  0.98058  0.90259  1.0000
  C   C577      1.0  0.19611  0.62178  0.73001  1.0000
  H   H580      1.0  0.21601  0.62086  0.78105  1.0000
  H   H581      1.0  0.19623  0.59700  0.77036  1.0000
  C   C578      1.0  0.27554  0.92061  0.84771  1.0000
  H   H582      1.0  0.29315  0.59803  0.85872  1.0000
  C   C579      1.0  0.26614  0.80025  0.80941  1.0000
  H   H583      1.0  0.05269  0.96488  0.94613  1.0000
  C   C580      1.0  0.26012  0.75914  0.81099  1.0000
  C   C581      1.0  0.26908  0.75986  0.79740  1.0000
  C   C582      1.0  0.27549  0.78125  0.78974  1.0000
  C   C583      1.0  0.27394  0.80142  0.79569  1.0000
  H   H584      1.0  0.18295  0.82692  0.85321  1.0000
  H   H585      1.0  0.19112  0.88903  0.81310  1.0000
  H   H586      1.0  0.28239  0.78196  0.77921  1.0000
  H   H587      1.0  0.27968  0.81749  0.78977  1.0000
  H   H588      1.0  0.25253  0.77819  0.82757  1.0000
  H   H589      1.0  0.10992  0.59941  0.92863  1.0000
  C   C584      1.0  0.25151  0.95260  0.76314  1.0000
  C   C585      1.0  0.27490  0.94352  0.75786  1.0000
  C   C586      1.0  0.28500  0.95379  0.74512  1.0000
  C   C587      1.0  0.23755  0.92279  0.86154  1.0000
  H   H590      1.0  0.24353  0.94479  0.77298  1.0000
  H   H591      1.0  0.21945  0.93189  0.86399  1.0000
  C   C588      1.0  0.14620  0.65592  0.86182  1.0000
  C   C589      1.0  0.16677  0.64479  0.85441  1.0000
  C   C590      1.0  0.17578  0.65572  0.84153  1.0000
  C   C591      1.0  0.16392  0.67761  0.83585  1.0000
  C   C592      1.0  0.14286  0.68833  0.84308  1.0000
  C   C593      1.0  0.13420  0.67770  0.85610  1.0000
  H   H592      1.0  0.17606  0.62787  0.85874  1.0000
  H   H593      1.0  0.19193  0.64723  0.83603  1.0000
  H   H594      1.0  0.13347  0.70513  0.83866  1.0000
  H   H595      1.0  0.11811  0.68622  0.86164  1.0000
  S   S219      1.0  0.21324  0.56827  0.74972  1.0000
  C   C594      1.0  0.00412  0.69098  0.90286  1.0000
  C   C595      1.0  0.01045  0.67004  0.89740  1.0000
  H   H596      1.0  0.07601  0.94133  0.94086  1.0000
  H   H597      1.0  0.16928  0.74047  0.86032  1.0000
  H   H598      1.0  0.02894  0.66169  0.89581  1.0000
  H   H599      1.0  0.14366  0.88385  0.85556  1.0000
  C   C596      1.0  0.18823  0.88810  0.86608  1.0000
  C   C597      1.0  0.17681  0.91117  0.86188  1.0000
  C   C598      1.0  0.18468  0.92353  0.84913  1.0000
  C   C599      1.0  0.20379  0.91271  0.84062  1.0000
  C   C600      1.0  0.21451  0.88943  0.84478  1.0000
  C   C601      1.0  0.20704  0.87731  0.85751  1.0000
  H   H600      1.0  0.16213  0.91954  0.86846  1.0000
  H   H601      1.0  0.17607  0.94148  0.84592  1.0000
  H   H602      1.0  0.22805  0.88034  0.83808  1.0000
  H   H603      1.0  0.21566  0.85931  0.86063  1.0000
  C   C602      1.0  0.03387  0.91421  0.89049  1.0000
  C   C603      1.0  0.02656  0.90764  0.90419  1.0000
  C   C604      1.0  0.01720  0.91741  0.88184  1.0000
  H   H604      1.0  0.03918  0.90505  0.91096  1.0000
  H   H605      1.0  0.02268  0.92260  0.87122  1.0000
  C   C605      1.0  0.10507  0.80714  0.91894  1.0000
  C   C606      1.0  0.12431  0.80724  0.90842  1.0000
  C   C607      1.0  0.13177  0.78759  0.90176  1.0000
  C   C608      1.0  0.12003  0.76773  0.90554  1.0000
  C   C609      1.0  0.10044  0.76781  0.91588  1.0000
  C   C610      1.0  0.09306  0.78743  0.92261  1.0000
  H   H606      1.0  0.13401  0.82211  0.90568  1.0000
  H   H607      1.0  0.14703  0.78760  0.89383  1.0000
  H   H608      1.0  0.09127  0.75258  0.91886  1.0000
  H   H609      1.0  0.07814  0.78726  0.93073  1.0000
  C   C611      1.0  0.18591  0.60174  0.94745  1.0000
  C   C612      1.0  0.18237  0.61722  0.93550  1.0000
  C   C613      1.0  0.15969  0.63004  0.93378  1.0000
  C   C614      1.0  0.14024  0.62769  0.94405  1.0000
  C   C615      1.0  0.14375  0.61232  0.95608  1.0000
  C   C616      1.0  0.16650  0.59928  0.95777  1.0000
  H   H610      1.0  0.19728  0.61911  0.92745  1.0000
  H   H611      1.0  0.15733  0.64150  0.92444  1.0000
  H   H612      1.0  0.12879  0.61035  0.96409  1.0000
  H   H613      1.0  0.16902  0.58736  0.96702  1.0000
  H   H614      1.0  0.15790  0.89483  0.83179  1.0000
  H   H615      1.0  0.17744  0.55473  0.94549  1.0000
  H   H616      1.0  0.25863  0.97316  0.92818  1.0000
  H   H617      1.0  0.30173  0.88993  0.85290  1.0000
  C   C617      1.0  0.15230  0.94826  0.93291  1.0000
  C   C618      1.0  0.28791  0.51733  0.75358  1.0000
  C   C619      1.0  0.25868  0.77924  0.81695  1.0000
  C   C620      1.0  0.19260  0.95793  0.94159  1.0000
  C   C621      1.0  0.19423  0.93800  0.93543  1.0000
  C   C622      1.0  0.17427  0.93321  0.93108  1.0000
  N   N49       1.0  0.25263  0.93196  0.85065  1.0000
  C   C623      1.0  0.00265  0.90504  0.90922  1.0000
  H   H618      1.0  0.21101  0.92603  0.93413  1.0000
  H   H619      1.0  0.17582  0.91770  0.92650  1.0000
  C   C624      1.0  0.06400  0.96663  0.90157  1.0000
  H   H620      1.0  0.14496  0.72432  0.86167  1.0000
  N   N50       1.0  0.16685  0.57037  0.92663  1.0000
  C   C625      1.0  0.14359  0.57744  0.93199  1.0000
  C   C626      1.0  0.17522  0.57840  0.91353  1.0000
  C   C627      1.0  0.12816  0.59324  0.92423  1.0000
  C   C628      1.0  0.16023  0.59413  0.90547  1.0000
  C   C629      1.0  0.13657  0.60154  0.91089  1.0000
  C   C630      1.0  0.22786  0.63638  0.73705  1.0000
  H   H621      1.0  0.04404  0.83213  0.92591  1.0000
  H   H622      1.0  0.19362  0.57271  0.90927  1.0000
  H   H623      1.0  0.13698  0.57132  0.94241  1.0000
  C   C631      1.0  0.30098  0.51608  0.92689  1.0000
  H   H624      1.0  0.22486  0.95846  0.84336  1.0000
  C   C632      1.0  0.29346  0.58400  0.82283  1.0000
  C   C633      1.0  0.01286  0.83887  0.91625  1.0000
  H   H625      1.0  0.31899  0.95000  0.81335  1.0000
  C   C634      1.0  0.20936  0.66112  0.86866  1.0000
  H   H626      1.0  0.16271  0.71493  0.92413  1.0000
  H   H627      1.0  0.23986  0.92938  0.73433  1.0000
  C   C635      1.0  0.18978  0.66955  0.87766  1.0000
  H   H628      1.0  0.28139  0.90811  0.73257  1.0000
  C   C636      1.0  0.18443  0.84042  0.84433  1.0000
  C   C637      1.0  0.15071  0.96827  0.93899  1.0000
  C   C638      1.0  0.17038  0.87825  0.83237  1.0000
  H   H629      1.0  0.07577  0.96917  0.89205  1.0000
  C   C639      1.0  0.25131  0.64071  0.73528  1.0000
  H   H630      1.0  0.24958  0.52637  0.75519  1.0000
  H   H631      1.0  0.28298  0.59807  0.75728  1.0000
  C   C640      1.0  0.21405  0.67410  0.85586  1.0000
  H   H632      1.0  0.00254  0.74460  0.87897  1.0000
  H   H633      1.0  0.16232  0.75826  0.91950  1.0000
  C   C641      1.0  0.24498  0.90117  0.86948  1.0000
  H   H634      1.0  0.07053  0.84666  0.90533  1.0000
  H   H635      1.0  0.08044  0.97191  0.93653  1.0000
  S   S220      1.0  0.26792  0.82329  0.81791  1.0000
  C   C642      1.0  0.03694  0.83850  0.91667  1.0000
  S   S221      1.0  0.23420  0.51215  0.73010  1.0000
  H   H636      1.0  0.21642  0.82044  0.83455  1.0000
  C   C643      1.0  0.26403  0.59785  0.76018  1.0000
  H   H637      1.0  0.14454  0.77655  0.93091  1.0000
  H   H638      1.0  0.28763  0.92807  0.83921  1.0000
  H   H639      1.0  0.30309  0.94689  0.74098  1.0000
  H   H640      1.0  0.03393  0.96408  0.89287  1.0000
  N   N51       1.0  0.17951  0.70325  0.86099  1.0000
  N   N52       1.0  0.22082  0.62594  0.72807  1.0000
  H   H641      1.0  0.29106  0.53319  0.74639  1.0000
  N   N53       1.0  0.30670  0.50106  0.75758  1.0000
  H   H642      1.0  0.12482  0.61373  0.90472  1.0000
  H   H643      1.0  0.22022  0.97865  0.75968  1.0000
  C   C644      1.0  0.17509  0.69093  0.87367  1.0000
  C   C645      1.0  0.01866  0.85496  0.89314  1.0000
  C   C646      1.0  0.20333  0.83661  0.83385  1.0000
  H   H644      1.0  0.25517  0.74280  0.81700  1.0000
  H   H645      1.0  0.16999  0.75572  0.93589  1.0000
  S   S222      1.0  0.21838  0.96279  0.94704  1.0000
  H   H646      1.0  0.03027  0.70832  0.87598  1.0000
  C   C647      1.0  0.06704  0.95987  0.93788  1.0000
  C   C648      1.0  0.29139  0.59588  0.80992  1.0000
  C   C649      1.0  0.07236  0.96561  0.91347  1.0000
  C   C650      1.0  0.25282  0.58456  0.75398  1.0000
  H   H647      1.0  0.29071  0.50999  0.90910  1.0000
  H   H648      1.0  0.15980  0.69737  0.88065  1.0000
  H   H649      1.0  0.20212  0.70487  0.84205  1.0000
  C   C651      1.0  0.16382  0.72556  0.85705  1.0000
  H   H650      1.0  0.18565  0.65937  0.88756  1.0000
  C   C652      1.0  0.19886  0.69529  0.85217  1.0000
  H   H651      1.0  0.22900  0.66740  0.84874  1.0000
  H   H652      1.0  0.00772  0.95629  0.91477  1.0000
  S   S223      1.0  0.30828  0.87594  0.79840  1.0000
  H   H653      1.0  0.05421  0.86190  0.88425  1.0000
  N   N54       1.0  0.05770  0.96172  0.92550  1.0000
  N   N55       1.0  0.99553  0.71653  0.87057  1.0000
  C   C653      1.0  0.30723  0.60473  0.85124  1.0000
  H   H654      1.0  0.02250  0.68599  0.86885  1.0000
  C   C654      1.0  0.99294  0.66046  0.89342  1.0000
  H   H655      1.0  0.22074  0.64438  0.87148  1.0000
  C   C655      1.0  0.05192  0.84663  0.90507  1.0000
  C   C656      1.0  0.02070  0.70558  0.86824  1.0000
  C   C657      1.0  0.18256  0.55314  0.93475  1.0000
  N   N56       1.0  0.14013  0.73990  0.93554  1.0000
  C   C658      1.0  0.14703  0.71811  0.93162  1.0000
  C   C659      1.0  0.12022  0.74394  0.94490  1.0000
  C   C660      1.0  0.13389  0.69964  0.93713  1.0000
  C   C661      1.0  0.10646  0.72595  0.95047  1.0000
  C   C662      1.0  0.11347  0.70364  0.94659  1.0000
  C   C663      1.0  0.15501  0.75850  0.93023  1.0000
  H   H656      1.0  0.09073  0.96771  0.91302  1.0000
  H   H657      1.0  0.11471  0.76125  0.94799  1.0000
  H   H658      1.0  0.13945  0.68232  0.93410  1.0000
  C   C664      1.0  0.17071  0.97316  0.94325  1.0000
  H   H659      1.0  0.27801  0.58467  0.83069  1.0000
  C   C665      1.0  0.18908  0.87504  0.82172  1.0000
  H   H660      1.0  0.27425  0.60534  0.80757  1.0000
  H   H661      1.0  0.18178  0.53474  0.93359  1.0000
  H   H662      1.0  0.26316  0.57475  0.74639  1.0000
  C   C666      1.0  0.31112  0.76342  0.82765  1.0000
  H   H663      1.0  0.28333  0.51595  0.93272  1.0000
  C   C667      1.0  0.30149  0.62257  0.84056  1.0000
  H   H664      1.0  0.99704  0.90048  0.91987  1.0000
  H   H665      1.0  0.27408  0.87225  0.87233  1.0000
  C   C668      1.0  0.24466  0.95455  0.84233  1.0000
  C   C669      1.0  0.26027  0.49276  0.76739  1.0000
  H   H666      1.0  0.31547  0.64485  0.82265  1.0000
  H   H667      1.0  0.22035  0.85136  0.81439  1.0000
  H   H668      1.0  0.13384  0.98005  0.94051  1.0000
  H   H669      1.0  0.13272  0.85837  0.85279  1.0000
  N   N57       1.0  0.00398  0.84723  0.90460  1.0000
  H   H670      1.0  0.16678  0.60061  0.89507  1.0000
  C   C670      1.0  0.28363  0.89902  0.85547  1.0000
  H   H671      1.0  0.29936  0.95381  0.92014  1.0000
  H   H672      1.0  0.18833  0.61880  0.74080  1.0000
  C   C671      1.0  0.20560  0.85404  0.82249  1.0000
  N   N58       1.0  0.16841  0.86115  0.84354  1.0000
  C   C672      1.0  0.04280  0.85493  0.89322  1.0000
  H   H673      1.0  0.02948  0.71338  0.85825  1.0000
  C   C673      1.0  0.02580  0.95930  0.91434  1.0000
  H   H674      1.0  0.99811  0.64469  0.88880  1.0000
  H   H675      1.0  0.25696  0.64831  0.74268  1.0000
  Fe  Fe112     1.0  0.22977  0.55131  0.73129  1.0000
  H   H676      1.0  0.02342  0.95431  0.93560  1.0000
  C   C674      1.0  0.04050  0.96369  0.90204  1.0000
  C   C675      1.0  0.26850  0.98129  0.91894  1.0000
  H   H677      1.0  0.25122  0.96932  0.84511  1.0000
  H   H678      1.0  0.21552  0.64087  0.74585  1.0000
  C   C676      1.0  0.23835  0.97178  0.75559  1.0000
  H   H679      1.0  0.31622  0.73184  0.81130  1.0000
  C   C677      1.0  0.27197  0.97297  0.73768  1.0000
  C   C678      1.0  0.31982  0.51855  0.93286  1.0000
  C   C679      1.0  0.31153  0.59576  0.80003  1.0000
  H   H680      1.0  0.30995  0.60524  0.79000  1.0000
  C   C680      1.0  0.31979  0.63113  0.83093  1.0000
  C   C681      1.0  0.99337  0.91419  0.88685  1.0000
  C   C682      1.0  0.29154  0.97018  0.91441  1.0000
  S   S224      1.0  0.31624  0.51824  0.95024  1.0000
  C   C683      1.0  0.31575  0.57192  0.82564  1.0000
  H   H681      1.0  0.27895  0.97852  0.77866  1.0000
  H   H682      1.0  0.29890  0.74999  0.83059  1.0000
  H   H683      1.0  0.24215  0.48940  0.77104  1.0000
  H   H684      1.0  0.30072  0.78026  0.83070  1.0000
  H   H685      1.0  0.31733  0.56306  0.83577  1.0000
  H   H686      1.0  0.01160  0.86183  0.88393  1.0000
  H   H687      1.0  0.21288  0.96482  0.72726  1.0000
  N   N59       1.0  0.31975  0.76690  0.81324  1.0000
  C   C684      1.0  0.32186  0.74862  0.80633  1.0000
  H   H688      1.0  0.32070  0.96206  0.77007  1.0000
  H   H689      1.0  0.28005  0.98025  0.72789  1.0000
  C   C685      1.0  0.98920  0.73706  0.87588  1.0000
  Fe  Fe113     1.0  0.55772  0.05390  0.06288  1.0000
  S   S225      1.0  0.58791  0.02792  0.05386  1.0000
  S   S226      1.0  0.51843  0.04951  0.06888  1.0000
  Fe  Fe114     1.0  0.59212  0.08576  0.06686  1.0000
  S   S227      1.0  0.62426  0.06252  0.05799  1.0000
  S   S228      1.0  0.59457  0.11699  0.07642  1.0000
  Fe  Fe115     1.0  0.60260  0.06086  0.04261  1.0000
  S   S229      1.0  0.61734  0.06977  0.02059  1.0000
  Fe  Fe116     1.0  0.60689  0.03202  0.07008  1.0000
  S   S230      1.0  0.63065  0.00612  0.08302  1.0000
  S   S231      1.0  0.57116  0.08668  0.05062  1.0000
  S   S232      1.0  0.57594  0.05535  0.07995  1.0000
  Fe  Fe117     1.0  0.35589  0.04344  0.03240  1.0000
  H   H690      1.0  0.64287  0.02148  0.02769  1.0000
  C   C686      1.0  0.64623  0.14763  0.08475  1.0000
  Fe  Fe118     1.0  0.40630  0.03889  0.04004  1.0000
  S   S233      1.0  0.39174  0.03844  0.06169  1.0000
  S   S234      1.0  0.44617  0.03721  0.03259  1.0000
  Fe  Fe119     1.0  0.36862  0.01379  0.05865  1.0000
  H   H691      1.0  0.54407  0.47700  0.09666  1.0000
  Fe  Fe120     1.0  0.36308  0.06746  0.05473  1.0000
  C   C687      1.0  0.64309  0.11631  0.06799  1.0000
  S   S235      1.0  0.38479  0.01239  0.03713  1.0000
  S   S236      1.0  0.37921  0.06988  0.03316  1.0000
  H   H692      1.0  0.40479  0.09405  0.06900  1.0000
  H   H693      1.0  0.42336  0.08184  0.04033  1.0000
  C   C688      1.0  0.61783  0.98298  0.09402  1.0000
  H   H694      1.0  0.59798  0.10515  0.10657  1.0000
  S   S237      1.0  0.35370  0.10243  0.06230  1.0000
  C   C689      1.0  0.47169  0.09950  0.06037  1.0000
  H   H695      1.0  0.35599  0.01267  0.98979  1.0000
  C   C690      1.0  0.42099  0.09995  0.04282  1.0000
  H   H696      1.0  0.32860  0.43706  0.08891  1.0000
  H   H697      1.0  0.41189  0.98483  0.05893  1.0000
  H   H698      1.0  0.32277  0.06878  0.07636  1.0000
  S   S238      1.0  0.33821  0.04288  0.05377  1.0000
  C   C691      1.0  0.62245  0.12553  0.07606  1.0000
  C   C692      1.0  0.42357  0.09583  0.06651  1.0000
  H   H699      1.0  0.39088  0.00304  0.08477  1.0000
  C   C693      1.0  0.65485  0.06362  0.00051  1.0000
  H   H700      1.0  0.47123  0.09417  0.08154  1.0000
  C   C694      1.0  0.62406  0.14143  0.08433  1.0000
  C   C695      1.0  0.64194  0.47583  0.07808  1.0000
  S   S239      1.0  0.33263  0.05510  0.01601  1.0000
  H   H701      1.0  0.59060  0.08030  0.10164  1.0000
  H   H702      1.0  0.60814  0.14881  0.09052  1.0000
  H   H703      1.0  0.62314  0.45204  0.11027  1.0000
  H   H704      1.0  0.35612  0.04373  0.98826  1.0000
  H   H705      1.0  0.63301  0.01957  0.98756  1.0000
  C   C696      1.0  0.63489  0.45513  0.10082  1.0000
  H   H706      1.0  0.42720  0.11227  0.03369  1.0000
  H   H707      1.0  0.63105  0.02231  0.19177  1.0000
  H   H708      1.0  0.50377  0.47296  0.05043  1.0000
  H   H709      1.0  0.64207  0.10430  0.06150  1.0000
  C   C697      1.0  0.62671  0.47188  0.09026  1.0000
  H   H710      1.0  0.41152  0.98918  0.10436  1.0000
  C   C698      1.0  0.49921  0.04516  0.05856  1.0000
  C   C699      1.0  0.47572  0.04203  0.06435  1.0000
  C   C700      1.0  0.45927  0.03994  0.05649  1.0000
  C   C701      1.0  0.46624  0.04047  0.04275  1.0000
  C   C702      1.0  0.48987  0.04313  0.03699  1.0000
  C   C703      1.0  0.50627  0.04562  0.04483  1.0000
  H   H711      1.0  0.47014  0.04152  0.07497  1.0000
  H   H712      1.0  0.44133  0.03761  0.06114  1.0000
  H   H713      1.0  0.49551  0.04339  0.02638  1.0000
  H   H714      1.0  0.52432  0.04798  0.04025  1.0000
  H   H715      1.0  0.62107  0.05066  0.09294  1.0000
  C   C704      1.0  0.38960  0.98558  0.09052  1.0000
  H   H716      1.0  0.49388  0.99136  0.06349  1.0000
  C   C705      1.0  0.63432  0.06059  0.09416  1.0000
  H   H717      1.0  0.65333  0.09834  0.02440  1.0000
  H   H718      1.0  0.63955  0.10611  0.10835  1.0000
  H   H719      1.0  0.63425  0.05135  0.18173  1.0000
  C   C706      1.0  0.45830  0.10079  0.05033  1.0000
  H   H720      1.0  0.40161  0.10614  0.04588  1.0000
  H   H721      1.0  0.42788  0.09117  0.08714  1.0000
  H   H722      1.0  0.64734  0.15971  0.09123  1.0000
  H   H723      1.0  0.46722  0.10233  0.04004  1.0000
  C   C707      1.0  0.46072  0.09608  0.07368  1.0000
  H   H724      1.0  0.46327  0.99009  0.05013  1.0000
  N   N60       1.0  0.62784  0.07916  0.10111  1.0000
  H   H725      1.0  0.33746  0.47684  0.08950  1.0000
  H   H726      1.0  0.34772  0.98631  0.18507  1.0000
  H   H727      1.0  0.32516  0.14334  0.07257  1.0000
  C   C708      1.0  0.51098  0.47795  0.08972  1.0000
  N   N61       1.0  0.43448  0.09934  0.05347  1.0000
  H   H728      1.0  0.59989  0.07661  0.11771  1.0000
  H   H729      1.0  0.64047  0.31968  0.11136  1.0000
  H   H730      1.0  0.49074  0.09998  0.05789  1.0000
  C   C709      1.0  0.60287  0.08552  0.10715  1.0000
  C   C710      1.0  0.43651  0.09421  0.07681  1.0000
  C   C711      1.0  0.64309  0.05309  0.01275  1.0000
  H   H731      1.0  0.64820  0.08170  0.99624  1.0000
  C   C712      1.0  0.64467  0.09132  0.10288  1.0000
  H   H732      1.0  0.58892  0.98515  0.08336  1.0000
  H   H733      1.0  0.33096  0.00387  0.01972  1.0000
  C   C713      1.0  0.64393  0.03446  0.18659  1.0000
  C   C714      1.0  0.32649  0.10572  0.07335  1.0000
  C   C715      1.0  0.65187  0.02976  0.01824  1.0000
  H   H734      1.0  0.63813  0.00306  0.17239  1.0000
  C   C716      1.0  0.53516  0.47952  0.08807  1.0000
  C   C717      1.0  0.62766  0.05573  0.97741  1.0000
  H   H735      1.0  0.61244  0.06128  0.98472  1.0000
  H   H736      1.0  0.65229  0.03820  0.19455  1.0000
  H   H737      1.0  0.33703  0.47790  0.04942  1.0000
  C   C718      1.0  0.35841  0.02911  0.98239  1.0000
  H   H738      1.0  0.50076  0.47427  0.09964  1.0000
  C   C719      1.0  0.63942  0.03215  0.97899  1.0000
  H   H739      1.0  0.32404  0.11523  0.04100  1.0000
  H   H740      1.0  0.48108  0.48042  0.07982  1.0000
  C   C720      1.0  0.49997  0.48139  0.07846  1.0000
  H   H741      1.0  0.32307  0.43857  0.05445  1.0000
  H   H742      1.0  0.42571  0.18041  0.43113  1.0000
  Fe  Fe121     1.0  0.63049  0.41840  0.41917  1.0000
  S   S240      1.0  0.60384  0.43476  0.40539  1.0000
  C   C721      1.0  0.33816  0.18039  0.33820  1.0000
  H   H743      1.0  0.59108  0.43241  0.44926  1.0000
  S   S241      1.0  0.61472  0.38512  0.39319  1.0000
  H   H744      1.0  0.56124  0.43027  0.45815  1.0000
  Fe  Fe122     1.0  0.63088  0.41844  0.38972  1.0000
  N   N62       1.0  0.56315  0.44348  0.43744  1.0000
  Fe  Fe123     1.0  0.59010  0.39982  0.41025  1.0000
  S   S242      1.0  0.55201  0.39266  0.41771  1.0000
  C   C722      1.0  0.32507  0.41416  0.40269  1.0000
  S   S243      1.0  0.61461  0.38440  0.42532  1.0000
  Fe  Fe124     1.0  0.60128  0.22481  0.40926  1.0000
  S   S244      1.0  0.59226  0.23272  0.38875  1.0000
  S   S245      1.0  0.59366  0.25450  0.42126  1.0000
  Fe  Fe125     1.0  0.61484  0.17160  0.40875  1.0000
  S   S246      1.0  0.60593  0.17540  0.38809  1.0000
  S   S247      1.0  0.62741  0.13569  0.42084  1.0000
  Fe  Fe126     1.0  0.62531  0.20683  0.38366  1.0000
  Fe  Fe127     1.0  0.57313  0.20097  0.39509  1.0000
  S   S248      1.0  0.53517  0.21084  0.39033  1.0000
  S   S249      1.0  0.63610  0.20145  0.40385  1.0000
  S   S250      1.0  0.58047  0.19456  0.41610  1.0000
  Fe  Fe128     1.0  0.37613  0.19489  0.39969  1.0000
  S   S251      1.0  0.40450  0.19403  0.38166  1.0000
  S   S252      1.0  0.36366  0.22879  0.40834  1.0000
  Fe  Fe129     1.0  0.36726  0.14384  0.40030  1.0000
  S   S253      1.0  0.39630  0.13956  0.38256  1.0000
  C   C723      1.0  0.32308  0.14313  0.34082  1.0000
  Fe  Fe130     1.0  0.41774  0.15775  0.39231  1.0000
  S   S254      1.0  0.45625  0.14498  0.39558  1.0000
  Fe  Fe131     1.0  0.38002  0.17626  0.37389  1.0000
  S   S255      1.0  0.36715  0.18945  0.35405  1.0000
  S   S256      1.0  0.38995  0.15903  0.41085  1.0000
  S   S257      1.0  0.35062  0.18010  0.39118  1.0000
  Fe  Fe132     1.0  0.38644  0.38815  0.41102  1.0000
  S   S258      1.0  0.39579  0.41526  0.39303  1.0000
  S   S259      1.0  0.35970  0.39822  0.42905  1.0000
  Fe  Fe133     1.0  0.41353  0.34660  0.39697  1.0000
  S   S260      1.0  0.42344  0.37121  0.37785  1.0000
  S   S261      1.0  0.42982  0.30789  0.39674  1.0000
  Fe  Fe134     1.0  0.43253  0.39318  0.39118  1.0000
  S   S262      1.0  0.46768  0.40739  0.38413  1.0000
  Fe  Fe135     1.0  0.38584  0.39042  0.38171  1.0000
  S   S263      1.0  0.35741  0.40685  0.36887  1.0000
  S   S264      1.0  0.42407  0.36780  0.41019  1.0000
  S   S265      1.0  0.37519  0.36393  0.39978  1.0000
  C   C724      1.0  0.38144  0.25149  0.40375  1.0000
  C   C725      1.0  0.40481  0.24742  0.39691  1.0000
  C   C726      1.0  0.41922  0.26522  0.39433  1.0000
  C   C727      1.0  0.41033  0.28725  0.39850  1.0000
  C   C728      1.0  0.38672  0.29164  0.40493  1.0000
  C   C729      1.0  0.37237  0.27375  0.40761  1.0000
  H   H745      1.0  0.41223  0.23025  0.39411  1.0000
  H   H746      1.0  0.43755  0.26164  0.38943  1.0000
  H   H747      1.0  0.37978  0.30849  0.40831  1.0000
  H   H748      1.0  0.35434  0.27699  0.41296  1.0000
  C   C730      1.0  0.51409  0.19184  0.39120  1.0000
  C   C731      1.0  0.49216  0.20171  0.38688  1.0000
  C   C732      1.0  0.47435  0.18761  0.38803  1.0000
  C   C733      1.0  0.47835  0.16338  0.39347  1.0000
  C   C734      1.0  0.50034  0.15350  0.39770  1.0000
  C   C735      1.0  0.51810  0.16763  0.39661  1.0000
  H   H749      1.0  0.48886  0.22042  0.38267  1.0000
  H   H750      1.0  0.45760  0.19546  0.38467  1.0000
  H   H751      1.0  0.50362  0.13477  0.40189  1.0000
  H   H752      1.0  0.53485  0.15978  0.39999  1.0000
  H   H753      1.0  0.37423  0.23267  0.36310  1.0000
  C   C736      1.0  0.61764  0.31723  0.41646  1.0000
  C   C737      1.0  0.60321  0.29937  0.41983  1.0000
  C   C738      1.0  0.61197  0.27675  0.41640  1.0000
  C   C739      1.0  0.63535  0.27198  0.40966  1.0000
  C   C740      1.0  0.54454  0.43724  0.43334  1.0000
  H   H754      1.0  0.61065  0.33466  0.41907  1.0000
  H   H755      1.0  0.58520  0.30312  0.42512  1.0000
  C   C741      1.0  0.60560  0.15953  0.44928  1.0000
  C   C742      1.0  0.32360  0.02920  0.46474  1.0000
  C   C743      1.0  0.52905  0.39649  0.40808  1.0000
  C   C744      1.0  0.53224  0.40595  0.39447  1.0000
  C   C745      1.0  0.51325  0.40917  0.38729  1.0000
  C   C746      1.0  0.49100  0.40288  0.39360  1.0000
  C   C747      1.0  0.48790  0.39323  0.40718  1.0000
  C   C748      1.0  0.50683  0.39013  0.41438  1.0000
  H   H756      1.0  0.54924  0.41093  0.38950  1.0000
  H   H757      1.0  0.51580  0.41666  0.37678  1.0000
  H   H758      1.0  0.47082  0.38849  0.41219  1.0000
  H   H759      1.0  0.50419  0.38286  0.42492  1.0000
  C   C749      1.0  0.34319  0.37238  0.33567  1.0000
  C   C750      1.0  0.35213  0.39276  0.35637  1.0000
  C   C751      1.0  0.36855  0.37406  0.35159  1.0000
  C   C752      1.0  0.36418  0.36407  0.34118  1.0000
  H   H760      1.0  0.38483  0.36767  0.35573  1.0000
  H   H761      1.0  0.37714  0.34989  0.33737  1.0000
  C   C753      1.0  0.35933  0.28905  0.36904  1.0000
  H   H762      1.0  0.64950  0.31421  0.38063  1.0000
  C   C754      1.0  0.34988  0.14768  0.35531  1.0000
  C   C755      1.0  0.35086  0.17113  0.34883  1.0000
  N   N63       1.0  0.35901  0.26919  0.36390  1.0000
  H   H763      1.0  0.53761  0.42105  0.43824  1.0000
  H   H764      1.0  0.33729  0.37186  0.27487  1.0000
  H   H765      1.0  0.35969  0.14029  0.36345  1.0000
  C   C756      1.0  0.33114  0.40100  0.35086  1.0000
  S   S266      1.0  0.63359  0.44502  0.43222  1.0000
  C   C757      1.0  0.35279  0.04076  0.42899  1.0000
  H   H766      1.0  0.62914  0.18320  0.35917  1.0000
  H   H767      1.0  0.33482  0.98801  0.42984  1.0000
  H   H768      1.0  0.40733  0.19966  0.41979  1.0000
  H   H769      1.0  0.47319  0.18961  0.41569  1.0000
  H   H770      1.0  0.36710  0.39722  0.30762  1.0000
  C   C758      1.0  0.42600  0.19233  0.42133  1.0000
  S   S267      1.0  0.34521  0.11365  0.40494  1.0000
  C   C759      1.0  0.34683  0.42817  0.43022  1.0000
  H   H771      1.0  0.33560  0.11559  0.35630  1.0000
  H   H772      1.0  0.59377  0.16438  0.44160  1.0000
  H   H773      1.0  0.34649  0.25488  0.34961  1.0000
  C   C760      1.0  0.46570  0.24778  0.41875  1.0000
  C   C761      1.0  0.42815  0.23313  0.42357  1.0000
  C   C762      1.0  0.34935  0.02084  0.42443  1.0000
  H   H774      1.0  0.36871  0.28773  0.37733  1.0000
  C   C763      1.0  0.32832  0.40991  0.26955  1.0000
  C   C764      1.0  0.53493  0.45090  0.42234  1.0000
  H   H775      1.0  0.57657  0.40920  0.44730  1.0000
  C   C765      1.0  0.32654  0.39069  0.34066  1.0000
  H   H776      1.0  0.63455  0.39658  0.36484  1.0000
  H   H777      1.0  0.33549  0.44973  0.28771  1.0000
  H   H778      1.0  0.40885  0.23651  0.42618  1.0000
  H   H779      1.0  0.35325  0.37411  0.29494  1.0000
  C   C766      1.0  0.65554  0.47359  0.44266  1.0000
  H   H780      1.0  0.43164  0.26928  0.42414  1.0000
  H   H781      1.0  0.37273  0.44377  0.41483  1.0000
  H   H782      1.0  0.33577  0.01752  0.47125  1.0000
  C   C767      1.0  0.57346  0.42817  0.44863  1.0000
  C   C768      1.0  0.57178  0.46396  0.43129  1.0000
  H   H783      1.0  0.35563  0.01886  0.41408  1.0000
  H   H784      1.0  0.63981  0.15966  0.34069  1.0000
  H   H785      1.0  0.49663  0.22190  0.41343  1.0000
  H   H786      1.0  0.35971  0.23918  0.37935  1.0000
  C   C769      1.0  0.32533  0.47567  0.43246  1.0000
  C   C770      1.0  0.46401  0.20707  0.41759  1.0000
  C   C771      1.0  0.32940  0.00664  0.44649  1.0000
  N   N64       1.0  0.62503  0.17365  0.44571  1.0000
  C   C772      1.0  0.34690  0.27071  0.35360  1.0000
  C   C773      1.0  0.32732  0.47880  0.39024  1.0000
  S   S268      1.0  0.64526  0.43995  0.37024  1.0000
  C   C774      1.0  0.44096  0.25171  0.42251  1.0000
  H   H787      1.0  0.43404  0.18157  0.41331  1.0000
  H   H788      1.0  0.65149  0.14430  0.45159  1.0000
  C   C775      1.0  0.34419  0.04329  0.44229  1.0000
  C   C776      1.0  0.47738  0.22525  0.41640  1.0000
  C   C777      1.0  0.33530  0.31304  0.35316  1.0000
  H   H789      1.0  0.36314  0.42903  0.30338  1.0000
  C   C778      1.0  0.35670  0.44721  0.42198  1.0000
  H   H790      1.0  0.38852  0.24760  0.37204  1.0000
  C   C779      1.0  0.64530  0.18497  0.35203  1.0000
  N   N65       1.0  0.50500  0.32515  0.39316  1.0000
  C   C780      1.0  0.52258  0.33204  0.39790  1.0000
  C   C781      1.0  0.50649  0.30192  0.39175  1.0000
  C   C782      1.0  0.54220  0.31544  0.40154  1.0000
  C   C783      1.0  0.52598  0.28486  0.39518  1.0000
  C   C784      1.0  0.54386  0.29171  0.40016  1.0000
  C   C785      1.0  0.48474  0.34302  0.38941  1.0000
  H   H791      1.0  0.52149  0.35051  0.39889  1.0000
  H   H792      1.0  0.49260  0.29647  0.38792  1.0000
  H   H793      1.0  0.55605  0.32095  0.40537  1.0000
  H   H794      1.0  0.52731  0.26647  0.39392  1.0000
  H   H795      1.0  0.55905  0.27868  0.40292  1.0000
  H   H796      1.0  0.49086  0.35639  0.38076  1.0000
  H   H797      1.0  0.47080  0.33498  0.38670  1.0000
  H   H798      1.0  0.47614  0.35249  0.39786  1.0000
  C   C786      1.0  0.35415  0.41331  0.30458  1.0000
  H   H799      1.0  0.34812  0.32712  0.36766  1.0000
  C   C787      1.0  0.34611  0.47080  0.42318  1.0000
  H   H800      1.0  0.58637  0.46911  0.43461  1.0000
  H   H801      1.0  0.32549  0.29398  0.33980  1.0000
  N   N66       1.0  0.34602  0.41210  0.29225  1.0000
  H   H802      1.0  0.52099  0.44509  0.41874  1.0000
  H   H803      1.0  0.34624  0.44577  0.38445  1.0000
  C   C788      1.0  0.33752  0.38904  0.27742  1.0000
  H   H804      1.0  0.63453  0.23030  0.43378  1.0000
  H   H805      1.0  0.60227  0.20595  0.43944  1.0000
  C   C789      1.0  0.37090  0.24603  0.36988  1.0000
  H   H806      1.0  0.34645  0.05912  0.44565  1.0000
  H   H807      1.0  0.47573  0.26221  0.41757  1.0000
  H   H808      1.0  0.64607  0.09317  0.43733  1.0000
  H   H809      1.0  0.59501  0.16251  0.45912  1.0000
  C   C790      1.0  0.65007  0.28962  0.40671  1.0000
  C   C791      1.0  0.33207  0.45397  0.39147  1.0000
  H   H810      1.0  0.65161  0.20937  0.31296  1.0000
  C   C792      1.0  0.32616  0.43302  0.43960  1.0000
  C   C793      1.0  0.33495  0.29268  0.34804  1.0000
  H   H811      1.0  0.65196  0.37305  0.34679  1.0000
  H   H812      1.0  0.33891  0.19846  0.33308  1.0000
  S   S269      1.0  0.65402  0.21670  0.36639  1.0000
  H   H813      1.0  0.34463  0.40853  0.40185  1.0000
  C   C794      1.0  0.64906  0.40217  0.35732  1.0000
  C   C795      1.0  0.64761  0.16321  0.44776  1.0000
  C   C796      1.0  0.32543  0.10350  0.41935  1.0000
  N   N67       1.0  0.43967  0.21138  0.42071  1.0000
  H   H814      1.0  0.36152  0.05452  0.42219  1.0000
  S   S270      1.0  0.33831  0.35975  0.32249  1.0000
  C   C797      1.0  0.33767  0.00359  0.43323  1.0000
  C   C798      1.0  0.62023  0.19750  0.44090  1.0000
  C   C799      1.0  0.32778  0.43187  0.27320  1.0000
  H   H815      1.0  0.33864  0.41441  0.31280  1.0000
  C   C800      1.0  0.64122  0.31234  0.41004  1.0000
  Fe  Fe136     1.0  0.63987  0.37142  0.40784  1.0000
  C   C801      1.0  0.33624  0.13369  0.35123  1.0000
  C   C802      1.0  0.65131  0.17173  0.34154  1.0000
  H   H816      1.0  0.61253  0.14018  0.44965  1.0000
  N   N68       1.0  0.33239  0.02649  0.45080  1.0000
  C   C803      1.0  0.34641  0.39046  0.28879  1.0000
  C   C804      1.0  0.34762  0.31131  0.36370  1.0000
  C   C805      1.0  0.33656  0.43263  0.28472  1.0000
  C   C806      1.0  0.54411  0.47139  0.41574  1.0000
  C   C807      1.0  0.63842  0.21141  0.43768  1.0000
  H   H817      1.0  0.32603  0.33015  0.34895  1.0000
  H   H818      1.0  0.33212  0.12615  0.43182  1.0000
  H   H819      1.0  0.64227  0.25457  0.40702  1.0000
  C   C808      1.0  0.32420  0.16652  0.33426  1.0000
  H   H820      1.0  0.65065  0.19393  0.29251  1.0000
  C   C809      1.0  0.56249  0.47816  0.42031  1.0000
  C   C810      1.0  0.32245  0.11229  0.43127  1.0000
  H   H821      1.0  0.53721  0.48179  0.40700  1.0000
  H   H822      1.0  0.41526  0.16563  0.69275  1.0000
  C   C811      1.0  0.41135  0.12025  0.71718  1.0000
  C   C812      1.0  0.43804  0.14804  0.71372  1.0000
  N   N69       1.0  0.41828  0.14152  0.71098  1.0000
  C   C813      1.0  0.40382  0.15816  0.70193  1.0000
  C   C814      1.0  0.45144  0.13307  0.72287  1.0000
  H   H823      1.0  0.39076  0.14939  0.69890  1.0000
  H   H824      1.0  0.39338  0.17289  0.70709  1.0000
  H   H825      1.0  0.44317  0.16517  0.70909  1.0000
  H   H826      1.0  0.32484  0.14354  0.70741  1.0000
  C   C815      1.0  0.34332  0.12342  0.72324  1.0000
  H   H827      1.0  0.63772  0.09237  0.71759  1.0000
  H   H828      1.0  0.46676  0.13848  0.72532  1.0000
  H   H829      1.0  0.39545  0.11523  0.71521  1.0000
  C   C816      1.0  0.32705  0.08370  0.71781  1.0000
  C   C817      1.0  0.32926  0.12612  0.71324  1.0000
  H   H830      1.0  0.65383  0.24971  0.72630  1.0000
  S   S271      1.0  0.35496  0.14850  0.72530  1.0000
  C   C818      1.0  0.65206  0.09930  0.72005  1.0000
  C   C819      1.0  0.42428  0.10491  0.72643  1.0000
  Fe  Fe137     1.0  0.38000  0.01536  0.87476  1.0000
  H   H831      1.0  0.54937  0.45985  0.86116  1.0000
  Fe  Fe138     1.0  0.39501  0.05190  0.85060  1.0000
  S   S272      1.0  0.41408  0.02384  0.83860  1.0000
  S   S273      1.0  0.39890  0.08956  0.84081  1.0000
  H   H832      1.0  0.36044  0.08970  0.77745  1.0000
  S   S274      1.0  0.36448  0.00447  0.89653  1.0000
  S   S275      1.0  0.36175  0.03541  0.85766  1.0000
  S   S276      1.0  0.41145  0.03485  0.86884  1.0000
  H   H833      1.0  0.46341  0.03113  0.86898  1.0000
  C   C820      1.0  0.43162  0.41689  0.84256  1.0000
  H   H834      1.0  0.62831  0.12668  0.72976  1.0000
  Fe  Fe139     1.0  0.62595  0.04515  0.85490  1.0000
  S   S277      1.0  0.60223  0.02162  0.85144  1.0000
  S   S278      1.0  0.63738  0.37876  0.80934  1.0000
  Fe  Fe140     1.0  0.58409  0.02380  0.87238  1.0000
  S   S279      1.0  0.54355  0.03336  0.87700  1.0000
  S   S280      1.0  0.36171  0.99761  0.83172  1.0000
  S   S281      1.0  0.60628  0.04969  0.87545  1.0000
  C   C821      1.0  0.55282  0.43764  0.81933  1.0000
  H   H835      1.0  0.45737  0.17807  0.74083  1.0000
  H   H836      1.0  0.33332  0.24904  0.78508  1.0000
  H   H837      1.0  0.33357  0.04966  0.88896  1.0000
  N   N70       1.0  0.56740  0.10193  0.84347  1.0000
  H   H838      1.0  0.39918  0.09049  0.78382  1.0000
  H   H839      1.0  0.59997  0.25698  0.75370  1.0000
  N   N71       1.0  0.45983  0.22445  0.76100  1.0000
  Fe  Fe141     1.0  0.60479  0.36805  0.76959  1.0000
  S   S282      1.0  0.58175  0.40283  0.76292  1.0000
  Fe  Fe142     1.0  0.61629  0.38749  0.79249  1.0000
  S   S283      1.0  0.59350  0.42271  0.78796  1.0000
  C   C822      1.0  0.56739  0.42926  0.84032  1.0000
  Fe  Fe143     1.0  0.56712  0.40169  0.78466  1.0000
  S   S284      1.0  0.52829  0.40749  0.79422  1.0000
  S   S285      1.0  0.58858  0.36619  0.79119  1.0000
  Fe  Fe144     1.0  0.62241  0.16377  0.75053  1.0000
  S   S286      1.0  0.62259  0.16357  0.77220  1.0000
  Fe  Fe145     1.0  0.56875  0.18159  0.75346  1.0000
  S   S287      1.0  0.56509  0.18228  0.77533  1.0000
  C   C823      1.0  0.45574  0.18693  0.77532  1.0000
  Fe  Fe146     1.0  0.59842  0.19908  0.76958  1.0000
  S   S288      1.0  0.60357  0.22823  0.78014  1.0000
  Fe  Fe147     1.0  0.58958  0.14711  0.77589  1.0000
  S   S289      1.0  0.58266  0.11371  0.79047  1.0000
  S   S290      1.0  0.60074  0.20066  0.74758  1.0000
  S   S291      1.0  0.59072  0.14503  0.75437  1.0000
  Fe  Fe148     1.0  0.37151  0.15430  0.74250  1.0000
  S   S292      1.0  0.34983  0.17720  0.75714  1.0000
  C   C824      1.0  0.60184  0.29296  0.75575  1.0000
  Fe  Fe149     1.0  0.41622  0.14879  0.75545  1.0000
  S   S293      1.0  0.39766  0.17053  0.77120  1.0000
  S   S294      1.0  0.45423  0.13076  0.75630  1.0000
  Fe  Fe150     1.0  0.36761  0.15043  0.77254  1.0000
  S   S295      1.0  0.34602  0.13355  0.79134  1.0000
  Fe  Fe151     1.0  0.38188  0.19535  0.75447  1.0000
  S   S296      1.0  0.38115  0.23543  0.74957  1.0000
  S   S297      1.0  0.38740  0.12646  0.75806  1.0000
  S   S298      1.0  0.40242  0.17467  0.73850  1.0000
  Fe  Fe152     1.0  0.39325  0.34285  0.78276  1.0000
  S   S299      1.0  0.39594  0.36612  0.76261  1.0000
  S   S300      1.0  0.39641  0.30250  0.78762  1.0000
  Fe  Fe153     1.0  0.38499  0.38590  0.79741  1.0000
  S   S301      1.0  0.38664  0.41239  0.77839  1.0000
  S   S302      1.0  0.37907  0.39479  0.81822  1.0000
  Fe  Fe154     1.0  0.36445  0.39039  0.77189  1.0000
  H   H840      1.0  0.41841  0.08831  0.73152  1.0000
  Fe  Fe155     1.0  0.41791  0.38591  0.77103  1.0000
  S   S303      1.0  0.45289  0.39674  0.75988  1.0000
  S   S304      1.0  0.36047  0.36568  0.79160  1.0000
  S   S305      1.0  0.41760  0.36075  0.79045  1.0000
  C   C825      1.0  0.44900  0.00903  0.90110  1.0000
  C   C826      1.0  0.38660  0.25347  0.76014  1.0000
  C   C827      1.0  0.38718  0.27776  0.75521  1.0000
  C   C828      1.0  0.39061  0.29297  0.76343  1.0000
  C   C829      1.0  0.39366  0.28391  0.77662  1.0000
  C   C830      1.0  0.39369  0.25950  0.78144  1.0000
  C   C831      1.0  0.39000  0.24434  0.77328  1.0000
  H   H841      1.0  0.38465  0.28492  0.74503  1.0000
  H   H842      1.0  0.39070  0.31170  0.75959  1.0000
  H   H843      1.0  0.39598  0.25240  0.79167  1.0000
  H   H844      1.0  0.38930  0.22574  0.77724  1.0000
  Fe  Fe156     1.0  0.62556  0.47771  0.85379  1.0000
  C   C832      1.0  0.51392  0.17619  0.74657  1.0000
  C   C833      1.0  0.55855  0.08151  0.84946  1.0000
  C   C834      1.0  0.56128  0.11405  0.83157  1.0000
  C   C835      1.0  0.47698  0.14851  0.75241  1.0000
  C   C836      1.0  0.49862  0.13967  0.75715  1.0000
  C   C837      1.0  0.51694  0.15355  0.75437  1.0000
  C   C838      1.0  0.54645  0.10539  0.82516  1.0000
  C   C839      1.0  0.47086  0.99484  0.89740  1.0000
  C   C840      1.0  0.33832  0.45996  0.93724  1.0000
  H   H845      1.0  0.43660  0.40498  0.81137  1.0000
  H   H846      1.0  0.43026  0.04963  0.80247  1.0000
  C   C841      1.0  0.60120  0.25928  0.77399  1.0000
  C   C842      1.0  0.60205  0.27472  0.78270  1.0000
  C   C843      1.0  0.60303  0.29909  0.77796  1.0000
  H   H847      1.0  0.60255  0.26767  0.79313  1.0000
  H   H848      1.0  0.60424  0.31059  0.78473  1.0000
  C   C844      1.0  0.50740  0.40492  0.78453  1.0000
  C   C845      1.0  0.51236  0.40922  0.77060  1.0000
  C   C846      1.0  0.49517  0.40753  0.76312  1.0000
  C   C847      1.0  0.47306  0.40119  0.76952  1.0000
  C   C848      1.0  0.46804  0.39708  0.78347  1.0000
  C   C849      1.0  0.48518  0.39893  0.79094  1.0000
  H   H849      1.0  0.52927  0.41427  0.76556  1.0000
  H   H850      1.0  0.49909  0.41100  0.75234  1.0000
  H   H851      1.0  0.45105  0.39228  0.78848  1.0000
  H   H852      1.0  0.48138  0.39540  0.80171  1.0000
  C   C850      1.0  0.38598  0.46902  0.82398  1.0000
  C   C851      1.0  0.38880  0.46378  0.81109  1.0000
  C   C852      1.0  0.38576  0.44137  0.80919  1.0000
  C   C853      1.0  0.37962  0.42412  0.82018  1.0000
  C   C854      1.0  0.37574  0.42974  0.83308  1.0000
  C   C855      1.0  0.37898  0.45214  0.83499  1.0000
  H   H853      1.0  0.33765  0.99766  0.97497  1.0000
  H   H854      1.0  0.38881  0.43726  0.79924  1.0000
  H   H855      1.0  0.37090  0.41647  0.84162  1.0000
  H   H856      1.0  0.37666  0.45610  0.84497  1.0000
  C   C856      1.0  0.63261  0.42288  0.84203  1.0000
  C   C857      1.0  0.62250  0.43364  0.83060  1.0000
  H   H857      1.0  0.34072  0.07168  0.96988  1.0000
  C   C858      1.0  0.63392  0.39624  0.82187  1.0000
  H   H858      1.0  0.42861  0.20831  0.76467  1.0000
  C   C859      1.0  0.60332  0.30826  0.76440  1.0000
  C   C860      1.0  0.51391  0.35993  0.74533  1.0000
  C   C861      1.0  0.44642  0.20701  0.76683  1.0000
  Fe  Fe157     1.0  0.61052  0.42077  0.76667  1.0000
  H   H859      1.0  0.41479  0.06462  0.81615  1.0000
  C   C862      1.0  0.49246  0.18482  0.74157  1.0000
  H   H860      1.0  0.32480  0.35266  0.77634  1.0000
  H   H861      1.0  0.34620  0.47127  0.94213  1.0000
  H   H862      1.0  0.38440  0.03826  0.81818  1.0000
  C   C863      1.0  0.62383  0.08552  0.82526  1.0000
  C   C864      1.0  0.60908  0.07189  0.82201  1.0000
  C   C865      1.0  0.59738  0.08035  0.81096  1.0000
  C   C866      1.0  0.59999  0.10268  0.80319  1.0000
  C   C867      1.0  0.61508  0.11618  0.80625  1.0000
  C   C868      1.0  0.62708  0.10753  0.81722  1.0000
  H   H863      1.0  0.60639  0.05495  0.82803  1.0000
  H   H864      1.0  0.58570  0.06984  0.80864  1.0000
  H   H865      1.0  0.61710  0.13349  0.80036  1.0000
  C   C869      1.0  0.49899  0.03235  0.87199  1.0000
  C   C870      1.0  0.38369  0.10204  0.82730  1.0000
  C   C871      1.0  0.39343  0.11897  0.81711  1.0000
  C   C872      1.0  0.38207  0.12866  0.80600  1.0000
  C   C873      1.0  0.36047  0.12208  0.80526  1.0000
  C   C874      1.0  0.35051  0.10545  0.81557  1.0000
  C   C875      1.0  0.36231  0.09512  0.82645  1.0000
  H   H866      1.0  0.40995  0.12441  0.81776  1.0000
  H   H867      1.0  0.38982  0.14153  0.79816  1.0000
  C   C876      1.0  0.32957  0.01029  0.91806  1.0000
  H   H868      1.0  0.35464  0.08215  0.83431  1.0000
  C   C877      1.0  0.41694  0.06511  0.80522  1.0000
  H   H869      1.0  0.42387  0.08187  0.80041  1.0000
  C   C878      1.0  0.60063  0.26863  0.76052  1.0000
  C   C879      1.0  0.52320  0.02205  0.87013  1.0000
  C   C880      1.0  0.56333  0.42134  0.82919  1.0000
  H   H870      1.0  0.44840  0.02479  0.90536  1.0000
  H   H871      1.0  0.39406  0.47685  0.80254  1.0000
  H   H872      1.0  0.42640  0.40926  0.85292  1.0000
  H   H873      1.0  0.49328  0.04733  0.87725  1.0000
  S   S306      1.0  0.63232  0.43791  0.85525  1.0000
  H   H874      1.0  0.42623  0.38676  0.83486  1.0000
  C   C881      1.0  0.64405  0.38585  0.83324  1.0000
  H   H875      1.0  0.52539  0.37315  0.73972  1.0000
  S   S307      1.0  0.63496  0.38625  0.77138  1.0000
  H   H876      1.0  0.35987  0.09831  0.73831  1.0000
  C   C882      1.0  0.63941  0.09147  0.75922  1.0000
  C   C883      1.0  0.33247  0.34207  0.76823  1.0000
  H   H877      1.0  0.56257  0.34321  0.77728  1.0000
  C   C884      1.0  0.34183  0.44062  0.74528  1.0000
  C   C885      1.0  0.55104  0.46895  0.83189  1.0000
  H   H878      1.0  0.48839  0.33765  0.79033  1.0000
  H   H879      1.0  0.46868  0.44532  0.79881  1.0000
  C   C886      1.0  0.54662  0.46160  0.82067  1.0000
  H   H880      1.0  0.57586  0.41653  0.84787  1.0000
  C   C887      1.0  0.48201  0.02325  0.86725  1.0000
  C   C888      1.0  0.43750  0.41467  0.81913  1.0000
  H   H881      1.0  0.43686  0.45010  0.84697  1.0000
  H   H882      1.0  0.64006  0.05644  0.74580  1.0000
  H   H883      1.0  0.65119  0.27652  0.76634  1.0000
  C   C889      1.0  0.47394  0.17114  0.74459  1.0000
  C   C890      1.0  0.32306  0.98885  0.75233  1.0000
  H   H884      1.0  0.55534  0.35483  0.75408  1.0000
  C   C891      1.0  0.33259  0.01586  0.97017  1.0000
  C   C892      1.0  0.64311  0.39895  0.84330  1.0000
  H   H885      1.0  0.34129  0.46717  0.92637  1.0000
  H   H886      1.0  0.44192  0.46745  0.80042  1.0000
  H   H887      1.0  0.58111  0.44959  0.85735  1.0000
  H   H888      1.0  0.65445  0.41833  0.78909  1.0000
  H   H889      1.0  0.61514  0.42843  0.81176  1.0000
  H   H890      1.0  0.41087  0.01390  0.90173  1.0000
  H   H891      1.0  0.59577  0.12101  0.84274  1.0000
  H   H892      1.0  0.65112  0.25041  0.77878  1.0000
  Fe  Fe158     1.0  0.63198  0.01754  0.88281  1.0000
  C   C893      1.0  0.33672  0.46118  0.73586  1.0000
  N   N72       1.0  0.51808  0.35288  0.75917  1.0000
  N   N73       1.0  0.56152  0.45285  0.84146  1.0000
  C   C894      1.0  0.53040  0.00292  0.86314  1.0000
  H   H893      1.0  0.49512  0.36867  0.74489  1.0000
  C   C895      1.0  0.47884  0.18493  0.77792  1.0000
  Fe  Fe159     1.0  0.42851  0.00564  0.85724  1.0000
  Fe  Fe160     1.0  0.38178  0.00592  0.84663  1.0000
  H   H894      1.0  0.43643  0.24096  0.74704  1.0000
  C   C896      1.0  0.33871  0.02027  0.90502  1.0000
  C   C897      1.0  0.44325  0.44970  0.82579  1.0000
  C   C898      1.0  0.35061  0.06301  0.79424  1.0000
  S   S308      1.0  0.32897  0.40280  0.76446  1.0000
  C   C899      1.0  0.33565  0.30688  0.78568  1.0000
  H   H895      1.0  0.60195  0.29991  0.74525  1.0000
  H   H896      1.0  0.35997  0.43415  0.74699  1.0000
  H   H897      1.0  0.44540  0.17270  0.77955  1.0000
  H   H898      1.0  0.56861  0.40273  0.82812  1.0000
  H   H899      1.0  0.33958  0.27475  0.80024  1.0000
  N   N74       1.0  0.44293  0.43725  0.81594  1.0000
  C   C900      1.0  0.33584  0.28251  0.79030  1.0000
  H   H900      1.0  0.45438  0.09998  0.73664  1.0000
  H   H901      1.0  0.52901  0.33525  0.79567  1.0000
  S   S309      1.0  0.65089  0.00916  0.90107  1.0000
  C   C901      1.0  0.43749  0.43978  0.83923  1.0000
  C   C902      1.0  0.48900  0.00349  0.86076  1.0000
  C   C903      1.0  0.52596  0.33980  0.78541  1.0000
  H   H902      1.0  0.63851  0.11818  0.81966  1.0000
  H   H903      1.0  0.34567  0.03699  0.81217  1.0000
  C   C904      1.0  0.32662  0.04173  0.89899  1.0000
  H   H904      1.0  0.34607  0.06347  0.73340  1.0000
  C   C905      1.0  0.34900  0.10073  0.73063  1.0000
  C   C906      1.0  0.49966  0.34742  0.76914  1.0000
  S   S310      1.0  0.60806  0.99183  0.88140  1.0000
  N   N75       1.0  0.39409  0.06442  0.80137  1.0000
  C   C907      1.0  0.37943  0.04936  0.80913  1.0000
  C   C908      1.0  0.38779  0.07826  0.78989  1.0000
  C   C909      1.0  0.35744  0.04853  0.80575  1.0000
  C   C910      1.0  0.36595  0.07779  0.78618  1.0000
  S   S311      1.0  0.60667  0.33829  0.75771  1.0000
  H   H905      1.0  0.50114  0.12213  0.76315  1.0000
  C   C911      1.0  0.49220  0.20304  0.77215  1.0000
  H   H906      1.0  0.59333  0.09689  0.85624  1.0000
  H   H907      1.0  0.56302  0.07210  0.85901  1.0000
  H   H908      1.0  0.51777  0.34405  0.74036  1.0000
  C   C912      1.0  0.63613  0.07220  0.96660  1.0000
  C   C913      1.0  0.33403  0.05716  0.96744  1.0000
  H   H909      1.0  0.53703  0.05593  0.84803  1.0000
  H   H910      1.0  0.52648  0.07720  0.82615  1.0000
  H   H911      1.0  0.34785  0.44139  0.93893  1.0000
  C   C914      1.0  0.54054  0.35104  0.76198  1.0000
  C   C915      1.0  0.54478  0.34450  0.77512  1.0000
  H   H912      1.0  0.61436  0.45216  0.82952  1.0000
  H   H913      1.0  0.53339  0.14674  0.75828  1.0000
  H   H914      1.0  0.56842  0.13016  0.82674  1.0000
  H   H915      1.0  0.48716  0.99982  0.89887  1.0000
  H   H916      1.0  0.48184  0.34878  0.76692  1.0000
  C   C916      1.0  0.62283  0.42018  0.82058  1.0000
  C   C917      1.0  0.54374  0.07231  0.84332  1.0000
  C   C918      1.0  0.53774  0.08431  0.83108  1.0000
  H   H917      1.0  0.54241  0.11459  0.81547  1.0000
  S   S312      1.0  0.53600  0.19463  0.74350  1.0000
  H   H918      1.0  0.33882  0.99370  0.92279  1.0000
  H   H919      1.0  0.51045  0.20134  0.77377  1.0000
  S   S313      1.0  0.63771  0.07599  0.83952  1.0000
  H   H920      1.0  0.35105  0.47050  0.73036  1.0000
  H   H921      1.0  0.44703  0.46779  0.82327  1.0000
  H   H922      1.0  0.56902  0.47939  0.85087  1.0000
  H   H923      1.0  0.53849  0.47441  0.81303  1.0000
  H   H924      1.0  0.49006  0.20231  0.73550  1.0000
  C   C919      1.0  0.65050  0.46078  0.74812  1.0000
  C   C920      1.0  0.48236  0.22281  0.76368  1.0000
  C   C921      1.0  0.44965  0.24543  0.75223  1.0000
  H   H925      1.0  0.44095  0.44014  0.79529  1.0000
  H   H926      1.0  0.63317  0.08406  0.76980  1.0000
  H   H927      1.0  0.44050  0.25948  0.75821  1.0000
  C   C922      1.0  0.44899  0.44805  0.80193  1.0000
  S   S314      1.0  0.62097  0.45581  0.75495  1.0000
  H   H928      1.0  0.49320  0.23642  0.75893  1.0000
  H   H929      1.0  0.54901  0.99489  0.86157  1.0000
  C   C923      1.0  0.58265  0.11147  0.85014  1.0000
  H   H930      1.0  0.57155  0.12378  0.85670  1.0000
  C   C924      1.0  0.50325  0.34108  0.78242  1.0000
  C   C925      1.0  0.43169  0.40419  0.83246  1.0000
  H   H931      1.0  0.48660  0.16910  0.78412  1.0000
  H   H932      1.0  0.65448  0.27378  0.74340  1.0000
  H   H933      1.0  0.62454  0.09381  0.75350  1.0000
  H   H934      1.0  0.46371  0.25258  0.74436  1.0000
  H   H935      1.0  0.33378  0.10031  0.81505  1.0000
  H   H936      1.0  0.33331  0.06311  0.79171  1.0000
  H   H937      1.0  0.64545  0.02884  0.83060  1.0000
  C   C926      1.0  0.56541  0.46076  0.85330  1.0000
  Fe  Fe161     1.0  0.62809  0.99169  0.86052  1.0000
  C   C927      1.0  0.42799  0.00298  0.89905  1.0000
  N   N76       1.0  0.34100  0.03418  0.97327  1.0000
  H   H938      1.0  0.62733  0.09059  0.96532  1.0000
  S   S315      1.0  0.46775  0.98913  0.85654  1.0000
  H   H939      1.0  0.64340  0.99128  0.82318  1.0000
  C   C928      1.0  0.51334  0.99364  0.85853  1.0000
  H   H940      1.0  0.32667  0.31020  0.75429  1.0000
  H   H941      1.0  0.54954  0.43168  0.81066  1.0000
  H   H942      1.0  0.33142  0.98733  0.81570  1.0000
  S   S316      1.0  0.65340  0.01515  0.86237  1.0000
  H   H943      1.0  0.65269  0.36744  0.83431  1.0000
  C   C929      1.0  0.42909  0.98300  0.89328  1.0000
  S   S317      1.0  0.39805  0.98460  0.86420  1.0000
  H   H944      1.0  0.35119  0.34496  0.76454  1.0000
  C   C930      1.0  0.32874  0.30263  0.76451  1.0000
  H   H945      1.0  0.64244  0.44671  0.78062  1.0000
  N   N77       1.0  0.33175  0.31667  0.77300  1.0000
  C   C931      1.0  0.44445  0.11141  0.72927  1.0000
  H   H946      1.0  0.32732  0.26690  0.76192  1.0000
  H   H947      1.0  0.64353  0.10959  0.75872  1.0000
  C   C932      1.0  0.32894  0.27816  0.76879  1.0000
  H   H948      1.0  0.33935  0.31776  0.79217  1.0000
  C   C933      1.0  0.33241  0.26811  0.78179  1.0000
  H   H949      1.0  0.65089  0.39049  0.85210  1.0000
  C   C934      1.0  0.32348  0.42837  0.75233  1.0000
  C   C935      1.0  0.64667  0.11871  0.72698  1.0000
  C   C936      1.0  0.34111  0.08100  0.72783  1.0000
  C   C937      1.0  0.65456  0.47197  0.79578  1.0000
  H   H950      1.0  0.37681  0.02688  0.97669  1.0000
  Fe  Fe162     1.0  0.61019  0.55312  0.05199  1.0000
  S   S318      1.0  0.59075  0.52190  0.05563  1.0000
  H   H951      1.0  0.34805  0.69423  0.07868  1.0000
  Fe  Fe163     1.0  0.57754  0.57523  0.07517  1.0000
  S   S319      1.0  0.55602  0.54544  0.08052  1.0000
  S   S320      1.0  0.56332  0.60569  0.08682  1.0000
  Fe  Fe164     1.0  0.59122  0.52139  0.07730  1.0000
  S   S321      1.0  0.36061  0.67573  0.14155  1.0000
  Fe  Fe165     1.0  0.55717  0.54878  0.05858  1.0000
  S   S322      1.0  0.52473  0.54922  0.04928  1.0000
  S   S323      1.0  0.61285  0.55079  0.07371  1.0000
  S   S324      1.0  0.57657  0.58026  0.05317  1.0000
  Fe  Fe166     1.0  0.35126  0.57825  0.07101  1.0000
  S   S325      1.0  0.36130  0.55455  0.08949  1.0000
  C   C938      1.0  0.35853  0.91786  0.20796  1.0000
  Fe  Fe167     1.0  0.35509  0.53718  0.05611  1.0000
  S   S326      1.0  0.36680  0.50990  0.07332  1.0000
  S   S327      1.0  0.35100  0.52563  0.03707  1.0000
  H   H952      1.0  0.42661  0.82257  0.15015  1.0000
  Fe  Fe168     1.0  0.38987  0.53575  0.07534  1.0000
  S   S328      1.0  0.42591  0.52514  0.08225  1.0000
  S   S329      1.0  0.38108  0.56104  0.05690  1.0000
  Fe  Fe169     1.0  0.40388  0.91394  0.13765  1.0000
  S   S330      1.0  0.40335  0.91488  0.15930  1.0000
  S   S331      1.0  0.41606  0.94486  0.12252  1.0000
  Fe  Fe170     1.0  0.39160  0.86325  0.14335  1.0000
  S   S332      1.0  0.38969  0.86058  0.16540  1.0000
  S   S333      1.0  0.39149  0.83330  0.13208  1.0000
  Fe  Fe171     1.0  0.37004  0.89851  0.16274  1.0000
  C   C939      1.0  0.64141  0.60090  0.15624  1.0000
  Fe  Fe172     1.0  0.42291  0.87741  0.16000  1.0000
  S   S334      1.0  0.45639  0.85973  0.16831  1.0000
  S   S335      1.0  0.36930  0.89988  0.14091  1.0000
  S   S336      1.0  0.42605  0.87777  0.13816  1.0000
  Fe  Fe173     1.0  0.59791  0.90844  0.14179  1.0000
  S   S337      1.0  0.59024  0.93519  0.15552  1.0000
  S   S338      1.0  0.58823  0.91940  0.12120  1.0000
  Fe  Fe174     1.0  0.60469  0.86589  0.16439  1.0000
  S   S339      1.0  0.59683  0.88987  0.17990  1.0000
  S   S340      1.0  0.60906  0.82607  0.17232  1.0000
  Fe  Fe175     1.0  0.56736  0.90972  0.16871  1.0000
  S   S341      1.0  0.52869  0.92346  0.17588  1.0000
  Fe  Fe176     1.0  0.62062  0.91305  0.16529  1.0000
  S   S342      1.0  0.57360  0.88416  0.15450  1.0000
  Fe  Fe177     1.0  0.61164  0.66125  0.13618  1.0000
  S   S343      1.0  0.58723  0.64999  0.15499  1.0000
  S   S344      1.0  0.62649  0.63291  0.12331  1.0000
  Fe  Fe178     1.0  0.61478  0.70807  0.14489  1.0000
  S   S345      1.0  0.59146  0.69918  0.16461  1.0000
  S   S346      1.0  0.62748  0.74376  0.13736  1.0000
  Fe  Fe179     1.0  0.61246  0.66208  0.16513  1.0000
  H   H953      1.0  0.49245  0.61147  0.16845  1.0000
  Fe  Fe180     1.0  0.56900  0.68784  0.15241  1.0000
  S   S347      1.0  0.52927  0.69992  0.15613  1.0000
  S   S348      1.0  0.63782  0.67185  0.14638  1.0000
  S   S349      1.0  0.59117  0.69838  0.13259  1.0000
  Fe  Fe181     1.0  0.38327  0.67483  0.12132  1.0000
  S   S350      1.0  0.40625  0.64025  0.12733  1.0000
  S   S351      1.0  0.36851  0.68572  0.10208  1.0000
  Fe  Fe182     1.0  0.38796  0.69539  0.14535  1.0000
  S   S352      1.0  0.41111  0.66184  0.15351  1.0000
  H   H954      1.0  0.50870  0.63482  0.08384  1.0000
  Fe  Fe183     1.0  0.42967  0.66262  0.13234  1.0000
  S   S353      1.0  0.46953  0.65491  0.12566  1.0000
  Fe  Fe184     1.0  0.38544  0.64233  0.14795  1.0000
  S   S354      1.0  0.40842  0.69738  0.12456  1.0000
  H   H955      1.0  0.54748  0.93123  0.14440  1.0000
  C   C940      1.0  0.35417  0.75155  0.11010  1.0000
  C   C941      1.0  0.51290  0.68905  0.14674  1.0000
  C   C942      1.0  0.52434  0.67635  0.13651  1.0000
  C   C943      1.0  0.51084  0.66682  0.12962  1.0000
  C   C944      1.0  0.48590  0.66975  0.13304  1.0000
  C   C945      1.0  0.47445  0.68303  0.14302  1.0000
  C   C946      1.0  0.48795  0.69264  0.14985  1.0000
  H   H956      1.0  0.54360  0.67366  0.13398  1.0000
  H   H957      1.0  0.51980  0.65670  0.12184  1.0000
  H   H958      1.0  0.45525  0.68537  0.14570  1.0000
  H   H959      1.0  0.47913  0.70231  0.15783  1.0000
  H   H960      1.0  0.36606  0.76937  0.16800  1.0000
  H   H961      1.0  0.36462  0.93665  0.09187  1.0000
  H   H962      1.0  0.35870  0.90699  0.20022  1.0000
  C   C947      1.0  0.61450  0.80349  0.16239  1.0000
  C   C948      1.0  0.61152  0.78018  0.16860  1.0000
  C   C949      1.0  0.61535  0.76172  0.16107  1.0000
  C   C950      1.0  0.62281  0.76630  0.14727  1.0000
  C   C951      1.0  0.62620  0.78954  0.14109  1.0000
  C   C952      1.0  0.62178  0.80815  0.14858  1.0000
  C   C953      1.0  0.64888  0.55085  0.02037  1.0000
  H   H963      1.0  0.61284  0.74391  0.16597  1.0000
  H   H964      1.0  0.41551  0.95296  0.06157  1.0000
  H   H965      1.0  0.62433  0.82598  0.14369  1.0000
  H   H966      1.0  0.36057  0.94921  0.17525  1.0000
  C   C954      1.0  0.47598  0.87780  0.17059  1.0000
  C   C955      1.0  0.46862  0.90210  0.17100  1.0000
  C   C956      1.0  0.48478  0.91596  0.17283  1.0000
  C   C957      1.0  0.50843  0.90567  0.17405  1.0000
  C   C958      1.0  0.51570  0.88136  0.17367  1.0000
  C   C959      1.0  0.49951  0.86748  0.17201  1.0000
  H   H967      1.0  0.45046  0.91019  0.17004  1.0000
  H   H968      1.0  0.47899  0.93470  0.17322  1.0000
  H   H969      1.0  0.53365  0.87310  0.17501  1.0000
  H   H970      1.0  0.50524  0.84865  0.17187  1.0000
  C   C960      1.0  0.38916  0.80348  0.13946  1.0000
  C   C961      1.0  0.39692  0.78558  0.13152  1.0000
  C   C962      1.0  0.39376  0.76187  0.13671  1.0000
  C   C963      1.0  0.38254  0.75593  0.14987  1.0000
  C   C964      1.0  0.37484  0.77382  0.15782  1.0000
  C   C965      1.0  0.37829  0.79747  0.15268  1.0000
  H   H971      1.0  0.40522  0.79013  0.12125  1.0000
  H   H972      1.0  0.39973  0.74830  0.13048  1.0000
  H   H973      1.0  0.37194  0.81117  0.15883  1.0000
  C   C966      1.0  0.35010  0.63552  0.07790  1.0000
  H   H974      1.0  0.34764  0.71724  0.12108  1.0000
  C   C967      1.0  0.33506  0.97446  0.18577  1.0000
  C   C968      1.0  0.36171  0.66552  0.09321  1.0000
  C   C969      1.0  0.36621  0.64067  0.09706  1.0000
  C   C970      1.0  0.36049  0.62563  0.08935  1.0000
  H   H975      1.0  0.65065  0.51185  0.09629  1.0000
  H   H976      1.0  0.33462  0.57525  0.12825  1.0000
  H   H977      1.0  0.37392  0.63308  0.10596  1.0000
  H   H978      1.0  0.36386  0.60652  0.09233  1.0000
  H   H979      1.0  0.62794  0.94253  0.12196  1.0000
  C   C971      1.0  0.58157  0.61390  0.09634  1.0000
  C   C972      1.0  0.60390  0.60049  0.09801  1.0000
  C   C973      1.0  0.61757  0.60670  0.10620  1.0000
  C   C974      1.0  0.60899  0.62628  0.11281  1.0000
  C   C975      1.0  0.58667  0.63977  0.11114  1.0000
  C   C976      1.0  0.57303  0.63362  0.10288  1.0000
  H   H980      1.0  0.61063  0.58530  0.09302  1.0000
  H   H981      1.0  0.63486  0.59627  0.10741  1.0000
  H   H982      1.0  0.57994  0.65495  0.11616  1.0000
  H   H983      1.0  0.55576  0.64409  0.10163  1.0000
  C   C977      1.0  0.49623  0.54687  0.05890  1.0000
  C   C978      1.0  0.47661  0.54946  0.05235  1.0000
  C   C979      1.0  0.45441  0.54422  0.05951  1.0000
  C   C980      1.0  0.45181  0.53614  0.07326  1.0000
  C   C981      1.0  0.47108  0.53475  0.07990  1.0000
  C   C982      1.0  0.49318  0.54023  0.07277  1.0000
  H   H984      1.0  0.47882  0.55466  0.04161  1.0000
  H   H985      1.0  0.43969  0.54535  0.05429  1.0000
  H   H986      1.0  0.46913  0.52860  0.09056  1.0000
  H   H987      1.0  0.50813  0.53811  0.07792  1.0000
  C   C983      1.0  0.63454  0.54250  0.00154  1.0000
  C   C984      1.0  0.63044  0.54614  0.01489  1.0000
  H   H988      1.0  0.41758  0.78365  0.17745  1.0000
  H   H989      1.0  0.43419  0.81784  0.16660  1.0000
  H   H990      1.0  0.49795  0.64182  0.16279  1.0000
  H   H991      1.0  0.62009  0.53904  0.99737  1.0000
  H   H992      1.0  0.61297  0.54549  0.02090  1.0000
  H   H993      1.0  0.54630  0.49284  0.05430  1.0000
  H   H994      1.0  0.51051  0.60655  0.09482  1.0000
  H   H995      1.0  0.52926  0.90149  0.14005  1.0000
  C   C985      1.0  0.34168  0.58175  0.17503  1.0000
  H   H996      1.0  0.45689  0.78480  0.13814  1.0000
  N   N78       1.0  0.51260  0.48682  0.06593  1.0000
  C   C986      1.0  0.39964  0.95507  0.10932  1.0000
  C   C987      1.0  0.38621  0.94040  0.10583  1.0000
  C   C988      1.0  0.53633  0.48830  0.06423  1.0000
  H   H997      1.0  0.38500  0.92286  0.11160  1.0000
  N   N79       1.0  0.51204  0.93746  0.14006  1.0000
  H   H998      1.0  0.41453  0.74118  0.17896  1.0000
  C   C989      1.0  0.59933  0.94437  0.11114  1.0000
  C   C990      1.0  0.61932  0.95188  0.11362  1.0000
  H   H999      1.0  0.42761  0.94612  0.08288  1.0000
  H   H1000     1.0  0.45478  0.91548  0.13711  1.0000
  H   H1001     1.0  0.35859  0.78773  0.10188  1.0000
  H   H1002     1.0  0.49082  0.97033  0.08698  1.0000
  H   H1003     1.0  0.34111  0.81253  0.13334  1.0000
  H   H1004     1.0  0.63010  0.82359  0.19524  1.0000
  C   C991      1.0  0.59736  0.97599  0.09180  1.0000
  S   S355      1.0  0.33586  0.90886  0.17698  1.0000
  H   H1005     1.0  0.63616  0.59349  0.98020  1.0000
  H   H1006     1.0  0.63215  0.79321  0.13042  1.0000
  H   H1007     1.0  0.45382  0.95799  0.13771  1.0000
  C   C992      1.0  0.63611  0.83985  0.19586  1.0000
  H   H1008     1.0  0.43252  0.96847  0.04719  1.0000
  C   C993      1.0  0.44693  0.75106  0.14791  1.0000
  H   H1009     1.0  0.36910  0.90711  0.21556  1.0000
  H   H1010     1.0  0.34164  0.51501  0.01292  1.0000
  N   N80       1.0  0.34419  0.78379  0.12263  1.0000
  C   C994      1.0  0.32643  0.93755  0.18148  1.0000
  C   C995      1.0  0.63604  0.95279  0.19029  1.0000
  C   C996      1.0  0.42625  0.77449  0.16920  1.0000
  C   C997      1.0  0.35274  0.77562  0.11082  1.0000
  C   C998      1.0  0.65318  0.62307  0.18347  1.0000
  C   C999      1.0  0.52842  0.59878  0.13008  1.0000
  C   C1000     1.0  0.63250  0.87317  0.20719  1.0000
  H   H1011     1.0  0.61844  0.94925  0.19014  1.0000
  C   C1001     1.0  0.55629  0.61070  0.14094  1.0000
  N   N81       1.0  0.44396  0.96768  0.06565  1.0000
  H   H1012     1.0  0.52482  0.59127  0.12205  1.0000
  C   C1002     1.0  0.34148  0.58259  0.01421  1.0000
  C   C1003     1.0  0.42514  0.96845  0.05793  1.0000
  S   S356      1.0  0.34187  0.61818  0.06785  1.0000
  H   H1013     1.0  0.52994  0.95837  0.14831  1.0000
  H   H1014     1.0  0.34891  0.60130  0.04187  1.0000
  C   C1004     1.0  0.32754  0.62339  0.16762  1.0000
  H   H1015     1.0  0.63483  0.59409  0.14859  1.0000
  C   C1005     1.0  0.50975  0.60733  0.13961  1.0000
  C   C1006     1.0  0.44818  0.77511  0.14726  1.0000
  C   C1007     1.0  0.47778  0.96937  0.08097  1.0000
  C   C1008     1.0  0.34237  0.95347  0.18016  1.0000
  H   H1016     1.0  0.37108  0.57717  0.02481  1.0000
  C   C1009     1.0  0.65555  0.94382  0.18137  1.0000
  C   C1010     1.0  0.49460  0.62573  0.15962  1.0000
  H   H1017     1.0  0.36107  0.74490  0.10078  1.0000
  C   C1011     1.0  0.37651  0.97074  0.08688  1.0000
  S   S357      1.0  0.37758  0.72653  0.15677  1.0000
  H   H1018     1.0  0.43300  0.72035  0.15990  1.0000
  H   H1019     1.0  0.57291  0.95070  0.09829  1.0000
  C   C1012     1.0  0.37474  0.94821  0.09462  1.0000
  C   C1013     1.0  0.53720  0.61907  0.15031  1.0000
  N   N82       1.0  0.56657  0.77492  0.14148  1.0000
  C   C1014     1.0  0.56605  0.79467  0.14692  1.0000
  C   C1015     1.0  0.55770  0.75549  0.14912  1.0000
  C   C1016     1.0  0.55728  0.79497  0.16047  1.0000
  C   C1017     1.0  0.54878  0.75517  0.16269  1.0000
  C   C1018     1.0  0.54876  0.77500  0.16840  1.0000
  C   C1019     1.0  0.57582  0.77499  0.12726  1.0000
  H   H1020     1.0  0.57316  0.81006  0.14089  1.0000
  H   H1021     1.0  0.55775  0.73994  0.14480  1.0000
  H   H1022     1.0  0.55780  0.81034  0.16484  1.0000
  H   H1023     1.0  0.54221  0.73946  0.16872  1.0000
  H   H1024     1.0  0.54235  0.77483  0.17897  1.0000
  H   H1025     1.0  0.59126  0.78476  0.12400  1.0000
  H   H1026     1.0  0.58273  0.75658  0.12522  1.0000
  H   H1027     1.0  0.56161  0.78334  0.12124  1.0000
  Fe  Fe185     1.0  0.33760  0.53085  0.08598  1.0000
  C   C1020     1.0  0.58833  0.95650  0.10026  1.0000
  H   H1028     1.0  0.45469  0.74214  0.13944  1.0000
  H   H1029     1.0  0.62408  0.97331  0.20628  1.0000
  S   S358      1.0  0.64458  0.55590  0.03703  1.0000
  N   N83       1.0  0.47584  0.62162  0.09018  1.0000
  C   C1021     1.0  0.45578  0.63670  0.09451  1.0000
  C   C1022     1.0  0.47446  0.60480  0.08292  1.0000
  C   C1023     1.0  0.43351  0.63486  0.09181  1.0000
  C   C1024     1.0  0.45244  0.60233  0.08014  1.0000
  C   C1025     1.0  0.43186  0.61747  0.08464  1.0000
  C   C1026     1.0  0.49917  0.62421  0.09271  1.0000
  H   H1030     1.0  0.45687  0.65028  0.10011  1.0000
  H   H1031     1.0  0.49043  0.59317  0.07922  1.0000
  H   H1032     1.0  0.41762  0.64689  0.09524  1.0000
  H   H1033     1.0  0.45137  0.58882  0.07448  1.0000
  H   H1034     1.0  0.41467  0.61583  0.08251  1.0000
  H   H1035     1.0  0.49741  0.63321  0.10146  1.0000
  H   H1036     1.0  0.36733  0.93335  0.20273  1.0000
  C   C1027     1.0  0.49221  0.90568  0.13845  1.0000
  H   H1037     1.0  0.50822  0.50378  0.04615  1.0000
  C   C1028     1.0  0.32473  0.53234  0.02971  1.0000
  N   N84       1.0  0.33408  0.92577  0.21431  1.0000
  H   H1038     1.0  0.45740  0.81566  0.15257  1.0000
  S   S359      1.0  0.37578  0.60755  0.16027  1.0000
  C   C1029     1.0  0.45905  0.95661  0.08640  1.0000
  C   C1030     1.0  0.43494  0.73874  0.15943  1.0000
  C   C1031     1.0  0.62531  0.85196  0.20645  1.0000
  C   C1032     1.0  0.34635  0.60425  0.16817  1.0000
  N   N85       1.0  0.43812  0.78643  0.15788  1.0000
  S   S360      1.0  0.63021  0.88770  0.15029  1.0000
  C   C1033     1.0  0.42454  0.75047  0.17016  1.0000
  H   H1039     1.0  0.48146  0.49639  0.05666  1.0000
  H   H1040     1.0  0.54076  0.62734  0.15806  1.0000
  N   N86       1.0  0.51428  0.61742  0.14951  1.0000
  C   C1034     1.0  0.34008  0.59906  0.03400  1.0000
  C   C1035     1.0  0.43910  0.81180  0.15675  1.0000
  H   H1041     1.0  0.35616  0.56686  0.17552  1.0000
  C   C1036     1.0  0.47093  0.92164  0.13780  1.0000
  C   C1037     1.0  0.33800  0.74434  0.13354  1.0000
  H   H1042     1.0  0.54152  0.95512  0.13098  1.0000
  C   C1038     1.0  0.35280  0.58569  0.02429  1.0000
  H   H1043     1.0  0.60600  0.77639  0.17929  1.0000
  C   C1039     1.0  0.49127  0.95324  0.13935  1.0000
  H   H1044     1.0  0.56646  0.59375  0.12354  1.0000
  H   H1045     1.0  0.64483  0.59369  0.19897  1.0000
  H   H1046     1.0  0.57443  0.61253  0.14135  1.0000
  C   C1040     1.0  0.51278  0.91398  0.13949  1.0000
  H   H1047     1.0  0.32601  0.81932  0.11905  1.0000
  H   H1048     1.0  0.47750  0.63093  0.15562  1.0000
  C   C1041     1.0  0.34571  0.66027  0.07420  1.0000
  H   H1049     1.0  0.49155  0.60634  0.13886  1.0000
  C   C1042     1.0  0.44229  0.95583  0.07852  1.0000
  C   C1043     1.0  0.55182  0.60030  0.13086  1.0000
  C   C1044     1.0  0.54797  0.48450  0.07526  1.0000
  C   C1045     1.0  0.34217  0.80923  0.12302  1.0000
  C   C1046     1.0  0.53374  0.94608  0.14093  1.0000
  C   C1047     1.0  0.65026  0.88202  0.19737  1.0000
  C   C1048     1.0  0.47040  0.94557  0.13820  1.0000
  S   S361      1.0  0.62292  0.63529  0.18294  1.0000
  H   H1050     1.0  0.61116  0.84514  0.21387  1.0000
  C   C1049     1.0  0.32539  0.52505  0.01749  1.0000
  H   H1051     1.0  0.49259  0.88693  0.13848  1.0000
  C   C1050     1.0  0.35156  0.67512  0.08174  1.0000
  H   H1052     1.0  0.63434  0.62017  0.15565  1.0000
  H   H1053     1.0  0.45713  0.94772  0.09674  1.0000
  H   H1054     1.0  0.33277  0.73214  0.14259  1.0000
  H   H1055     1.0  0.35818  0.81642  0.11704  1.0000
  H   H1056     1.0  0.35090  0.57159  0.00689  1.0000
  H   H1057     1.0  0.64460  0.97627  0.10667  1.0000
  H   H1058     1.0  0.62407  0.88298  0.21522  1.0000
  C   C1051     1.0  0.63930  0.96646  0.19942  1.0000
  N   N87       1.0  0.65358  0.84864  0.18628  1.0000
  C   C1052     1.0  0.34666  0.73590  0.12154  1.0000
  C   C1053     1.0  0.62873  0.97095  0.10495  1.0000
  C   C1054     1.0  0.50095  0.49002  0.05422  1.0000
  H   H1059     1.0  0.63409  0.59228  0.16640  1.0000
  H   H1060     1.0  0.33091  0.64078  0.16239  1.0000
  S   S362      1.0  0.32459  0.55658  0.06868  1.0000
  C   C1055     1.0  0.46221  0.98031  0.06026  1.0000
  C   C1056     1.0  0.33669  0.76853  0.13390  1.0000
  H   H1061     1.0  0.63574  0.48865  0.06987  1.0000
  H   H1062     1.0  0.33771  0.66809  0.06542  1.0000
  C   C1057     1.0  0.32895  0.94626  0.21966  1.0000
  H   H1063     1.0  0.49075  0.97185  0.13976  1.0000
  H   H1064     1.0  0.33022  0.77483  0.14333  1.0000
  S   S363      1.0  0.59772  0.48826  0.09262  1.0000
  H   H1065     1.0  0.63863  0.49588  0.12010  1.0000
  H   H1066     1.0  0.34253  0.95728  0.21868  1.0000
  S   S364      1.0  0.36326  0.97914  0.07236  1.0000
  H   H1067     1.0  0.56680  0.48554  0.07393  1.0000
  S   S365      1.0  0.65265  0.92672  0.16947  1.0000
  C   C1058     1.0  0.40122  0.97772  0.10168  1.0000
  C   C1059     1.0  0.47951  0.98117  0.06778  1.0000
  H   H1068     1.0  0.35805  0.54621  0.43904  1.0000
  C   C1060     1.0  0.32487  0.92017  0.47607  1.0000
  N   N88       1.0  0.63291  0.93621  0.47586  1.0000
  H   H1069     1.0  0.37508  0.57845  0.44454  1.0000
  H   H1070     1.0  0.34431  0.57572  0.47354  1.0000
  C   C1061     1.0  0.34812  0.56418  0.43849  1.0000
  H   H1071     1.0  0.63421  0.59869  0.45810  1.0000
  H   H1072     1.0  0.36423  0.63383  0.43496  1.0000
  N   N89       1.0  0.34479  0.60498  0.44114  1.0000
  C   C1062     1.0  0.35505  0.62401  0.44424  1.0000
  H   H1073     1.0  0.35401  0.48537  0.41680  1.0000
  H   H1074     1.0  0.63446  0.53951  0.46462  1.0000
  H   H1075     1.0  0.60452  0.62947  0.46831  1.0000
  C   C1063     1.0  0.35759  0.58246  0.44158  1.0000
  H   H1076     1.0  0.57000  0.49389  0.41517  1.0000
  H   H1077     1.0  0.62757  0.90122  0.47507  1.0000
  C   C1064     1.0  0.62277  0.59347  0.46744  1.0000
  N   N90       1.0  0.62548  0.57033  0.47385  1.0000
  H   H1078     1.0  0.34098  0.63669  0.44933  1.0000
  C   C1065     1.0  0.60602  0.61100  0.47316  1.0000
  H   H1079     1.0  0.64823  0.93697  0.45549  1.0000
  H   H1080     1.0  0.36801  0.61677  0.45125  1.0000
  C   C1066     1.0  0.32555  0.56914  0.43481  1.0000
  C   C1067     1.0  0.64334  0.55209  0.46794  1.0000
  C   C1068     1.0  0.32883  0.58954  0.47320  1.0000
  C   C1069     1.0  0.65385  0.93544  0.46529  1.0000
  H   H1081     1.0  0.65557  0.56005  0.45923  1.0000
  C   C1070     1.0  0.32274  0.61004  0.43738  1.0000
  H   H1082     1.0  0.65478  0.54206  0.47532  1.0000
  H   H1083     1.0  0.63900  0.48591  0.44234  1.0000
  H   H1084     1.0  0.33785  0.48968  0.38245  1.0000
  H   H1085     1.0  0.34402  0.92298  0.52251  1.0000
  Fe  Fe186     1.0  0.58680  0.70297  0.51451  1.0000
  S   S366      1.0  0.55675  0.70698  0.53146  1.0000
  S   S367      1.0  0.59483  0.73799  0.50240  1.0000
  Fe  Fe187     1.0  0.59153  0.64907  0.51954  1.0000
  S   S368      1.0  0.56090  0.64957  0.53680  1.0000
  C   C1071     1.0  0.40961  0.72896  0.53078  1.0000
  Fe  Fe188     1.0  0.54200  0.68031  0.52374  1.0000
  S   S369      1.0  0.50357  0.69316  0.52009  1.0000
  Fe  Fe189     1.0  0.57860  0.67626  0.54272  1.0000
  S   S370      1.0  0.58252  0.67419  0.56429  1.0000
  S   S371      1.0  0.57127  0.67782  0.50603  1.0000
  S   S372      1.0  0.61005  0.67415  0.52627  1.0000
  Fe  Fe190     1.0  0.62598  0.87986  0.54213  1.0000
  C   C1072     1.0  0.60460  0.95707  0.49158  1.0000
  S   S373      1.0  0.63089  0.88481  0.56239  1.0000
  Fe  Fe191     1.0  0.59215  0.88164  0.52250  1.0000
  S   S374      1.0  0.62095  0.86170  0.50899  1.0000
  S   S375      1.0  0.55634  0.89577  0.51552  1.0000
  Fe  Fe192     1.0  0.63003  0.83832  0.52792  1.0000
  S   S376      1.0  0.32701  0.66419  0.50462  1.0000
  H   H1086     1.0  0.59855  0.97261  0.49640  1.0000
  C   C1073     1.0  0.40828  0.68734  0.53934  1.0000
  S   S377      1.0  0.59973  0.85657  0.54120  1.0000
  S   S378      1.0  0.61553  0.90721  0.52469  1.0000
  Fe  Fe193     1.0  0.37577  0.84976  0.53154  1.0000
  S   S379      1.0  0.37081  0.85293  0.51031  1.0000
  H   H1087     1.0  0.64093  0.56889  0.51111  1.0000
  Fe  Fe194     1.0  0.42917  0.85453  0.52370  1.0000
  S   S380      1.0  0.42748  0.85928  0.50186  1.0000
  S   S381      1.0  0.46317  0.84620  0.53291  1.0000
  Fe  Fe195     1.0  0.39182  0.88295  0.50652  1.0000
  Fe  Fe196     1.0  0.64480  0.88545  0.51248  1.0000
  Fe  Fe197     1.0  0.40635  0.82892  0.50781  1.0000
  S   S382      1.0  0.41819  0.79512  0.49883  1.0000
  S   S383      1.0  0.39544  0.88060  0.52805  1.0000
  S   S384      1.0  0.40936  0.82331  0.52937  1.0000
  Fe  Fe198     1.0  0.33481  0.64303  0.52419  1.0000
  C   C1074     1.0  0.63817  0.70786  0.56380  1.0000
  H   H1088     1.0  0.33825  0.77271  0.51192  1.0000
  Fe  Fe199     1.0  0.38872  0.64331  0.51599  1.0000
  S   S385      1.0  0.38464  0.66390  0.49556  1.0000
  S   S386      1.0  0.42409  0.63001  0.52348  1.0000
  Fe  Fe200     1.0  0.35371  0.68604  0.50677  1.0000
  C   C1075     1.0  0.59477  0.58107  0.49190  1.0000
  Fe  Fe201     1.0  0.35809  0.63971  0.49562  1.0000
  C   C1076     1.0  0.33113  0.86352  0.55801  1.0000
  S   S387      1.0  0.35904  0.66654  0.52715  1.0000
  S   S388      1.0  0.36476  0.61743  0.51525  1.0000
  C   C1077     1.0  0.62101  0.91713  0.47952  1.0000
  C   C1078     1.0  0.32370  0.81592  0.59043  1.0000
  C   C1079     1.0  0.48392  0.79124  0.50645  1.0000
  H   H1089     1.0  0.37019  0.84323  0.57627  1.0000
  H   H1090     1.0  0.54995  0.77031  0.51052  1.0000
  C   C1080     1.0  0.39715  0.77583  0.50097  1.0000
  C   C1081     1.0  0.37329  0.78267  0.50639  1.0000
  C   C1082     1.0  0.35678  0.76708  0.50798  1.0000
  C   C1083     1.0  0.36406  0.74436  0.50445  1.0000
  C   C1084     1.0  0.38806  0.73723  0.49935  1.0000
  C   C1085     1.0  0.40451  0.75305  0.49748  1.0000
  H   H1091     1.0  0.36746  0.80013  0.50914  1.0000
  S   S389      1.0  0.34256  0.72560  0.50647  1.0000
  H   H1092     1.0  0.39384  0.71979  0.49655  1.0000
  H   H1093     1.0  0.42295  0.74761  0.49330  1.0000
  C   C1086     1.0  0.53097  0.88112  0.52009  1.0000
  C   C1087     1.0  0.53032  0.86059  0.52978  1.0000
  C   C1088     1.0  0.50947  0.85008  0.53351  1.0000
  C   C1089     1.0  0.48914  0.85982  0.52753  1.0000
  C   C1090     1.0  0.48999  0.88000  0.51760  1.0000
  C   C1091     1.0  0.51076  0.89065  0.51397  1.0000
  H   H1094     1.0  0.54569  0.85311  0.53460  1.0000
  H   H1095     1.0  0.50897  0.83449  0.54120  1.0000
  H   H1096     1.0  0.47450  0.88768  0.51291  1.0000
  H   H1097     1.0  0.51107  0.90653  0.50647  1.0000
  H   H1098     1.0  0.36068  0.81940  0.57135  1.0000
  C   C1092     1.0  0.35291  0.92912  0.48828  1.0000
  C   C1093     1.0  0.60694  0.75470  0.51101  1.0000
  C   C1094     1.0  0.60542  0.77937  0.50687  1.0000
  C   C1095     1.0  0.61489  0.79297  0.51371  1.0000
  C   C1096     1.0  0.62639  0.78185  0.52451  1.0000
  C   C1097     1.0  0.62789  0.75718  0.52864  1.0000
  C   C1098     1.0  0.61798  0.74366  0.52199  1.0000
  H   H1099     1.0  0.59691  0.78797  0.49837  1.0000
  H   H1100     1.0  0.61357  0.81198  0.51049  1.0000
  H   H1101     1.0  0.58455  0.57628  0.50172  1.0000
  H   H1102     1.0  0.61934  0.72463  0.52518  1.0000
  C   C1099     1.0  0.48360  0.67433  0.51901  1.0000
  C   C1100     1.0  0.46270  0.68441  0.51364  1.0000
  C   C1101     1.0  0.44492  0.67065  0.51415  1.0000
  C   C1102     1.0  0.44773  0.64675  0.52026  1.0000
  C   C1103     1.0  0.46908  0.63642  0.52509  1.0000
  C   C1104     1.0  0.48701  0.65010  0.52442  1.0000
  H   H1103     1.0  0.45995  0.70308  0.50933  1.0000
  H   H1104     1.0  0.42867  0.67877  0.51028  1.0000
  H   H1105     1.0  0.47144  0.61790  0.52977  1.0000
  H   H1106     1.0  0.50301  0.64212  0.52858  1.0000
  S   S390      1.0  0.37757  0.92069  0.49696  1.0000
  C   C1105     1.0  0.59207  0.60473  0.48551  1.0000
  C   C1106     1.0  0.64219  0.70161  0.57707  1.0000
  C   C1107     1.0  0.53136  0.77637  0.50944  1.0000
  C   C1108     1.0  0.33705  0.84685  0.59745  1.0000
  C   C1109     1.0  0.36314  0.82623  0.58019  1.0000
  C   C1110     1.0  0.49692  0.80732  0.50899  1.0000
  S   S391      1.0  0.61004  0.61203  0.51593  1.0000
  C   C1111     1.0  0.61183  0.67612  0.58168  1.0000
  C   C1112     1.0  0.60741  0.68277  0.56849  1.0000
  H   H1107     1.0  0.36151  0.88171  0.55388  1.0000
  H   H1108     1.0  0.60120  0.66433  0.58875  1.0000
  H   H1109     1.0  0.34859  0.96598  0.49035  1.0000
  H   H1110     1.0  0.59101  0.90255  0.49206  1.0000
  H   H1111     1.0  0.53098  0.81221  0.51246  1.0000
  H   H1112     1.0  0.65062  0.94040  0.50890  1.0000
  C   C1113     1.0  0.33484  0.89474  0.56958  1.0000
  H   H1113     1.0  0.35252  0.89415  0.48446  1.0000
  H   H1114     1.0  0.64781  0.72075  0.55696  1.0000
  H   H1115     1.0  0.61778  0.70360  0.54930  1.0000
  C   C1114     1.0  0.63402  0.60628  0.50301  1.0000
  H   H1116     1.0  0.52608  0.74239  0.50632  1.0000
  H   H1117     1.0  0.46539  0.76092  0.49773  1.0000
  C   C1115     1.0  0.48051  0.75155  0.50295  1.0000
  H   H1118     1.0  0.63199  0.68060  0.59621  1.0000
  C   C1116     1.0  0.62113  0.69819  0.55945  1.0000
  C   C1117     1.0  0.51781  0.76071  0.50694  1.0000
  H   H1119     1.0  0.47336  0.74119  0.51261  1.0000
  C   C1118     1.0  0.64050  0.62414  0.49245  1.0000
  C   C1119     1.0  0.60044  0.91770  0.48919  1.0000
  H   H1120     1.0  0.63677  0.74849  0.53699  1.0000
  C   C1120     1.0  0.52078  0.79982  0.51048  1.0000
  H   H1121     1.0  0.48847  0.82548  0.50986  1.0000
  H   H1122     1.0  0.33522  0.63220  0.55443  1.0000
  H   H1123     1.0  0.46531  0.79725  0.50539  1.0000
  C   C1121     1.0  0.39823  0.70920  0.53258  1.0000
  S   S392      1.0  0.63835  0.79836  0.53333  1.0000
  H   H1124     1.0  0.57650  0.93818  0.50296  1.0000
  H   H1125     1.0  0.63143  0.64230  0.49242  1.0000
  H   H1126     1.0  0.45898  0.65953  0.54942  1.0000
  C   C1122     1.0  0.33187  0.91015  0.52780  1.0000
  C   C1123     1.0  0.34414  0.91263  0.48317  1.0000
  H   H1127     1.0  0.43358  0.64717  0.54850  1.0000
  H   H1128     1.0  0.34515  0.90734  0.57111  1.0000
  C   C1124     1.0  0.59226  0.93776  0.49528  1.0000
  H   H1129     1.0  0.64990  0.88718  0.58538  1.0000
  C   C1125     1.0  0.34191  0.95312  0.48641  1.0000
  H   H1130     1.0  0.49174  0.73879  0.49665  1.0000
  H   H1131     1.0  0.40193  0.74605  0.52563  1.0000
  H   H1132     1.0  0.38189  0.71079  0.52859  1.0000
  N   N91       1.0  0.42931  0.68518  0.54395  1.0000
  C   C1126     1.0  0.44070  0.70444  0.54211  1.0000
  H   H1133     1.0  0.44012  0.74183  0.53398  1.0000
  C   C1127     1.0  0.43101  0.72661  0.53551  1.0000
  C   C1128     1.0  0.62936  0.68523  0.58592  1.0000
  N   N92       1.0  0.49451  0.76836  0.50528  1.0000
  C   C1129     1.0  0.43914  0.66241  0.55146  1.0000
  H   H1134     1.0  0.45763  0.70260  0.54552  1.0000
  H   H1135     1.0  0.35019  0.85835  0.59652  1.0000
  H   H1136     1.0  0.39958  0.67192  0.54053  1.0000
  N   N93       1.0  0.34059  0.83001  0.58942  1.0000
  C   C1130     1.0  0.34408  0.88030  0.55977  1.0000
  S   S393      1.0  0.34304  0.84337  0.54687  1.0000
  C   C1131     1.0  0.64586  0.58276  0.50292  1.0000
  H   H1137     1.0  0.43297  0.66210  0.56231  1.0000
  N   N94       1.0  0.58172  0.75258  0.56088  1.0000
  C   C1132     1.0  0.59179  0.77282  0.55681  1.0000
  C   C1133     1.0  0.58358  0.73925  0.57321  1.0000
  C   C1134     1.0  0.60537  0.77938  0.56483  1.0000
  C   C1135     1.0  0.59710  0.74525  0.58146  1.0000
  C   C1136     1.0  0.60834  0.76525  0.57713  1.0000
  C   C1137     1.0  0.56815  0.74558  0.55219  1.0000
  H   H1138     1.0  0.58985  0.78376  0.54718  1.0000
  H   H1139     1.0  0.57540  0.72330  0.57649  1.0000
  H   H1140     1.0  0.61385  0.79509  0.56134  1.0000
  H   H1141     1.0  0.59966  0.73389  0.59090  1.0000
  H   H1142     1.0  0.61956  0.76955  0.58325  1.0000
  H   H1143     1.0  0.57558  0.75088  0.54150  1.0000
  H   H1144     1.0  0.56919  0.72589  0.55393  1.0000
  H   H1145     1.0  0.54918  0.75399  0.55411  1.0000
  H   H1146     1.0  0.34339  0.89286  0.53046  1.0000
  H   H1147     1.0  0.65302  0.61945  0.65322  1.0000
  H   H1148     1.0  0.57980  0.61829  0.49038  1.0000
  H   H1149     1.0  0.37660  0.81334  0.58534  1.0000
  C   C1138     1.0  0.62491  0.95608  0.48170  1.0000
  S   S394      1.0  0.35639  0.61709  0.48025  1.0000
  H   H1150     1.0  0.61394  0.54571  0.49103  1.0000
  C   C1139     1.0  0.61156  0.56397  0.48585  1.0000
  H   H1151     1.0  0.63449  0.97111  0.47894  1.0000
  H   H1152     1.0  0.32933  0.63772  0.57810  1.0000
  H   H1153     1.0  0.32544  0.56446  0.50786  1.0000
  H   H1154     1.0  0.65354  0.81853  0.55429  1.0000
  H   H1155     1.0  0.32646  0.80264  0.58403  1.0000
  C   C1140     1.0  0.32936  0.61144  0.47690  1.0000
  Fe  Fe202     1.0  0.64056  0.52378  0.83830  1.0000
  H   H1156     1.0  0.34453  0.48960  0.75435  1.0000
  H   H1157     1.0  0.63935  0.49802  0.74101  1.0000
  Fe  Fe203     1.0  0.58808  0.52134  0.85003  1.0000
  S   S395      1.0  0.55171  0.53313  0.84353  1.0000
  H   H1158     1.0  0.65463  0.57723  0.85512  1.0000
  S   S396      1.0  0.61483  0.50157  0.83559  1.0000
  S   S397      1.0  0.61308  0.54600  0.85112  1.0000
  Fe  Fe204     1.0  0.41901  0.51326  0.86648  1.0000
  C   C1141     1.0  0.65441  0.48378  0.74174  1.0000
  Fe  Fe205     1.0  0.38421  0.55462  0.85450  1.0000
  S   S398      1.0  0.35836  0.53121  0.85372  1.0000
  S   S399      1.0  0.37946  0.59290  0.84431  1.0000
  Fe  Fe206     1.0  0.36553  0.51353  0.87427  1.0000
  H   H1159     1.0  0.50076  0.49218  0.88151  1.0000
  H   H1160     1.0  0.47435  0.56430  0.89170  1.0000
  S   S400      1.0  0.38904  0.53916  0.87566  1.0000
  S   S401      1.0  0.41615  0.53111  0.84556  1.0000
  C   C1142     1.0  0.34945  0.60429  0.84289  1.0000
  H   H1161     1.0  0.50986  0.97038  0.88658  1.0000
  C   C1143     1.0  0.33861  0.92797  0.82817  1.0000
  H   H1162     1.0  0.35735  0.52051  0.92968  1.0000
  H   H1163     1.0  0.64798  0.57622  0.95536  1.0000
  C   C1144     1.0  0.50197  0.50206  0.87144  1.0000
  S   S402      1.0  0.63849  0.95922  0.85041  1.0000
  S   S403      1.0  0.39350  0.49598  0.82583  1.0000
  S   S404      1.0  0.33320  0.50501  0.88967  1.0000
  S   S405      1.0  0.39578  0.48626  0.86643  1.0000
  H   H1164     1.0  0.36472  0.56751  0.82597  1.0000
  C   C1145     1.0  0.33356  0.58351  0.80318  1.0000
  S   S406      1.0  0.59733  0.49593  0.86833  1.0000
  C   C1146     1.0  0.34681  0.51569  0.91168  1.0000
  C   C1147     1.0  0.52382  0.50897  0.86478  1.0000
  C   C1148     1.0  0.35263  0.97055  0.83095  1.0000
  H   H1165     1.0  0.36458  0.51527  0.90593  1.0000
  H   H1166     1.0  0.49540  0.95473  0.87819  1.0000
  C   C1149     1.0  0.33107  0.50583  0.75245  1.0000
  C   C1150     1.0  0.33039  0.94961  0.82050  1.0000
  H   H1167     1.0  0.33338  0.51165  0.74144  1.0000
  C   C1151     1.0  0.52533  0.52232  0.85193  1.0000
  C   C1152     1.0  0.50507  0.52811  0.84567  1.0000
  C   C1153     1.0  0.48320  0.52133  0.85236  1.0000
  C   C1154     1.0  0.48146  0.50863  0.86537  1.0000
  H   H1168     1.0  0.50614  0.53839  0.83571  1.0000
  H   H1169     1.0  0.46759  0.52648  0.84757  1.0000
  H   H1170     1.0  0.34126  0.98172  0.74844  1.0000
  S   S407      1.0  0.45378  0.50228  0.87475  1.0000
  H   H1171     1.0  0.35669  0.53999  0.82399  1.0000
  S   S408      1.0  0.65391  0.49799  0.85544  1.0000
  C   C1155     1.0  0.48005  0.57315  0.86107  1.0000
  C   C1156     1.0  0.36044  0.94899  0.83883  1.0000
  C   C1157     1.0  0.35842  0.55859  0.81909  1.0000
  H   H1172     1.0  0.49721  0.94454  0.89572  1.0000
  H   H1173     1.0  0.37216  0.94859  0.84582  1.0000
  H   H1174     1.0  0.41173  0.58140  0.86355  1.0000
  C   C1158     1.0  0.47740  0.55221  0.88428  1.0000
  H   H1175     1.0  0.43625  0.59645  0.84233  1.0000
  C   C1159     1.0  0.33013  0.75167  0.79259  1.0000
  H   H1176     1.0  0.49932  0.57076  0.86025  1.0000
  C   C1160     1.0  0.46953  0.58474  0.84996  1.0000
  H   H1177     1.0  0.64597  0.48273  0.78768  1.0000
  C   C1161     1.0  0.44481  0.58763  0.85084  1.0000
  H   H1178     1.0  0.33534  0.58168  0.86063  1.0000
  H   H1179     1.0  0.43124  0.55983  0.88273  1.0000
  C   C1162     1.0  0.64768  0.59577  0.95394  1.0000
  S   S409      1.0  0.63002  0.53271  0.88651  1.0000
  H   H1180     1.0  0.46969  0.53579  0.88897  1.0000
  C   C1163     1.0  0.34266  0.51866  0.92514  1.0000
  C   C1164     1.0  0.44209  0.56705  0.87359  1.0000
  H   H1181     1.0  0.37238  0.55749  0.81011  1.0000
  Fe  Fe207     1.0  0.39051  0.50644  0.84603  1.0000
  H   H1182     1.0  0.48054  0.59120  0.84070  1.0000
  C   C1165     1.0  0.33750  0.97074  0.82184  1.0000
  H   H1183     1.0  0.62888  0.60463  0.95612  1.0000
  H   H1184     1.0  0.49693  0.54655  0.88147  1.0000
  Fe  Fe208     1.0  0.62494  0.51870  0.86834  1.0000
  C   C1166     1.0  0.34377  0.62219  0.83219  1.0000
  H   H1185     1.0  0.65456  0.60200  0.94327  1.0000
  C   C1167     1.0  0.49469  0.96048  0.88790  1.0000
  N   N95       1.0  0.46634  0.56419  0.87263  1.0000
  C   C1168     1.0  0.43098  0.57898  0.86276  1.0000
  C   C1169     1.0  0.45124  0.96941  0.88952  1.0000
  H   H1186     1.0  0.53928  0.50451  0.86974  1.0000
  H   H1187     1.0  0.33055  0.73750  0.78707  1.0000
  H   H1188     1.0  0.64810  0.61870  0.82921  1.0000
  H   H1189     1.0  0.35791  0.62905  0.82485  1.0000
  C   C1170     1.0  0.33113  0.59539  0.85231  1.0000
  C   C1171     1.0  0.65516  0.52555  0.89492  1.0000
  C   C1172     1.0  0.35352  0.92778  0.83738  1.0000
  C   C1173     1.0  0.32818  0.51218  0.90589  1.0000
  N   N96       1.0  0.33537  0.57158  0.81583  1.0000
  H   H1190     1.0  0.63916  0.57821  0.83035  1.0000
  H   H1191     1.0  0.63867  0.54807  0.90949  1.0000
  H   H1192     1.0  0.45199  0.95436  0.88463  1.0000
  H   H1193     1.0  0.41286  0.97832  0.89153  1.0000
  H   H1194     1.0  0.34915  0.58362  0.79545  1.0000
  H   H1195     1.0  0.51899  0.97841  0.85347  1.0000
  C   C1174     1.0  0.65448  0.53605  0.90612  1.0000
  N   N97       1.0  0.47176  0.97546  0.89156  1.0000
  C   C1175     1.0  0.33476  0.79185  0.79312  1.0000
  H   H1196     1.0  0.33927  0.80902  0.78803  1.0000
  H   H1197     1.0  0.33475  0.51995  0.75719  1.0000
  C   C1176     1.0  0.32633  0.78822  0.80685  1.0000
  H   H1198     1.0  0.35998  0.91111  0.84334  1.0000
  C   C1177     1.0  0.65337  0.59906  0.97622  1.0000
  H   H1199     1.0  0.34239  0.77620  0.77524  1.0000
  C   C1178     1.0  0.33655  0.77345  0.78595  1.0000
  H   H1200     1.0  0.54616  0.48763  0.83288  1.0000
  S   S410      1.0  0.33067  0.90085  0.82651  1.0000
  H   H1201     1.0  0.65234  0.50190  0.80583  1.0000
  H   H1202     1.0  0.32268  0.97259  0.89913  1.0000
  H   H1203     1.0  0.32644  0.75745  0.83313  1.0000
  H   H1204     1.0  0.32433  0.80283  0.81229  1.0000
  H   H1205     1.0  0.68553  0.11620  0.00806  1.0000
  Fe  Fe209     1.0  0.72906  0.04047  0.19517  1.0000
  S   S411      1.0  0.69170  0.04724  0.20616  1.0000
  S   S412      1.0  0.74004  0.05540  0.17333  1.0000
  Fe  Fe210     1.0  0.69646  0.00730  0.21207  1.0000
  H   H1206     1.0  0.91279  0.38936  0.07437  1.0000
  S   S413      1.0  0.74558  0.04444  0.21230  1.0000
  S   S414      1.0  0.73354  0.00047  0.20046  1.0000
  Fe  Fe211     1.0  0.75072  0.16406  0.10220  1.0000
  S   S415      1.0  0.73385  0.18633  0.08531  1.0000
  S   S416      1.0  0.78954  0.15014  0.10285  1.0000
  Fe  Fe212     1.0  0.70395  0.16478  0.12134  1.0000
  S   S417      1.0  0.68276  0.18789  0.10595  1.0000
  S   S418      1.0  0.68863  0.15152  0.14284  1.0000
  Fe  Fe213     1.0  0.70484  0.16358  0.09206  1.0000
  Fe  Fe214     1.0  0.71344  0.20895  0.10049  1.0000
  S   S419      1.0  0.71396  0.24886  0.09365  1.0000
  S   S420      1.0  0.72382  0.13940  0.10781  1.0000
  S   S421      1.0  0.73245  0.18788  0.11696  1.0000
  Fe  Fe215     1.0  0.76938  0.38633  0.10856  1.0000
  S   S422      1.0  0.75468  0.37250  0.12990  1.0000
  S   S423      1.0  0.80799  0.37618  0.09973  1.0000
  Fe  Fe216     1.0  0.72097  0.41122  0.10221  1.0000
  S   S424      1.0  0.70251  0.39909  0.12285  1.0000
  S   S425      1.0  0.70386  0.43335  0.08498  1.0000
  Fe  Fe217     1.0  0.73314  0.40935  0.12982  1.0000
  S   S426      1.0  0.72179  0.43171  0.14661  1.0000
  Fe  Fe218     1.0  0.72569  0.36348  0.12102  1.0000
  S   S427      1.0  0.71059  0.32875  0.12821  1.0000
  S   S428      1.0  0.75014  0.42376  0.10906  1.0000
  S   S429      1.0  0.74180  0.37506  0.09981  1.0000
  Fe  Fe219     1.0  0.85908  0.15117  0.00293  1.0000
  S   S430      1.0  0.88921  0.13453  0.01442  1.0000
  H   H1207     1.0  0.85609  0.43350  0.05623  1.0000
  Fe  Fe220     1.0  0.85089  0.19636  0.01549  1.0000
  S   S431      1.0  0.87923  0.18222  0.02821  1.0000
  S   S432      1.0  0.83178  0.23407  0.01635  1.0000
  Fe  Fe221     1.0  0.90131  0.17017  0.00977  1.0000
  S   S433      1.0  0.93760  0.18184  0.00241  1.0000
  Fe  Fe222     1.0  0.86445  0.14832  0.03175  1.0000
  S   S434      1.0  0.86275  0.12485  0.05179  1.0000
  S   S435      1.0  0.87345  0.18592  0.99671  1.0000
  S   S436      1.0  0.83376  0.16310  0.02073  1.0000
  Fe  Fe223     1.0  0.87016  0.39162  0.99523  1.0000
  S   S437      1.0  0.87863  0.41624  0.00703  1.0000
  H   H1208     1.0  0.85032  0.28139  0.98462  1.0000
  Fe  Fe224     1.0  0.88739  0.34769  0.01471  1.0000
  S   S438      1.0  0.89627  0.36926  0.02842  1.0000
  S   S439      1.0  0.89880  0.30769  0.01767  1.0000
  Fe  Fe225     1.0  0.86159  0.39274  0.02477  1.0000
  S   S440      1.0  0.83388  0.41401  0.03813  1.0000
  Fe  Fe226     1.0  0.91262  0.39070  0.00953  1.0000
  S   S441      1.0  0.94724  0.40585  0.00568  1.0000
  S   S442      1.0  0.85118  0.36929  0.01279  1.0000
  S   S443      1.0  0.90575  0.36797  0.99597  1.0000
  H   H1209     1.0  0.66945  0.99216  0.98246  1.0000
  C   C1179     1.0  0.81339  0.09084  0.01668  1.0000
  H   H1210     1.0  0.91934  0.29302  0.98750  1.0000
  H   H1211     1.0  0.95386  0.37134  0.03002  1.0000
  H   H1212     1.0  0.78323  0.08829  0.15917  1.0000
  C   C1180     1.0  0.84988  0.25447  0.01766  1.0000
  C   C1181     1.0  0.84010  0.27853  0.01787  1.0000
  C   C1182     1.0  0.85469  0.29513  0.01824  1.0000
  C   C1183     1.0  0.87908  0.28762  0.01851  1.0000
  C   C1184     1.0  0.88866  0.26353  0.01863  1.0000
  C   C1185     1.0  0.87422  0.24711  0.01805  1.0000
  H   H1213     1.0  0.84711  0.31369  0.01821  1.0000
  H   H1214     1.0  0.90753  0.25766  0.01871  1.0000
  H   H1215     1.0  0.88221  0.22894  0.01744  1.0000
  C   C1186     1.0  0.96285  0.16982  0.01028  1.0000
  C   C1187     1.0  0.96202  0.15172  0.02142  1.0000
  H   H1216     1.0  0.94591  0.14401  0.02511  1.0000
  C   C1188     1.0  0.81358  0.38476  0.08232  1.0000
  C   C1189     1.0  0.79940  0.40452  0.07612  1.0000
  C   C1190     1.0  0.80546  0.41288  0.06244  1.0000
  C   C1191     1.0  0.82537  0.40123  0.05483  1.0000
  C   C1192     1.0  0.83914  0.38096  0.06091  1.0000
  C   C1193     1.0  0.83332  0.37284  0.07468  1.0000
  H   H1217     1.0  0.78416  0.41379  0.08194  1.0000
  H   H1218     1.0  0.79479  0.42859  0.05777  1.0000
  H   H1219     1.0  0.85456  0.37192  0.05510  1.0000
  H   H1220     1.0  0.84423  0.35745  0.07946  1.0000
  C   C1194     1.0  0.80873  0.14339  0.08822  1.0000
  C   C1195     1.0  0.83177  0.13141  0.08943  1.0000
  C   C1196     1.0  0.84799  0.12596  0.07814  1.0000
  C   C1197     1.0  0.84165  0.13305  0.06546  1.0000
  C   C1198     1.0  0.81865  0.14536  0.06410  1.0000
  C   C1199     1.0  0.80203  0.15025  0.07554  1.0000
  H   H1221     1.0  0.83707  0.12606  0.09917  1.0000
  H   H1222     1.0  0.86564  0.11628  0.07926  1.0000
  H   H1223     1.0  0.81352  0.15060  0.05432  1.0000
  H   H1224     1.0  0.78420  0.15949  0.07455  1.0000
  C   C1200     1.0  0.71668  0.26907  0.10384  1.0000
  C   C1201     1.0  0.70886  0.26531  0.11763  1.0000
  C   C1202     1.0  0.70818  0.28334  0.12508  1.0000
  C   C1203     1.0  0.71566  0.30514  0.11889  1.0000
  C   C1204     1.0  0.72467  0.30837  0.10522  1.0000
  C   C1205     1.0  0.82768  0.09972  0.03516  1.0000
  H   H1225     1.0  0.70238  0.24893  0.12246  1.0000
  H   H1226     1.0  0.70120  0.28063  0.13565  1.0000
  C   C1206     1.0  0.77377  0.10622  0.15670  1.0000
  C   C1207     1.0  0.71515  0.09342  0.99872  1.0000
  H   H1227     1.0  0.76365  0.14872  0.13037  1.0000
  H   H1228     1.0  0.68095  0.12901  0.17035  1.0000
  C   C1208     1.0  0.73950  0.44691  0.15320  1.0000
  C   C1209     1.0  0.76430  0.44441  0.14949  1.0000
  S   S444      1.0  0.69528  0.14500  0.07693  1.0000
  C   C1210     1.0  0.67187  0.35595  0.10595  1.0000
  H   H1229     1.0  0.77318  0.43348  0.14208  1.0000
  C   C1211     1.0  0.86905  0.27474  0.98503  1.0000
  C   C1212     1.0  0.72318  0.08058  0.16498  1.0000
  C   C1213     1.0  0.72912  0.08645  0.15108  1.0000
  C   C1214     1.0  0.71818  0.10782  0.14417  1.0000
  C   C1215     1.0  0.70100  0.12344  0.15108  1.0000
  C   C1216     1.0  0.69428  0.11705  0.16493  1.0000
  C   C1217     1.0  0.70538  0.09571  0.17189  1.0000
  H   H1230     1.0  0.74281  0.07480  0.14567  1.0000
  H   H1231     1.0  0.72341  0.11235  0.13355  1.0000
  C   C1218     1.0  0.66513  0.12288  0.06820  1.0000
  H   H1232     1.0  0.70072  0.09142  0.18261  1.0000
  C   C1219     1.0  0.69044  0.34969  0.07990  1.0000
  S   S445      1.0  0.70900  0.01093  0.99044  1.0000
  H   H1233     1.0  0.88505  0.08875  0.00275  1.0000
  H   H1234     1.0  0.82128  0.28441  0.01757  1.0000
  H   H1235     1.0  0.76727  0.13613  0.98657  1.0000
  C   C1220     1.0  0.72794  0.07037  0.99928  1.0000
  C   C1221     1.0  0.82063  0.43852  0.98765  1.0000
  C   C1222     1.0  0.67206  0.01692  0.01129  1.0000
  H   H1236     1.0  0.82785  0.43137  0.99676  1.0000
  H   H1237     1.0  0.79695  0.45331  0.15279  1.0000
  C   C1223     1.0  0.67512  0.05093  0.99369  1.0000
  C   C1224     1.0  0.68376  0.02747  0.99897  1.0000
  C   C1225     1.0  0.70177  0.01859  0.16429  1.0000
  H   H1238     1.0  0.66050  0.06985  0.03408  1.0000
  H   H1239     1.0  0.88349  0.44826  0.97814  1.0000
  C   C1226     1.0  0.85099  0.09113  0.02951  1.0000
  H   H1240     1.0  0.82440  0.10672  0.04442  1.0000
  Fe  Fe227     1.0  0.70858  0.04792  0.22391  1.0000
  N   N98       1.0  0.77522  0.11761  0.14373  1.0000
  N   N99       1.0  0.88403  0.28973  0.98588  1.0000
  C   C1227     1.0  0.79001  0.10604  0.13288  1.0000
  H   H1241     1.0  0.86559  0.09169  0.03452  1.0000
  N   N100      1.0  0.85721  0.47944  0.97957  1.0000
  H   H1242     1.0  0.80456  0.11632  0.12786  1.0000
  C   C1228     1.0  0.66524  0.46311  0.07647  1.0000
  C   C1229     1.0  0.74745  0.15109  0.15065  1.0000
  C   C1230     1.0  0.68440  0.02909  0.17373  1.0000
  H   H1243     1.0  0.79805  0.08746  0.13649  1.0000
  H   H1244     1.0  0.73111  0.29360  0.08708  1.0000
  H   H1245     1.0  0.79074  0.10691  0.03273  1.0000
  C   C1231     1.0  0.77839  0.42073  0.18679  1.0000
  C   C1232     1.0  0.80460  0.13265  0.98790  1.0000
  H   H1246     1.0  0.73048  0.03436  0.00995  1.0000
  H   H1247     1.0  0.72125  0.47411  0.09749  1.0000
  C   C1233     1.0  0.75897  0.11700  0.16696  1.0000
  H   H1248     1.0  0.70914  0.46328  0.16582  1.0000
  N   N101      1.0  0.74523  0.43710  0.20199  1.0000
  H   H1249     1.0  0.84042  0.07595  0.00190  1.0000
  H   H1250     1.0  0.79900  0.09128  0.01128  1.0000
  N   N102      1.0  0.80809  0.21217  0.06225  1.0000
  C   C1234     1.0  0.81339  0.20259  0.07470  1.0000
  C   C1235     1.0  0.78750  0.22789  0.06078  1.0000
  C   C1236     1.0  0.79754  0.20818  0.08610  1.0000
  C   C1237     1.0  0.77129  0.23394  0.07199  1.0000
  C   C1238     1.0  0.77638  0.22397  0.08471  1.0000
  C   C1239     1.0  0.82487  0.20632  0.05035  1.0000
  H   H1251     1.0  0.82964  0.19003  0.07591  1.0000
  H   H1252     1.0  0.78347  0.23572  0.05090  1.0000
  H   H1253     1.0  0.80142  0.19995  0.09596  1.0000
  H   H1254     1.0  0.75472  0.24608  0.07087  1.0000
  H   H1255     1.0  0.76381  0.22829  0.09348  1.0000
  H   H1256     1.0  0.83759  0.18967  0.05267  1.0000
  H   H1257     1.0  0.81518  0.20352  0.04268  1.0000
  H   H1258     1.0  0.83515  0.22113  0.04597  1.0000
  N   N103      1.0  0.66194  0.02327  0.17668  1.0000
  H   H1259     1.0  0.77898  0.10550  0.12532  1.0000
  H   H1260     1.0  0.92510  0.18264  0.04487  1.0000
  C   C1240     1.0  0.87988  0.07499  0.01144  1.0000
  C   C1241     1.0  0.83689  0.08214  0.01140  1.0000
  H   H1261     1.0  0.90800  0.22259  0.98642  1.0000
  C   C1242     1.0  0.73004  0.42724  0.19694  1.0000
  C   C1243     1.0  0.67277  0.99707  0.16045  1.0000
  H   H1262     1.0  0.69574  0.04382  0.02729  1.0000
  C   C1244     1.0  0.73866  0.41417  0.18652  1.0000
  C   C1245     1.0  0.69893  0.46879  0.98752  1.0000
  C   C1246     1.0  0.67364  0.47622  0.12242  1.0000
  H   H1263     1.0  0.74936  0.46440  0.99985  1.0000
  H   H1264     1.0  0.69366  0.06268  0.08513  1.0000
  H   H1265     1.0  0.66809  0.98411  0.15558  1.0000
  H   H1266     1.0  0.69251  0.46397  0.97944  1.0000
  C   C1247     1.0  0.76256  0.13986  0.14066  1.0000
  C   C1248     1.0  0.90132  0.24150  0.98606  1.0000
  H   H1267     1.0  0.84847  0.41669  0.07884  1.0000
  S   S446      1.0  0.78466  0.48153  0.17368  1.0000
  N   N104      1.0  0.85533  0.08256  0.01775  1.0000
  C   C1249     1.0  0.69591  0.00238  0.15768  1.0000
  C   C1250     1.0  0.73594  0.45044  0.21302  1.0000
  C   C1251     1.0  0.73062  0.46903  0.99891  1.0000
  C   C1252     1.0  0.80881  0.09974  0.02862  1.0000
  H   H1268     1.0  0.80187  0.14674  0.99372  1.0000
  C   C1253     1.0  0.96851  0.21521  0.02917  1.0000
  N   N105      1.0  0.88290  0.41121  0.06658  1.0000
  C   C1254     1.0  0.72493  0.29053  0.09773  1.0000
  C   C1255     1.0  0.72104  0.05250  0.00968  1.0000
  H   H1269     1.0  0.84508  0.46691  0.99994  1.0000
  H   H1270     1.0  0.68099  0.11573  0.06189  1.0000
  H   H1271     1.0  0.74305  0.06632  0.99159  1.0000
  H   H1272     1.0  0.76976  0.40161  0.17303  1.0000
  C   C1256     1.0  0.78498  0.12650  0.98386  1.0000
  C   C1257     1.0  0.69545  0.09825  0.00858  1.0000
  H   H1273     1.0  0.71108  0.42982  0.20078  1.0000
  H   H1274     1.0  0.73057  0.32498  0.10032  1.0000
  C   C1258     1.0  0.90756  0.28118  0.98662  1.0000
  C   C1259     1.0  0.87503  0.31525  0.98545  1.0000
  H   H1275     1.0  0.88498  0.32329  0.99108  1.0000
  H   H1276     1.0  0.88196  0.43601  0.03423  1.0000
  H   H1277     1.0  0.72043  0.10740  0.99063  1.0000
  C   C1260     1.0  0.74561  0.13950  0.16387  1.0000
  H   H1278     1.0  0.98112  0.12998  0.03666  1.0000
  H   H1279     1.0  0.92418  0.41570  0.03226  1.0000
  N   N106      1.0  0.98585  0.20501  0.03677  1.0000
  H   H1280     1.0  0.88143  0.05787  0.00787  1.0000
  H   H1281     1.0  0.95699  0.16397  0.05841  1.0000
  C   C1261     1.0  0.86753  0.40975  0.07968  1.0000
  H   H1282     1.0  0.85600  0.31835  0.99022  1.0000
  C   C1262     1.0  0.87742  0.25043  0.98516  1.0000
  H   H1283     1.0  0.75423  0.43727  0.98453  1.0000
  C   C1263     1.0  0.73870  0.44756  0.97996  1.0000
  C   C1264     1.0  0.67525  0.06702  0.08980  1.0000
  H   H1284     1.0  0.66489  0.43070  0.10766  1.0000
  C   C1265     1.0  0.67376  0.44701  0.08715  1.0000
  C   C1266     1.0  0.70129  0.05796  0.01940  1.0000
  H   H1285     1.0  0.97200  0.22883  0.02055  1.0000
  C   C1267     1.0  0.88906  0.42611  0.04302  1.0000
  C   C1268     1.0  0.91265  0.41454  0.04192  1.0000
  C   C1269     1.0  0.74175  0.47253  0.16895  1.0000
  N   N107      1.0  0.68861  0.08055  0.01866  1.0000
  H   H1286     1.0  0.69803  0.34686  0.06981  1.0000
  H   H1287     1.0  0.93961  0.39224  0.05248  1.0000
  C   C1270     1.0  0.87443  0.42447  0.05552  1.0000
  C   C1271     1.0  0.92126  0.40130  0.05326  1.0000
  H   H1288     1.0  0.71002  0.45844  0.12148  1.0000
  H   H1289     1.0  0.78122  0.44189  0.20098  1.0000
  H   H1290     1.0  0.73653  0.16824  0.14809  1.0000
  C   C1272     1.0  0.95980  0.17885  0.05042  1.0000
  C   C1273     1.0  0.66686  0.13836  0.07667  1.0000
  C   C1274     1.0  0.90603  0.39977  0.06559  1.0000
  H   H1291     1.0  0.75704  0.10745  0.17714  1.0000
  H   H1292     1.0  0.89278  0.07254  0.01844  1.0000
  C   C1275     1.0  0.76299  0.41098  0.18142  1.0000
  H   H1293     1.0  0.93504  0.25002  0.98767  1.0000
  N   N108      1.0  0.67117  0.33507  0.10195  1.0000
  C   C1276     1.0  0.96950  0.37991  0.02673  1.0000
  H   H1294     1.0  0.68245  0.39074  0.10015  1.0000
  H   H1295     1.0  0.67323  0.09452  0.03642  1.0000
  H   H1296     1.0  0.93287  0.21505  0.02577  1.0000
  C   C1277     1.0  0.69695  0.47023  0.11601  1.0000
  C   C1278     1.0  0.66859  0.08557  0.09717  1.0000
  Fe  Fe228     1.0  0.74639  0.00493  0.21890  1.0000
  C   C1279     1.0  0.76661  0.46965  0.16543  1.0000
  H   H1297     1.0  0.86525  0.23852  0.98493  1.0000
  H   H1298     1.0  0.72650  0.40717  0.18213  1.0000
  H   H1299     1.0  0.71969  0.02293  0.16223  1.0000
  C   C1280     1.0  0.82772  0.12088  0.98412  1.0000
  C   C1281     1.0  0.80265  0.45862  0.98716  1.0000
  C   C1282     1.0  0.72831  0.46122  0.16287  1.0000
  C   C1283     1.0  0.70321  0.47932  0.10249  1.0000
  H   H1300     1.0  0.79721  0.41913  0.18257  1.0000
  H   H1301     1.0  0.73327  0.14763  0.17164  1.0000
  C   C1284     1.0  0.94194  0.18930  0.04281  1.0000
  H   H1302     1.0  0.87323  0.42018  0.08602  1.0000
  H   H1303     1.0  0.67862  0.99877  0.01549  1.0000
  H   H1304     1.0  0.68373  0.05931  0.98428  1.0000
  S   S447      1.0  0.85331  0.12754  0.98892  1.0000
  H   H1305     1.0  0.73563  0.43818  0.22274  1.0000
  C   C1285     1.0  0.76917  0.43379  0.19715  1.0000
  H   H1306     1.0  0.86824  0.39091  0.08477  1.0000
  C   C1286     1.0  0.68178  0.37426  0.09697  1.0000
  N   N109      1.0  0.72229  0.46180  0.98916  1.0000
  C   C1287     1.0  0.77774  0.45569  0.15559  1.0000
  C   C1288     1.0  0.97093  0.39687  0.01506  1.0000
  H   H1307     1.0  0.79627  0.46694  0.99593  1.0000
  C   C1289     1.0  0.98201  0.14378  0.02794  1.0000
  C   C1290     1.0  0.65807  0.05430  0.08836  1.0000
  H   H1308     1.0  0.74713  0.46399  0.21292  1.0000
  C   C1291     1.0  0.91654  0.25694  0.98677  1.0000
  C   C1292     1.0  0.65850  0.44295  0.09934  1.0000
  H   H1309     1.0  0.87583  0.47149  0.99615  1.0000
  H   H1310     1.0  0.98682  0.36145  0.04340  1.0000
  H   H1311     1.0  0.66527  0.35834  0.11621  1.0000
  C   C1293     1.0  0.85763  0.47859  0.99374  1.0000
  H   H1312     1.0  0.68913  0.04176  0.17876  1.0000
  C   C1294     1.0  0.94628  0.20757  0.03210  1.0000
  H   H1313     1.0  0.67692  0.46620  0.06699  1.0000
  C   C1295     1.0  0.69128  0.37102  0.08391  1.0000
  H   H1314     1.0  0.71763  0.46029  0.21231  1.0000
  H   H1315     1.0  0.68169  0.09599  0.09810  1.0000
  H   H1316     1.0  0.66861  0.46889  0.13287  1.0000
  C   C1296     1.0  0.66803  0.08612  0.02893  1.0000
  H   H1317     1.0  0.98488  0.19331  0.99685  1.0000
  H   H1318     1.0  0.66295  0.03972  0.08271  1.0000
  H   H1319     1.0  0.69948  0.38501  0.07700  1.0000
  C   C1297     1.0  0.65997  0.31642  0.11139  1.0000
  C   C1298     1.0  0.98183  0.18688  0.04718  1.0000
  S   S448      1.0  0.66480  0.98969  0.21109  1.0000
  H   H1320     1.0  0.66765  0.29849  0.10881  1.0000
  H   H1321     1.0  0.70931  0.99381  0.15049  1.0000
  H   H1322     1.0  0.66326  0.31595  0.12166  1.0000
  H   H1323     1.0  0.67963  0.31522  0.08593  1.0000
  C   C1299     1.0  0.67999  0.33189  0.08906  1.0000
  C   C1300     1.0  0.98399  0.17950  0.00556  1.0000
  C   C1301     1.0  0.98822  0.37430  0.03427  1.0000
  H   H1324     1.0  0.72963  0.43460  0.97710  1.0000
  C   C1302     1.0  0.65589  0.00779  0.17002  1.0000
  C   C1303     1.0  0.77351  0.04088  0.39845  1.0000
  S   S449      1.0  0.77922  0.99639  0.42926  1.0000
  C   C1304     1.0  0.76561  0.45494  0.24138  1.0000
  S   S450      1.0  0.89189  0.46127  0.36367  1.0000
  C   C1305     1.0  0.70017  0.12261  0.34840  1.0000
  H   H1325     1.0  0.68101  0.23557  0.31264  1.0000
  H   H1326     1.0  0.71246  0.46278  0.26207  1.0000
  H   H1327     1.0  0.65812  0.27787  0.37000  1.0000
  Fe  Fe229     1.0  0.76414  0.01599  0.44678  1.0000
  S   S451      1.0  0.77740  0.04813  0.44949  1.0000
  H   H1328     1.0  0.92266  0.00318  0.38419  1.0000
  C   C1306     1.0  0.67227  0.17386  0.33226  1.0000
  Fe  Fe230     1.0  0.73840  0.06427  0.45286  1.0000
  S   S452      1.0  0.72768  0.10120  0.44104  1.0000
  C   C1307     1.0  0.84669  0.01217  0.39950  1.0000
  S   S453      1.0  0.72534  0.03267  0.44919  1.0000
  C   C1308     1.0  0.93911  0.00966  0.38397  1.0000
  C   C1309     1.0  0.67560  0.43072  0.34739  1.0000
  S   S454      1.0  0.90927  0.02608  0.35322  1.0000
  H   H1329     1.0  0.74333  0.07383  0.41410  1.0000
  Fe  Fe231     1.0  0.89040  0.01565  0.33878  1.0000
  S   S455      1.0  0.87782  0.03790  0.32023  1.0000
  H   H1330     1.0  0.71253  0.29523  0.33099  1.0000
  C   C1310     1.0  0.66006  0.10401  0.43416  1.0000
  H   H1331     1.0  0.70866  0.24652  0.29178  1.0000
  H   H1332     1.0  0.68173  0.44719  0.34732  1.0000
  C   C1311     1.0  0.67448  0.33236  0.36585  1.0000
  C   C1312     1.0  0.75853  0.04740  0.26710  1.0000
  Fe  Fe232     1.0  0.76946  0.13743  0.31071  1.0000
  S   S456      1.0  0.74144  0.12028  0.30582  1.0000
  S   S457      1.0  0.78920  0.12051  0.32786  1.0000
  Fe  Fe233     1.0  0.75496  0.18504  0.29293  1.0000
  S   S458      1.0  0.72612  0.17108  0.28650  1.0000
  S   S459      1.0  0.75918  0.22380  0.28490  1.0000
  Fe  Fe234     1.0  0.71762  0.15519  0.30812  1.0000
  S   S460      1.0  0.68001  0.15654  0.31945  1.0000
  Fe  Fe235     1.0  0.75248  0.13751  0.28459  1.0000
  S   S461      1.0  0.76127  0.11784  0.26674  1.0000
  S   S462      1.0  0.74477  0.17110  0.31457  1.0000
  S   S463      1.0  0.78244  0.15268  0.28938  1.0000
  Fe  Fe236     1.0  0.72890  0.37925  0.31627  1.0000
  S   S464      1.0  0.75381  0.35770  0.32962  1.0000
  S   S465      1.0  0.69036  0.37827  0.32505  1.0000
  Fe  Fe237     1.0  0.76898  0.38698  0.29318  1.0000
  S   S466      1.0  0.79698  0.36481  0.30497  1.0000
  S   S467      1.0  0.78256  0.40260  0.27180  1.0000
  Fe  Fe238     1.0  0.77051  0.33921  0.31221  1.0000
  S   S468      1.0  0.77654  0.29859  0.31763  1.0000
  Fe  Fe239     1.0  0.77763  0.38533  0.32124  1.0000
  S   S469      1.0  0.79275  0.39829  0.33675  1.0000
  S   S470      1.0  0.74438  0.35965  0.29915  1.0000
  S   S471      1.0  0.75092  0.40872  0.30918  1.0000
  C   C1313     1.0  0.79590  0.45542  0.27778  1.0000
  C   C1314     1.0  0.67784  0.39590  0.33735  1.0000
  H   H1333     1.0  0.73692  0.47218  0.35375  1.0000
  H   H1334     1.0  0.68758  0.27634  0.34927  1.0000
  H   H1335     1.0  0.71011  0.14273  0.42324  1.0000
  C   C1315     1.0  0.67663  0.15329  0.37797  1.0000
  H   H1336     1.0  0.68203  0.41940  0.43494  1.0000
  C   C1316     1.0  0.96013  0.04191  0.38350  1.0000
  H   H1337     1.0  0.76796  0.07505  0.42199  1.0000
  H   H1338     1.0  0.71909  0.37632  0.37715  1.0000
  C   C1317     1.0  0.76617  0.42614  0.26201  1.0000
  C   C1318     1.0  0.77751  0.43565  0.24937  1.0000
  H   H1339     1.0  0.97342  0.03096  0.34785  1.0000
  C   C1319     1.0  0.71108  0.23358  0.26812  1.0000
  H   H1340     1.0  0.73470  0.12272  0.33595  1.0000
  C   C1320     1.0  0.74267  0.43602  0.26658  1.0000
  H   H1341     1.0  0.79569  0.42813  0.24577  1.0000
  H   H1342     1.0  0.95784  0.42837  0.38386  1.0000
  H   H1343     1.0  0.68877  0.39017  0.37557  1.0000
  H   H1344     1.0  0.73374  0.42879  0.27631  1.0000
  C   C1321     1.0  0.65897  0.38885  0.34712  1.0000
  C   C1322     1.0  0.68667  0.18993  0.33325  1.0000
  C   C1323     1.0  0.68067  0.20320  0.34366  1.0000
  C   C1324     1.0  0.83424  0.99470  0.39809  1.0000
  H   H1345     1.0  0.75699  0.43748  0.34285  1.0000
  H   H1346     1.0  0.82024  0.04288  0.37280  1.0000
  H   H1347     1.0  0.70219  0.19258  0.32588  1.0000
  H   H1348     1.0  0.69204  0.21546  0.34439  1.0000
  C   C1325     1.0  0.66282  0.20612  0.29226  1.0000
  C   C1326     1.0  0.76016  0.24505  0.29485  1.0000
  C   C1327     1.0  0.75978  0.26905  0.28886  1.0000
  C   C1328     1.0  0.76329  0.28604  0.29597  1.0000
  C   C1329     1.0  0.76757  0.27907  0.30911  1.0000
  C   C1330     1.0  0.76694  0.25525  0.31527  1.0000
  C   C1331     1.0  0.76305  0.23834  0.30822  1.0000
  H   H1349     1.0  0.75753  0.27445  0.27851  1.0000
  H   H1350     1.0  0.76379  0.30429  0.29110  1.0000
  H   H1351     1.0  0.77022  0.24970  0.32543  1.0000
  H   H1352     1.0  0.76326  0.21998  0.31300  1.0000
  C   C1332     1.0  0.71332  0.08714  0.24604  1.0000
  C   C1333     1.0  0.70331  0.09833  0.25717  1.0000
  C   C1334     1.0  0.71752  0.10839  0.26346  1.0000
  C   C1335     1.0  0.74193  0.10756  0.25857  1.0000
  C   C1336     1.0  0.75176  0.09705  0.24718  1.0000
  C   C1337     1.0  0.73761  0.08680  0.24099  1.0000
  H   H1353     1.0  0.68451  0.09883  0.26111  1.0000
  H   H1354     1.0  0.70967  0.11644  0.27219  1.0000
  H   H1355     1.0  0.77057  0.09647  0.24325  1.0000
  S   S472      1.0  0.69504  0.07318  0.23907  1.0000
  C   C1338     1.0  0.85281  0.06041  0.32252  1.0000
  C   C1339     1.0  0.84332  0.06626  0.33515  1.0000
  C   C1340     1.0  0.82374  0.08466  0.33667  1.0000
  C   C1341     1.0  0.81337  0.09713  0.32561  1.0000
  C   C1342     1.0  0.82263  0.09104  0.31300  1.0000
  C   C1343     1.0  0.84239  0.07281  0.31146  1.0000
  H   H1356     1.0  0.85128  0.05684  0.34371  1.0000
  H   H1357     1.0  0.81669  0.08934  0.34643  1.0000
  H   H1358     1.0  0.81477  0.10056  0.30442  1.0000
  H   H1359     1.0  0.84968  0.06841  0.30166  1.0000
  C   C1344     1.0  0.70016  0.10999  0.43494  1.0000
  C   C1345     1.0  0.68203  0.09605  0.43879  1.0000
  C   C1346     1.0  0.67423  0.13973  0.42159  1.0000
  C   C1347     1.0  0.78353  0.03326  0.24724  1.0000
  H   H1360     1.0  0.77309  0.05532  0.26858  1.0000
  C   C1348     1.0  0.69619  0.13182  0.42627  1.0000
  H   H1361     1.0  0.68478  0.07925  0.44547  1.0000
  H   H1362     1.0  0.70070  0.42242  0.32992  1.0000
  C   C1349     1.0  0.67999  0.22937  0.30361  1.0000
  H   H1363     1.0  0.79863  0.08453  0.40421  1.0000
  C   C1350     1.0  0.80599  0.00183  0.41836  1.0000
  C   C1351     1.0  0.79558  0.07084  0.39929  1.0000
  H   H1364     1.0  0.74322  0.39863  0.35068  1.0000
  C   C1352     1.0  0.73111  0.45502  0.35726  1.0000
  C   C1353     1.0  0.81397  0.98955  0.40751  1.0000
  C   C1354     1.0  0.84517  0.45162  0.33093  1.0000
  C   C1355     1.0  0.83836  0.44597  0.31978  1.0000
  C   C1356     1.0  0.82232  0.42976  0.32134  1.0000
  C   C1357     1.0  0.81292  0.41898  0.33410  1.0000
  C   C1358     1.0  0.81956  0.42480  0.34525  1.0000
  C   C1359     1.0  0.83558  0.44100  0.34369  1.0000
  H   H1365     1.0  0.84572  0.45402  0.30987  1.0000
  H   H1366     1.0  0.81743  0.42542  0.31268  1.0000
  H   H1367     1.0  0.81246  0.41654  0.35516  1.0000
  H   H1368     1.0  0.84066  0.44511  0.35236  1.0000
  H   H1369     1.0  0.70962  0.32698  0.32857  1.0000
  H   H1370     1.0  0.67986  0.14025  0.38710  1.0000
  H   H1371     1.0  0.73134  0.30868  0.33819  1.0000
  H   H1372     1.0  0.82643  0.07473  0.38388  1.0000
  C   C1360     1.0  0.67842  0.21284  0.28055  1.0000
  N   N110      1.0  0.69236  0.14539  0.36620  1.0000
  H   H1373     1.0  0.78013  0.03738  0.23676  1.0000
  H   H1374     1.0  0.93561  0.41583  0.39674  1.0000
  N   N111      1.0  0.98118  0.02637  0.38350  1.0000
  C   C1361     1.0  0.67396  0.47929  0.44801  1.0000
  H   H1375     1.0  0.74551  0.07853  0.23235  1.0000
  Fe  Fe240     1.0  0.88550  0.00416  0.36878  1.0000
  C   C1362     1.0  0.67972  0.43619  0.43843  1.0000
  C   C1363     1.0  0.71461  0.15168  0.36243  1.0000
  H   H1376     1.0  0.74425  0.01727  0.24614  1.0000
  C   C1364     1.0  0.83900  0.02408  0.41050  1.0000
  C   C1365     1.0  0.70507  0.42999  0.37220  1.0000
  C   C1366     1.0  0.81123  0.06556  0.38775  1.0000
  H   H1377     1.0  0.66832  0.28571  0.40179  1.0000
  C   C1367     1.0  0.65723  0.42322  0.35743  1.0000
  S   S473      1.0  0.65812  0.40374  0.40310  1.0000
  H   H1378     1.0  0.70520  0.02285  0.26082  1.0000
  H   H1379     1.0  0.69028  0.42812  0.38036  1.0000
  N   N112      1.0  0.69433  0.22756  0.28039  1.0000
  H   H1380     1.0  0.71924  0.24927  0.26839  1.0000
  H   H1381     1.0  0.72035  0.16317  0.36781  1.0000
  H   H1382     1.0  0.89572  0.45223  0.39852  1.0000
  H   H1383     1.0  0.81295  0.02842  0.42821  1.0000
  C   C1368     1.0  0.70756  0.38808  0.37030  1.0000
  S   S474      1.0  0.70954  0.00860  0.23104  1.0000
  C   C1369     1.0  0.68514  0.13085  0.35942  1.0000
  S   S475      1.0  0.73489  0.05234  0.47518  1.0000
  C   C1370     1.0  0.71237  0.45224  0.36790  1.0000
  C   C1371     1.0  0.90979  0.46160  0.39924  1.0000
  H   H1384     1.0  0.84221  0.99140  0.28855  1.0000
  C   C1372     1.0  0.93878  0.03379  0.38375  1.0000
  N   N113      1.0  0.79288  0.47445  0.26630  1.0000
  H   H1385     1.0  0.92201  0.04602  0.38374  1.0000
  C   C1373     1.0  0.66158  0.20081  0.43946  1.0000
  C   C1374     1.0  0.73018  0.14356  0.35153  1.0000
  C   C1375     1.0  0.98163  0.00264  0.38371  1.0000
  H   H1386     1.0  0.66743  0.12603  0.36230  1.0000
  H   H1387     1.0  0.67812  0.20574  0.27169  1.0000
  C   C1376     1.0  0.69099  0.33107  0.35407  1.0000
  H   H1388     1.0  0.73457  0.06078  0.28367  1.0000
  H   H1389     1.0  0.70010  0.34609  0.34957  1.0000
  C   C1377     1.0  0.86820  0.99483  0.30005  1.0000
  C   C1378     1.0  0.95083  0.46508  0.39557  1.0000
  C   C1379     1.0  0.74230  0.43559  0.35109  1.0000
  S   S476      1.0  0.87107  0.02071  0.38744  1.0000
  H   H1390     1.0  0.70324  0.46724  0.37269  1.0000
  H   H1391     1.0  0.84859  0.03754  0.41170  1.0000
  H   H1392     1.0  0.69406  0.11188  0.34270  1.0000
  C   C1380     1.0  0.69515  0.46315  0.44895  1.0000
  S   S477      1.0  0.76190  0.99934  0.46845  1.0000
  H   H1393     1.0  0.85838  0.01115  0.30334  1.0000
  H   H1394     1.0  0.75772  0.04734  0.42365  1.0000
  C   C1381     1.0  0.73066  0.45525  0.25849  1.0000
  C   C1382     1.0  0.93891  0.43138  0.38884  1.0000
  C   C1383     1.0  0.73673  0.05053  0.27572  1.0000
  N   N114      1.0  0.77711  0.05841  0.40453  1.0000
  C   C1384     1.0  0.66728  0.29294  0.36558  1.0000
  C   C1385     1.0  0.78871  0.03527  0.38684  1.0000
  H   H1395     1.0  0.74782  0.14857  0.34845  1.0000
  S   S478      1.0  0.86563  0.47199  0.32846  1.0000
  H   H1396     1.0  0.75931  0.03054  0.40286  1.0000
  C   C1386     1.0  0.73442  0.41362  0.35558  1.0000
  H   H1397     1.0  0.70797  0.37947  0.36159  1.0000
  S   S479      1.0  0.86509  0.99595  0.35431  1.0000
  S   S480      1.0  0.91795  0.98333  0.33581  1.0000
  C   C1387     1.0  0.80774  0.04766  0.38150  1.0000
  H   H1398     1.0  0.67586  0.21139  0.43688  1.0000
  H   H1399     1.0  0.96934  0.45857  0.39187  1.0000
  H   H1400     1.0  0.80266  0.46190  0.28547  1.0000
  C   C1388     1.0  0.96065  0.99397  0.38383  1.0000
  C   C1389     1.0  0.81874  0.01898  0.41987  1.0000
  C   C1390     1.0  0.74230  0.02643  0.25451  1.0000
  C   C1391     1.0  0.74214  0.46493  0.24588  1.0000
  C   C1392     1.0  0.68396  0.29222  0.35382  1.0000
  C   C1393     1.0  0.76075  0.06400  0.41661  1.0000
  C   C1394     1.0  0.72285  0.12895  0.34449  1.0000
  C   C1395     1.0  0.66249  0.31323  0.37157  1.0000
  C   C1396     1.0  0.69792  0.44167  0.44404  1.0000
  H   H1401     1.0  0.70193  0.23783  0.25928  1.0000
  N   N115      1.0  0.81970  0.22374  0.29429  1.0000
  C   C1397     1.0  0.82418  0.22926  0.30568  1.0000
  C   C1398     1.0  0.81798  0.24085  0.28317  1.0000
  C   C1399     1.0  0.82659  0.25255  0.30624  1.0000
  C   C1400     1.0  0.82044  0.26429  0.28337  1.0000
  C   C1401     1.0  0.82462  0.27015  0.29501  1.0000
  C   C1402     1.0  0.81654  0.19933  0.29416  1.0000
  H   H1402     1.0  0.82522  0.21578  0.31454  1.0000
  H   H1403     1.0  0.81382  0.23667  0.27424  1.0000
  H   H1404     1.0  0.82906  0.25721  0.31545  1.0000
  H   H1405     1.0  0.81824  0.27800  0.27471  1.0000
  H   H1406     1.0  0.82548  0.28847  0.29552  1.0000
  H   H1407     1.0  0.83347  0.18685  0.29522  1.0000
  H   H1408     1.0  0.80235  0.19377  0.30248  1.0000
  H   H1409     1.0  0.81084  0.19773  0.28479  1.0000
  H   H1410     1.0  0.78631  0.02079  0.38231  1.0000
  N   N116      1.0  0.71575  0.41117  0.36586  1.0000
  C   C1403     1.0  0.71743  0.04155  0.27351  1.0000
  H   H1411     1.0  0.89660  0.99312  0.31083  1.0000
  C   C1404     1.0  0.65822  0.45197  0.43789  1.0000
  H   H1412     1.0  0.82240  0.46993  0.42027  1.0000
  H   H1413     1.0  0.77883  0.44883  0.28236  1.0000
  Fe  Fe241     1.0  0.72454  0.01925  0.47115  1.0000
  H   H1414     1.0  0.72580  0.21833  0.26688  1.0000
  N   N117      1.0  0.76093  0.03583  0.25652  1.0000
  C   C1405     1.0  0.68636  0.41673  0.33756  1.0000
  H   H1415     1.0  0.71414  0.42895  0.44478  1.0000
  C   C1406     1.0  0.71304  0.31040  0.33591  1.0000
  C   C1407     1.0  0.72025  0.02928  0.26290  1.0000
  H   H1416     1.0  0.70015  0.04469  0.27976  1.0000
  H   H1417     1.0  0.79530  0.04562  0.24817  1.0000
  Fe  Fe242     1.0  0.93444  0.99157  0.35183  1.0000
  S   S481      1.0  0.96085  0.46767  0.36033  1.0000
  S   S482      1.0  0.77862  0.99009  0.22927  1.0000
  H   H1418     1.0  0.67081  0.34814  0.37051  1.0000
  H   H1419     1.0  0.65755  0.15524  0.37699  1.0000
  N   N118      1.0  0.93310  0.45331  0.39460  1.0000
  H   H1420     1.0  0.92786  0.43261  0.38103  1.0000
  S   S483      1.0  0.65979  0.33438  0.40602  1.0000
  H   H1421     1.0  0.95978  0.06071  0.38330  1.0000
  H   H1422     1.0  0.80858  0.43975  0.27465  1.0000
  H   H1423     1.0  0.77563  0.46538  0.40775  1.0000
  H   H1424     1.0  0.77472  0.46199  0.23176  1.0000
  C   C1408     1.0  0.66625  0.17656  0.44458  1.0000
  N   N119      1.0  0.69539  0.31126  0.34816  1.0000
  H   H1425     1.0  0.68422  0.16800  0.44593  1.0000
  H   H1426     1.0  0.67133  0.15666  0.41505  1.0000
  H   H1427     1.0  0.79294  0.01461  0.24902  1.0000
  H   H1428     1.0  0.67947  0.17109  0.37917  1.0000
  C   C1409     1.0  0.69551  0.23553  0.29177  1.0000
  S   S484      1.0  0.71825  0.46830  0.45664  1.0000
  C   C1410     1.0  0.85922  0.98383  0.29174  1.0000
  C   C1411     1.0  0.65596  0.12593  0.42563  1.0000
  C   C1412     1.0  0.66014  0.20057  0.35315  1.0000
  Fe  Fe243     1.0  0.77254  0.03295  0.47148  1.0000
  C   C1413     1.0  0.88993  0.98453  0.30427  1.0000
  S   S485      1.0  0.84958  0.47842  0.39411  1.0000
  H   H1429     1.0  0.83001  0.46969  0.25827  1.0000
  C   C1414     1.0  0.66348  0.21467  0.30380  1.0000
  H   H1430     1.0  0.74519  0.46934  0.42671  1.0000
  H   H1431     1.0  0.84002  0.98536  0.38969  1.0000
  C   C1415     1.0  0.81248  0.47983  0.25721  1.0000
  Fe  Fe244     1.0  0.71791  0.04070  0.70425  1.0000
  S   S486      1.0  0.75174  0.04619  0.70984  1.0000
  S   S487      1.0  0.68153  0.06367  0.70817  1.0000
  H   H1432     1.0  0.87536  0.05427  0.49727  1.0000
  S   S488      1.0  0.77640  0.99528  0.70009  1.0000
  H   H1433     1.0  0.87217  0.09517  0.69285  1.0000
  Fe  Fe245     1.0  0.76986  0.03385  0.69054  1.0000
  S   S489      1.0  0.80010  0.04632  0.67467  1.0000
  S   S490      1.0  0.72041  0.00237  0.71423  1.0000
  S   S491      1.0  0.73561  0.03143  0.68409  1.0000
  H   H1434     1.0  0.80518  0.08562  0.61284  1.0000
  H   H1435     1.0  0.76228  0.44299  0.71194  1.0000
  C   C1416     1.0  0.81372  0.12137  0.62166  1.0000
  C   C1417     1.0  0.97226  0.06993  0.54726  1.0000
  Fe  Fe246     1.0  0.87455  0.14991  0.65292  1.0000
  S   S492      1.0  0.90017  0.12765  0.63917  1.0000
  S   S493      1.0  0.84981  0.13582  0.67145  1.0000
  Fe  Fe247     1.0  0.88665  0.19721  0.63639  1.0000
  S   S494      1.0  0.91249  0.17872  0.62112  1.0000
  S   S495      1.0  0.87814  0.23768  0.63227  1.0000
  Fe  Fe248     1.0  0.88568  0.15471  0.62292  1.0000
  S   S496      1.0  0.87918  0.14653  0.60371  1.0000
  Fe  Fe249     1.0  0.92515  0.15331  0.63847  1.0000
  S   S497      1.0  0.96507  0.14132  0.63569  1.0000
  S   S498      1.0  0.85831  0.17545  0.63656  1.0000
  S   S499      1.0  0.90099  0.17326  0.65386  1.0000
  Fe  Fe250     1.0  0.89387  0.39627  0.66155  1.0000
  S   S500      1.0  0.89549  0.38204  0.64256  1.0000
  S   S501      1.0  0.85683  0.41403  0.67012  1.0000
  Fe  Fe251     1.0  0.94767  0.38063  0.66144  1.0000
  S   S502      1.0  0.95285  0.36682  0.64229  1.0000
  H   H1436     1.0  0.87768  0.45584  0.65006  1.0000
  Fe  Fe252     1.0  0.92794  0.39985  0.63559  1.0000
  S   S503      1.0  0.93754  0.42397  0.61601  1.0000
  Fe  Fe253     1.0  0.92021  0.34999  0.65117  1.0000
  S   S504      1.0  0.92712  0.30944  0.65281  1.0000
  S   S505      1.0  0.92541  0.41535  0.65410  1.0000
  S   S506      1.0  0.91578  0.36279  0.67073  1.0000
  H   H1437     1.0  0.76004  0.00018  0.49874  1.0000
  Fe  Fe254     1.0  0.89563  0.04527  0.55279  1.0000
  S   S507      1.0  0.86033  0.06844  0.55792  1.0000
  S   S508      1.0  0.92760  0.06421  0.54417  1.0000
  Fe  Fe255     1.0  0.87356  0.00019  0.56278  1.0000
  S   S509      1.0  0.83715  0.01963  0.56926  1.0000
  H   H1438     1.0  0.83271  0.00776  0.71305  1.0000
  Fe  Fe256     1.0  0.84413  0.04360  0.54944  1.0000
  S   S510      1.0  0.81392  0.05776  0.53738  1.0000
  Fe  Fe257     1.0  0.85658  0.04251  0.57711  1.0000
  S   S511      1.0  0.84718  0.05129  0.59803  1.0000
  S   S512      1.0  0.87979  0.02279  0.54248  1.0000
  S   S513      1.0  0.89258  0.02068  0.57239  1.0000
  C   C1418     1.0  0.95478  0.05498  0.55058  1.0000
  H   H1439     1.0  0.87209  0.47177  0.69531  1.0000
  H   H1440     1.0  0.93797  0.47766  0.55319  1.0000
  C   C1419     1.0  0.95953  0.03285  0.55867  1.0000
  H   H1441     1.0  0.85074  0.10939  0.52991  1.0000
  C   C1420     1.0  0.82113  0.42574  0.71197  1.0000
  H   H1442     1.0  0.94635  0.02108  0.56126  1.0000
  C   C1421     1.0  0.80433  0.03379  0.49926  1.0000
  C   C1422     1.0  0.82430  0.02345  0.50546  1.0000
  C   C1423     1.0  0.82711  0.03000  0.51737  1.0000
  C   C1424     1.0  0.81009  0.04726  0.52312  1.0000
  C   C1425     1.0  0.79002  0.05746  0.51698  1.0000
  C   C1426     1.0  0.78706  0.05069  0.50515  1.0000
  H   H1443     1.0  0.83774  0.01035  0.50098  1.0000
  H   H1444     1.0  0.84264  0.02202  0.52196  1.0000
  H   H1445     1.0  0.77679  0.07089  0.52132  1.0000
  H   H1446     1.0  0.77168  0.05888  0.50046  1.0000
  C   C1427     1.0  0.87874  0.08344  0.52158  1.0000
  C   C1428     1.0  0.94463  0.23295  0.61760  1.0000
  C   C1429     1.0  0.87209  0.11906  0.60245  1.0000
  C   C1430     1.0  0.86953  0.10073  0.61343  1.0000
  C   C1431     1.0  0.86231  0.07967  0.61201  1.0000
  C   C1432     1.0  0.85805  0.07678  0.59960  1.0000
  C   C1433     1.0  0.86142  0.09484  0.58862  1.0000
  C   C1434     1.0  0.86834  0.11588  0.59005  1.0000
  H   H1447     1.0  0.87248  0.10302  0.62304  1.0000
  H   H1448     1.0  0.85990  0.06570  0.62055  1.0000
  H   H1449     1.0  0.85789  0.09303  0.57909  1.0000
  H   H1450     1.0  0.87031  0.12999  0.58153  1.0000
  C   C1435     1.0  0.89011  0.25740  0.63917  1.0000
  C   C1436     1.0  0.90651  0.24912  0.64797  1.0000
  C   C1437     1.0  0.91708  0.26541  0.65237  1.0000
  C   C1438     1.0  0.91130  0.29009  0.64809  1.0000
  C   C1439     1.0  0.89455  0.29838  0.63951  1.0000
  C   C1440     1.0  0.88404  0.28208  0.63507  1.0000
  H   H1451     1.0  0.91135  0.23018  0.65120  1.0000
  H   H1452     1.0  0.92996  0.25879  0.65904  1.0000
  H   H1453     1.0  0.88999  0.31730  0.63611  1.0000
  H   H1454     1.0  0.87136  0.28862  0.62827  1.0000
  C   C1441     1.0  0.85629  0.09779  0.52248  1.0000
  H   H1455     1.0  0.88461  0.43794  0.68269  1.0000
  H   H1456     1.0  0.89392  0.45650  0.56490  1.0000
  C   C1442     1.0  0.80089  0.08258  0.62393  1.0000
  H   H1457     1.0  0.83557  0.07938  0.49845  1.0000
  C   C1443     1.0  0.98090  0.15915  0.64143  1.0000
  H   H1458     1.0  0.94958  0.18043  0.65054  1.0000
  H   H1459     1.0  0.89069  0.08456  0.52821  1.0000
  C   C1444     1.0  0.94821  0.25312  0.62192  1.0000
  C   C1445     1.0  0.79382  0.45713  0.72265  1.0000
  C   C1446     1.0  0.91494  0.44073  0.60734  1.0000
  C   C1447     1.0  0.89276  0.43353  0.60884  1.0000
  C   C1448     1.0  0.97086  0.44497  0.57616  1.0000
  C   C1449     1.0  0.74244  0.00211  0.50540  1.0000
  C   C1450     1.0  0.90893  0.05300  0.51176  1.0000
  H   H1460     1.0  0.88893  0.41759  0.61574  1.0000
  H   H1461     1.0  0.94734  0.13098  0.61097  1.0000
  H   H1462     1.0  0.72434  0.99551  0.64069  1.0000
  H   H1463     1.0  0.82079  0.12072  0.61122  1.0000
  C   C1451     1.0  0.98169  0.02551  0.56310  1.0000
  C   C1452     1.0  0.84529  0.07868  0.70723  1.0000
  C   C1453     1.0  0.84995  0.44008  0.67753  1.0000
  H   H1464     1.0  0.81353  0.44695  0.67414  1.0000
  H   H1465     1.0  0.92741  0.23216  0.61518  1.0000
  H   H1466     1.0  0.95962  0.29052  0.62791  1.0000
  H   H1467     1.0  0.93691  0.46696  0.59709  1.0000
  H   H1468     1.0  0.70535  0.99306  0.52412  1.0000
  C   C1454     1.0  0.88071  0.46703  0.59191  1.0000
  C   C1455     1.0  0.97561  0.09286  0.58362  1.0000
  Fe  Fe258     1.0  0.74122  0.99353  0.69453  1.0000
  S   S514      1.0  0.69385  0.00564  0.48611  1.0000
  H   H1469     1.0  0.97346  0.47837  0.56279  1.0000
  H   H1470     1.0  0.82154  0.01574  0.69737  1.0000
  H   H1471     1.0  0.92128  0.06107  0.50321  1.0000
  C   C1456     1.0  0.87238  0.45243  0.64096  1.0000
  C   C1457     1.0  0.68884  0.11764  0.72621  1.0000
  C   C1458     1.0  0.81257  0.07214  0.67355  1.0000
  C   C1459     1.0  0.83167  0.07681  0.66325  1.0000
  C   C1460     1.0  0.84273  0.09676  0.66222  1.0000
  C   C1461     1.0  0.83491  0.11202  0.67160  1.0000
  C   C1462     1.0  0.81561  0.10751  0.68181  1.0000
  C   C1463     1.0  0.80440  0.08766  0.68277  1.0000
  H   H1472     1.0  0.83807  0.06483  0.65609  1.0000
  H   H1473     1.0  0.85761  0.10004  0.65435  1.0000
  H   H1474     1.0  0.80950  0.11930  0.68909  1.0000
  H   H1475     1.0  0.78966  0.08424  0.69071  1.0000
  C   C1464     1.0  0.84782  0.08100  0.50479  1.0000
  C   C1465     1.0  0.90916  0.44502  0.55980  1.0000
  H   H1476     1.0  0.80505  0.02794  0.71156  1.0000
  C   C1466     1.0  0.90290  0.47417  0.59043  1.0000
  H   H1477     1.0  0.97212  0.20590  0.65805  1.0000
  C   C1467     1.0  0.95766  0.42638  0.58069  1.0000
  C   C1468     1.0  0.94137  0.10912  0.59770  1.0000
  C   C1469     1.0  0.93739  0.42663  0.57519  1.0000
  N   N120      1.0  0.95153  0.09541  0.58811  1.0000
  H   H1478     1.0  0.85852  0.44105  0.60229  1.0000
  H   H1479     1.0  0.72915  0.99804  0.66361  1.0000
  H   H1480     1.0  0.81375  0.06706  0.62773  1.0000
  C   C1470     1.0  0.87565  0.44671  0.60115  1.0000
  H   H1481     1.0  0.78257  0.07809  0.62680  1.0000
  C   C1471     1.0  0.94352  0.46302  0.56082  1.0000
  H   H1482     1.0  0.67080  0.98963  0.66054  1.0000
  H   H1483     1.0  0.96244  0.41245  0.58886  1.0000
  C   C1472     1.0  0.85932  0.46654  0.69057  1.0000
  H   H1484     1.0  0.94561  0.06650  0.57992  1.0000
  C   C1473     1.0  0.80722  0.40297  0.69885  1.0000
  H   H1485     1.0  0.84706  0.00028  0.59789  1.0000
  H   H1486     1.0  0.92664  0.41267  0.57921  1.0000
  H   H1487     1.0  0.88036  0.06350  0.67890  1.0000
  H   H1488     1.0  0.96785  0.32258  0.66825  1.0000
  C   C1474     1.0  0.87027  0.06667  0.50428  1.0000
  H   H1489     1.0  0.90799  0.47693  0.63174  1.0000
  H   H1490     1.0  0.98367  0.08221  0.57592  1.0000
  N   N121      1.0  0.80255  0.10344  0.62945  1.0000
  H   H1491     1.0  0.92227  0.11154  0.60112  1.0000
  C   C1475     1.0  0.83249  0.05961  0.71055  1.0000
  H   H1492     1.0  0.76970  0.41195  0.69764  1.0000
  H   H1493     1.0  0.82645  0.15427  0.62096  1.0000
  C   C1476     1.0  0.97218  0.27426  0.63121  1.0000
  C   C1477     1.0  0.81684  0.14052  0.62710  1.0000
  H   H1494     1.0  0.84139  0.09265  0.71326  1.0000
  N   N122      1.0  0.96942  0.25385  0.62563  1.0000
  C   C1478     1.0  0.79381  0.10429  0.64263  1.0000
  H   H1495     1.0  0.91670  0.05111  0.52099  1.0000
  H   H1496     1.0  0.98618  0.44535  0.58064  1.0000
  S   S515      1.0  0.98000  0.37082  0.67182  1.0000
  H   H1497     1.0  0.78546  0.08980  0.64893  1.0000
  S   S516      1.0  0.80247  0.02550  0.48396  1.0000
  H   H1498     1.0  0.91933  0.08183  0.58882  1.0000
  C   C1479     1.0  0.96316  0.21369  0.61676  1.0000
  C   C1480     1.0  0.91984  0.46120  0.59822  1.0000
  H   H1499     1.0  0.96055  0.19772  0.61368  1.0000
  C   C1481     1.0  0.79604  0.12351  0.64830  1.0000
  C   C1482     1.0  0.80794  0.14154  0.64053  1.0000
  C   C1483     1.0  0.93648  0.08436  0.58208  1.0000
  C   C1484     1.0  0.78015  0.43302  0.70982  1.0000
  C   C1485     1.0  0.67581  0.08875  0.71632  1.0000
  N   N123      1.0  0.83677  0.04251  0.70263  1.0000
  C   C1486     1.0  0.82648  0.45251  0.67859  1.0000
  C   C1487     1.0  0.98492  0.21484  0.62024  1.0000
  H   H1500     1.0  0.85723  0.03011  0.68516  1.0000
  H   H1501     1.0  0.81054  0.15608  0.64497  1.0000
  C   C1488     1.0  0.69421  0.09800  0.71944  1.0000
  H   H1502     1.0  0.98531  0.00812  0.56914  1.0000
  C   C1489     1.0  0.86650  0.44743  0.68336  1.0000
  N   N124      1.0  0.87248  0.47362  0.63057  1.0000
  N   N125      1.0  0.79852  0.43795  0.71477  1.0000
  C   C1490     1.0  0.85408  0.04348  0.69154  1.0000
  C   C1491     1.0  0.96882  0.17737  0.64842  1.0000
  C   C1492     1.0  0.83564  0.47857  0.69194  1.0000
  H   H1503     1.0  0.78932  0.12400  0.65880  1.0000
  C   C1493     1.0  0.82577  0.40793  0.70408  1.0000
  N   N126      1.0  0.88531  0.06788  0.51269  1.0000
  H   H1504     1.0  0.88509  0.43729  0.63729  1.0000
  H   H1505     1.0  0.80691  0.00113  0.60798  1.0000
  C   C1494     1.0  0.98002  0.11769  0.59881  1.0000
  C   C1495     1.0  0.81938  0.47166  0.68570  1.0000
  H   H1506     1.0  0.93366  0.26795  0.62260  1.0000
  H   H1507     1.0  0.96825  0.27022  0.64226  1.0000
  H   H1508     1.0  0.90450  0.42691  0.56117  1.0000
  C   C1496     1.0  0.95545  0.12029  0.60327  1.0000
  H   H1509     1.0  0.74507  0.00847  0.51434  1.0000
  H   H1510     1.0  0.93239  0.09575  0.57258  1.0000
  H   H1511     1.0  0.96874  0.08711  0.54102  1.0000
  Fe  Fe259     1.0  0.75519  0.00715  0.71888  1.0000
  C   C1497     1.0  0.96372  0.46348  0.56620  1.0000
  H   H1512     1.0  0.90775  0.03472  0.51052  1.0000
  C   C1498     1.0  0.98761  0.23496  0.62494  1.0000
  H   H1513     1.0  0.83772  0.47321  0.62670  1.0000
  H   H1514     1.0  0.95802  0.28184  0.67135  1.0000
  H   H1515     1.0  0.82294  0.10682  0.51499  1.0000
  N   N127      1.0  0.93079  0.44462  0.56524  1.0000
  C   C1499     1.0  0.78421  0.41549  0.70177  1.0000
  H   H1516     1.0  0.81090  0.38988  0.69225  1.0000
  H   H1517     1.0  0.85446  0.44697  0.64403  1.0000
  C   C1500     1.0  0.86273  0.08000  0.69584  1.0000
  H   H1518     1.0  0.91155  0.45216  0.54893  1.0000
  H   H1519     1.0  0.98134  0.41962  0.65809  1.0000
  H   H1520     1.0  0.71256  0.09013  0.71657  1.0000
  H   H1521     1.0  0.84386  0.39888  0.70145  1.0000
  C   C1501     1.0  0.82343  0.02249  0.70636  1.0000
  C   C1502     1.0  0.98163  0.19182  0.65267  1.0000
  C   C1503     1.0  0.86728  0.06224  0.68797  1.0000
  H   H1522     1.0  0.81885  0.05875  0.71937  1.0000
  C   C1504     1.0  0.84076  0.09650  0.51404  1.0000
  H   H1523     1.0  0.72985  0.01588  0.50006  1.0000
  H   H1524     1.0  0.80121  0.48078  0.68651  1.0000
  H   H1525     1.0  0.78814  0.47424  0.71629  1.0000
  H   H1526     1.0  0.83590  0.43028  0.71544  1.0000
  C   C1505     1.0  0.97641  0.28473  0.66821  1.0000
  C   C1506     1.0  0.98192  0.30761  0.66649  1.0000
  H   H1527     1.0  0.65903  0.98184  0.50466  1.0000
  C   C1507     1.0  0.81008  0.98192  0.61097  1.0000
  H   H1528     1.0  0.86363  0.98249  0.61033  1.0000
  H   H1529     1.0  0.80994  0.45910  0.72638  1.0000
  C   C1508     1.0  0.87089  0.46237  0.95959  1.0000
  S   S517      1.0  0.71949  0.06685  0.96339  1.0000
  H   H1530     1.0  0.72061  0.06526  0.75114  1.0000
  Fe  Fe260     1.0  0.77499  0.02406  0.95033  1.0000
  S   S518      1.0  0.76639  0.06263  0.94097  1.0000
  H   H1531     1.0  0.74560  0.45945  0.97080  1.0000
  Fe  Fe261     1.0  0.75802  0.07044  0.96198  1.0000
  C   C1509     1.0  0.77577  0.02931  0.91245  1.0000
  Fe  Fe262     1.0  0.72898  0.05490  0.94345  1.0000
  S   S519      1.0  0.70544  0.06895  0.92739  1.0000
  H   H1532     1.0  0.67725  0.08243  0.90637  1.0000
  S   S520      1.0  0.73795  0.01617  0.95178  1.0000
  C   C1510     1.0  0.68269  0.07821  0.75516  1.0000
  C   C1511     1.0  0.67748  0.04277  0.74209  1.0000
  C   C1512     1.0  0.67764  0.06353  0.90984  1.0000
  H   H1533     1.0  0.68462  0.04004  0.83028  1.0000
  C   C1513     1.0  0.67825  0.01491  0.91869  1.0000
  C   C1514     1.0  0.70462  0.00897  0.82220  1.0000
  C   C1515     1.0  0.66583  0.02632  0.90817  1.0000
  C   C1516     1.0  0.80162  0.45734  0.96413  1.0000
  C   C1517     1.0  0.66146  0.20537  0.75267  1.0000
  C   C1518     1.0  0.70292  0.06303  0.75015  1.0000
  H   H1534     1.0  0.79059  0.03159  0.91680  1.0000
  H   H1535     1.0  0.72251  0.02052  0.89773  1.0000
  H   H1536     1.0  0.88186  0.44832  0.95457  1.0000
  S   S521      1.0  0.76324  0.99825  0.74011  1.0000
  C   C1519     1.0  0.82975  0.42814  0.97627  1.0000
  C   C1520     1.0  0.67093  0.00034  0.97173  1.0000
  C   C1521     1.0  0.87170  0.46241  0.97297  1.0000
  S   S522      1.0  0.76882  0.03244  0.97122  1.0000
  C   C1522     1.0  0.69323  0.44713  0.74336  1.0000
  H   H1537     1.0  0.66344  0.18613  0.75535  1.0000
  H   H1538     1.0  0.68491  0.09231  0.76005  1.0000
  Fe  Fe263     1.0  0.73070  0.02864  0.97171  1.0000
  C   C1523     1.0  0.73782  0.02277  0.90168  1.0000
  C   C1524     1.0  0.66028  0.25785  0.76877  1.0000
  H   H1539     1.0  0.85368  0.47948  0.94275  1.0000
  C   C1525     1.0  0.68378  0.02385  0.82676  1.0000
  H   H1540     1.0  0.67920  0.25801  0.76928  1.0000
  H   H1541     1.0  0.71582  0.03358  0.73942  1.0000
  N   N128      1.0  0.66162  0.44798  0.79609  1.0000
  H   H1542     1.0  0.79456  0.46465  0.95499  1.0000
  H   H1543     1.0  0.72178  0.01385  0.82215  1.0000
  H   H1544     1.0  0.81394  0.08225  0.96675  1.0000
  N   N129      1.0  0.66042  0.07576  0.75360  1.0000
  H   H1545     1.0  0.73093  0.06093  0.89705  1.0000
  C   C1526     1.0  0.67005  0.44247  0.74895  1.0000
  H   H1546     1.0  0.76699  0.08288  0.89590  1.0000
  H   H1547     1.0  0.68290  0.03578  0.95229  1.0000
  C   C1527     1.0  0.69004  0.05209  0.92036  1.0000
  C   C1528     1.0  0.75219  0.00300  0.90768  1.0000
  C   C1529     1.0  0.65763  0.05819  0.74726  1.0000
  C   C1530     1.0  0.69043  0.02763  0.92469  1.0000
  C   C1531     1.0  0.66506  0.12796  0.73010  1.0000
  C   C1532     1.0  0.74272  0.04559  0.90128  1.0000
  H   H1548     1.0  0.70031  0.01838  0.93253  1.0000
  S   S523      1.0  0.76275  0.10191  0.97101  1.0000
  H   H1549     1.0  0.70821  0.43279  0.74394  1.0000
  C   C1533     1.0  0.68170  0.98230  0.81804  1.0000
  N   N130      1.0  0.76152  0.04861  0.90660  1.0000
  C   C1534     1.0  0.76583  0.07281  0.90624  1.0000
  C   C1535     1.0  0.67654  0.44480  0.81654  1.0000
  H   H1550     1.0  0.75095  0.08228  0.91276  1.0000
  H   H1551     1.0  0.82676  0.42929  0.95575  1.0000
  H   H1552     1.0  0.67854  0.99601  0.92216  1.0000
  C   C1536     1.0  0.69711  0.47007  0.73684  1.0000
  H   H1553     1.0  0.66282  0.99003  0.96638  1.0000
  S   S524      1.0  0.80979  0.00558  0.93978  1.0000
  C   C1537     1.0  0.81986  0.43732  0.96458  1.0000
  C   C1538     1.0  0.70025  0.04523  0.74356  1.0000
  C   C1539     1.0  0.66572  0.05072  0.90372  1.0000
  N   N131      1.0  0.70337  0.98845  0.81797  1.0000
  H   H1554     1.0  0.67834  0.41542  0.80646  1.0000
  H   H1555     1.0  0.85143  0.98394  0.92412  1.0000
  H   H1556     1.0  0.78271  0.07280  0.90981  1.0000
  H   H1557     1.0  0.69036  0.99895  0.96781  1.0000
  H   H1558     1.0  0.66284  0.21078  0.77236  1.0000
  C   C1540     1.0  0.67289  0.43448  0.80616  1.0000
  H   H1559     1.0  0.65622  0.05976  0.89566  1.0000
  C   C1541     1.0  0.66055  0.99670  0.82260  1.0000
  C   C1542     1.0  0.85497  0.47974  0.95301  1.0000
  N   N132      1.0  0.65919  0.02525  0.97011  1.0000
  C   C1543     1.0  0.77136  0.00625  0.91305  1.0000
  H   H1560     1.0  0.67414  0.43636  0.77744  1.0000
  H   H1561     1.0  0.84858  0.09337  0.97351  1.0000
  C   C1544     1.0  0.65877  0.21628  0.73969  1.0000
  C   C1545     1.0  0.81116  0.09618  0.97269  1.0000
  H   H1562     1.0  0.68454  0.43386  0.82481  1.0000
  N   N133      1.0  0.65893  0.24364  0.75882  1.0000
  H   H1563     1.0  0.78267  0.99104  0.91774  1.0000
  H   H1564     1.0  0.66286  0.07748  0.94900  1.0000
  H   H1565     1.0  0.77936  0.45396  0.73128  1.0000
  H   H1566     1.0  0.66728  0.42467  0.75375  1.0000
  C   C1546     1.0  0.66167  0.01761  0.82694  1.0000
  C   C1547     1.0  0.66905  0.46916  0.81643  1.0000
  C   C1548     1.0  0.65653  0.25453  0.74606  1.0000
  H   H1567     1.0  0.67153  0.47740  0.82449  1.0000
  C   C1549     1.0  0.66739  0.04121  0.95939  1.0000
  S   S525      1.0  0.65910  0.15208  0.73900  1.0000
  S   S526      1.0  0.72664  0.47476  0.72980  1.0000
  C   C1550     1.0  0.65617  0.24104  0.73634  1.0000
  H   H1568     1.0  0.74832  0.98522  0.90830  1.0000
  C   C1551     1.0  0.66134  0.21939  0.76219  1.0000
  H   H1569     1.0  0.65849  0.20549  0.73230  1.0000
  H   H1570     1.0  0.67532  0.02954  0.73655  1.0000
  H   H1571     1.0  0.87682  0.32467  0.97496  1.0000
  C   C1552     1.0  0.79336  0.46836  0.97536  1.0000
  H   H1572     1.0  0.70319  0.12478  0.72850  1.0000
  S   S527      1.0  0.85473  0.40512  0.97610  1.0000
  C   C1553     1.0  0.65607  0.06491  0.95749  1.0000
  C   C1554     1.0  0.65803  0.43684  0.78529  1.0000
  C   C1555     1.0  0.83080  0.10260  0.97653  1.0000
  C   C1556     1.0  0.78811  0.10830  0.97619  1.0000
  C   C1557     1.0  0.70502  0.57589  0.15960  1.0000
  H   H1573     1.0  0.66920  0.62512  0.13703  1.0000
  C   C1558     1.0  0.81194  0.60101  0.19289  1.0000
  Fe  Fe264     1.0  0.79057  0.53323  0.20750  1.0000
  H   H1574     1.0  0.71332  0.62004  0.13299  1.0000
  S   S528      1.0  0.78416  0.49559  0.20945  1.0000
  Fe  Fe265     1.0  0.77226  0.50580  0.18938  1.0000
  S   S529      1.0  0.73395  0.51819  0.19744  1.0000
  C   C1559     1.0  0.68152  0.96242  0.19084  1.0000
  Fe  Fe266     1.0  0.74520  0.55392  0.19569  1.0000
  S   S530      1.0  0.73163  0.59024  0.18451  1.0000
  H   H1575     1.0  0.81258  0.64746  0.20757  1.0000
  S   S531      1.0  0.78310  0.54187  0.18647  1.0000
  C   C1560     1.0  0.66050  0.86960  0.18685  1.0000
  C   C1561     1.0  0.65694  0.49141  0.11530  1.0000
  H   H1576     1.0  0.85242  0.49664  0.99651  1.0000
  C   C1562     1.0  0.67831  0.94849  0.18182  1.0000
  C   C1563     1.0  0.67922  0.61130  0.14344  1.0000
  H   H1577     1.0  0.68582  0.55535  0.01658  1.0000
  C   C1564     1.0  0.77215  0.62298  0.19730  1.0000
  H   H1578     1.0  0.69306  0.54859  0.99309  1.0000
  C   C1565     1.0  0.67146  0.55171  0.01241  1.0000
  H   H1579     1.0  0.71492  0.56244  0.16624  1.0000
  C   C1566     1.0  0.67560  0.54789  0.99909  1.0000
  C   C1567     1.0  0.80415  0.58093  0.22564  1.0000
  C   C1568     1.0  0.66200  0.97154  0.19970  1.0000
  C   C1569     1.0  0.65897  0.60203  0.19241  1.0000
  H   H1580     1.0  0.66129  0.81743  0.17713  1.0000
  H   H1581     1.0  0.82371  0.58584  0.18929  1.0000
  C   C1570     1.0  0.68295  0.59171  0.19291  1.0000
  C   C1571     1.0  0.70127  0.60266  0.18461  1.0000
  C   C1572     1.0  0.69547  0.62377  0.17575  1.0000
  H   H1582     1.0  0.67821  0.51034  0.07625  1.0000
  H   H1583     1.0  0.68723  0.57547  0.19979  1.0000
  H   H1584     1.0  0.70956  0.63234  0.16930  1.0000
  H   H1585     1.0  0.69910  0.96605  0.19096  1.0000
  C   C1573     1.0  0.68007  0.57946  0.16181  1.0000
  H   H1586     1.0  0.73292  0.48313  0.17652  1.0000
  H   H1587     1.0  0.76932  0.65340  0.20683  1.0000
  S   S532      1.0  0.82328  0.54025  0.21439  1.0000
  H   H1588     1.0  0.69358  0.94152  0.17504  1.0000
  H   H1589     1.0  0.73641  0.58854  0.14779  1.0000
  C   C1574     1.0  0.68961  0.60920  0.98008  1.0000
  C   C1575     1.0  0.78121  0.63879  0.20274  1.0000
  H   H1590     1.0  0.78063  0.59173  0.18806  1.0000
  Fe  Fe267     1.0  0.74646  0.50987  0.21746  1.0000
  C   C1576     1.0  0.65709  0.54336  0.99358  1.0000
  H   H1591     1.0  0.85399  0.59413  0.20043  1.0000
  C   C1577     1.0  0.67153  0.63384  0.17509  1.0000
  C   C1578     1.0  0.69390  0.50365  0.08144  1.0000
  N   N134      1.0  0.66753  0.59718  0.15386  1.0000
  C   C1579     1.0  0.66386  0.50037  0.10181  1.0000
  H   H1592     1.0  0.70530  0.48946  0.07618  1.0000
  H   H1593     1.0  0.85562  0.62190  0.18890  1.0000
  C   C1580     1.0  0.71709  0.59067  0.14927  1.0000
  H   H1594     1.0  0.72187  0.48855  0.01539  1.0000
  C   C1581     1.0  0.70416  0.60841  0.14106  1.0000
  C   C1582     1.0  0.80571  0.63541  0.20306  1.0000
  N   N135      1.0  0.82067  0.61652  0.19831  1.0000
  S   S533      1.0  0.75340  0.54710  0.21658  1.0000
  C   C1583     1.0  0.78759  0.60405  0.19229  1.0000
  C   C1584     1.0  0.82407  0.56357  0.22302  1.0000
  H   H1595     1.0  0.67084  0.56847  0.17018  1.0000
  C   C1585     1.0  0.66419  0.83630  0.17497  1.0000
  N   N136      1.0  0.68670  0.49406  0.09555  1.0000
  H   H1596     1.0  0.67372  0.87709  0.17901  1.0000
  H   H1597     1.0  0.84990  0.62130  0.20674  1.0000
  H   H1598     1.0  0.75317  0.62519  0.19701  1.0000
  H   H1599     1.0  0.66731  0.65016  0.16828  1.0000
  H   H1600     1.0  0.70051  0.61205  0.98683  1.0000
  C   C1586     1.0  0.84632  0.61337  0.19855  1.0000
  H   H1601     1.0  0.68372  0.83640  0.17246  1.0000
  H   H1602     1.0  0.77214  0.94399  0.22403  1.0000
  C   C1587     1.0  0.66691  0.60332  0.98501  1.0000
  H   H1603     1.0  0.78728  0.57958  0.22311  1.0000
  H   H1604     1.0  0.86127  0.55221  0.22460  1.0000
  C   C1588     1.0  0.84576  0.56560  0.22652  1.0000
  C   C1589     1.0  0.68306  0.48266  0.99607  1.0000
  H   H1605     1.0  0.70397  0.51849  0.08052  1.0000
  C   C1590     1.0  0.69122  0.48938  0.00633  1.0000
  C   C1591     1.0  0.71520  0.48278  0.00769  1.0000
  H   H1606     1.0  0.67906  0.50012  0.01304  1.0000
  H   H1607     1.0  0.82884  0.50905  0.97864  1.0000
  H   H1608     1.0  0.66466  0.48860  0.99458  1.0000
  H   H1609     1.0  0.66009  0.60134  0.99564  1.0000
  H   H1610     1.0  0.84043  0.79928  0.22648  1.0000
  H   H1611     1.0  0.65571  0.89872  0.19771  1.0000
  H   H1612     1.0  0.65579  0.84519  0.16613  1.0000
  Fe  Fe268     1.0  0.76298  0.53566  0.45032  1.0000
  S   S534      1.0  0.78866  0.54882  0.43209  1.0000
  S   S535      1.0  0.72513  0.53641  0.44802  1.0000
  S   S536      1.0  0.75279  0.55589  0.46751  1.0000
  C   C1592     1.0  0.97270  0.71707  0.26197  1.0000
  C   C1593     1.0  0.83371  0.79547  0.23708  1.0000
  Fe  Fe269     1.0  0.88907  0.52883  0.35170  1.0000
  C   C1594     1.0  0.95542  0.72847  0.25416  1.0000
  S   S537      1.0  0.89605  0.56580  0.34254  1.0000
  S   S538      1.0  0.68818  0.58748  0.46667  1.0000
  C   C1595     1.0  0.84659  0.88603  0.35205  1.0000
  C   C1596     1.0  0.97675  0.66742  0.24680  1.0000
  S   S539      1.0  0.90179  0.51098  0.37093  1.0000
  Fe  Fe270     1.0  0.86112  0.88722  0.28899  1.0000
  S   S540      1.0  0.87558  0.90221  0.26793  1.0000
  S   S541      1.0  0.84433  0.91360  0.30278  1.0000
  Fe  Fe271     1.0  0.86976  0.83602  0.28323  1.0000
  S   S542      1.0  0.88537  0.84743  0.26193  1.0000
  S   S543      1.0  0.86360  0.79815  0.29204  1.0000
  Fe  Fe272     1.0  0.90438  0.87027  0.27009  1.0000
  S   S544      1.0  0.94339  0.87215  0.26251  1.0000
  Fe  Fe273     1.0  0.85486  0.87804  0.26208  1.0000
  S   S545      1.0  0.83051  0.88436  0.24664  1.0000
  S   S546      1.0  0.89109  0.85658  0.29156  1.0000
  S   S547      1.0  0.83822  0.86541  0.28308  1.0000
  Fe  Fe274     1.0  0.85162  0.63811  0.28044  1.0000
  S   S548      1.0  0.86985  0.61249  0.26669  1.0000
  S   S549      1.0  0.83163  0.62213  0.30006  1.0000
  Fe  Fe275     1.0  0.86694  0.68147  0.26087  1.0000
  S   S550      1.0  0.88610  0.65874  0.24548  1.0000
  S   S551      1.0  0.86967  0.72105  0.25502  1.0000
  Fe  Fe276     1.0  0.85420  0.63944  0.25069  1.0000
  H   H1613     1.0  0.75838  0.48682  0.43491  1.0000
  Fe  Fe277     1.0  0.89981  0.63385  0.26288  1.0000
  S   S552      1.0  0.93728  0.61574  0.26541  1.0000
  S   S553      1.0  0.83401  0.66426  0.26477  1.0000
  S   S554      1.0  0.88253  0.65751  0.27788  1.0000
  N   N137      1.0  0.94638  0.68989  0.27404  1.0000
  S   S555      1.0  0.89254  0.92705  0.34953  1.0000
  H   H1614     1.0  0.93493  0.96693  0.30605  1.0000
  H   H1615     1.0  0.92071  0.94212  0.31523  1.0000
  H   H1616     1.0  0.77163  0.55271  0.39752  1.0000
  H   H1617     1.0  0.81456  0.97097  0.24539  1.0000
  C   C1597     1.0  0.86041  0.86474  0.34894  1.0000
  H   H1618     1.0  0.83581  0.83645  0.26329  1.0000
  C   C1598     1.0  0.82802  0.89694  0.34505  1.0000
  H   H1619     1.0  0.83493  0.83058  0.24047  1.0000
  C   C1599     1.0  0.96036  0.63314  0.26024  1.0000
  C   C1600     1.0  0.95815  0.65381  0.25067  1.0000
  H   H1620     1.0  0.81143  0.78200  0.27496  1.0000
  H   H1621     1.0  0.94226  0.65911  0.24610  1.0000
  H   H1622     1.0  0.97154  0.82949  0.28614  1.0000
  C   C1601     1.0  0.81542  0.91363  0.24217  1.0000
  C   C1602     1.0  0.82120  0.93293  0.24633  1.0000
  C   C1603     1.0  0.80959  0.95614  0.24232  1.0000
  H   H1623     1.0  0.80425  0.97621  0.40628  1.0000
  H   H1624     1.0  0.83492  0.93004  0.25246  1.0000
  S   S556      1.0  0.83197  0.63193  0.23640  1.0000
  C   C1604     1.0  0.86026  0.91877  0.31439  1.0000
  C   C1605     1.0  0.85182  0.93868  0.32072  1.0000
  C   C1606     1.0  0.86272  0.94218  0.33096  1.0000
  C   C1607     1.0  0.88161  0.92532  0.33519  1.0000
  C   C1608     1.0  0.89055  0.90578  0.32859  1.0000
  C   C1609     1.0  0.88011  0.90267  0.31805  1.0000
  H   H1625     1.0  0.83646  0.95119  0.31790  1.0000
  C   C1610     1.0  0.93343  0.72066  0.25653  1.0000
  H   H1626     1.0  0.90522  0.89272  0.33185  1.0000
  H   H1627     1.0  0.88673  0.88730  0.31320  1.0000
  C   C1611     1.0  0.86708  0.77613  0.28183  1.0000
  C   C1612     1.0  0.86114  0.75351  0.28756  1.0000
  C   C1613     1.0  0.86260  0.73605  0.27959  1.0000
  C   C1614     1.0  0.86996  0.74114  0.26579  1.0000
  C   C1615     1.0  0.87643  0.76354  0.26013  1.0000
  C   C1616     1.0  0.87501  0.78092  0.26808  1.0000
  H   H1628     1.0  0.85502  0.74957  0.29819  1.0000
  H   H1629     1.0  0.85745  0.71891  0.28408  1.0000
  H   H1630     1.0  0.88210  0.76768  0.24946  1.0000
  H   H1631     1.0  0.87976  0.79813  0.26351  1.0000
  C   C1617     1.0  0.87800  0.58128  0.33079  1.0000
  C   C1618     1.0  0.88665  0.59901  0.32074  1.0000
  C   C1619     1.0  0.87250  0.61168  0.31129  1.0000
  C   C1620     1.0  0.84940  0.60710  0.31206  1.0000
  C   C1621     1.0  0.84065  0.58953  0.32220  1.0000
  C   C1622     1.0  0.85506  0.57639  0.33145  1.0000
  H   H1632     1.0  0.90437  0.60288  0.32023  1.0000
  H   H1633     1.0  0.87937  0.62518  0.30351  1.0000
  H   H1634     1.0  0.82278  0.58597  0.32284  1.0000
  H   H1635     1.0  0.84818  0.56294  0.33927  1.0000
  H   H1636     1.0  0.95304  0.51288  0.37012  1.0000
  Fe  Fe278     1.0  0.92184  0.48286  0.35921  1.0000
  C   C1623     1.0  0.80771  0.52888  0.42236  1.0000
  C   C1624     1.0  0.80858  0.50427  0.42605  1.0000
  H   H1637     1.0  0.90322  0.93621  0.28931  1.0000
  C   C1625     1.0  0.83489  0.49811  0.40514  1.0000
  Fe  Fe279     1.0  0.89411  0.96423  0.35231  1.0000
  H   H1638     1.0  0.81758  0.91380  0.34717  1.0000
  H   H1639     1.0  0.85074  0.89444  0.35960  1.0000
  C   C1626     1.0  0.78571  0.94098  0.23027  1.0000
  Fe  Fe280     1.0  0.71508  0.55344  0.46645  1.0000
  C   C1627     1.0  0.80639  0.60090  0.23086  1.0000
  H   H1640     1.0  0.95775  0.89708  0.30255  1.0000
  S   S557      1.0  0.76625  0.49984  0.46345  1.0000
  H   H1641     1.0  0.97262  0.50331  0.33332  1.0000
  H   H1642     1.0  0.95947  0.49563  0.40143  1.0000
  H   H1643     1.0  0.86656  0.83836  0.33626  1.0000
  H   H1644     1.0  0.95920  0.74307  0.24615  1.0000
  H   H1645     1.0  0.93831  0.55961  0.29090  1.0000
  H   H1646     1.0  0.98321  0.91959  0.32452  1.0000
  H   H1647     1.0  0.84966  0.84612  0.31566  1.0000
  C   C1628     1.0  0.87205  0.96277  0.28775  1.0000
  C   C1629     1.0  0.77394  0.48461  0.40531  1.0000
  C   C1630     1.0  0.96500  0.89394  0.29250  1.0000
  C   C1631     1.0  0.83477  0.52265  0.40165  1.0000
  C   C1632     1.0  0.92160  0.49482  0.40561  1.0000
  H   H1648     1.0  0.93018  0.67561  0.29341  1.0000
  C   C1633     1.0  0.98601  0.93848  0.32202  1.0000
  C   C1634     1.0  0.78545  0.51951  0.39033  1.0000
  H   H1649     1.0  0.80386  0.83935  0.26548  1.0000
  C   C1635     1.0  0.98113  0.62641  0.26605  1.0000
  H   H1650     1.0  0.79597  0.52756  0.38130  1.0000
  C   C1636     1.0  0.92911  0.70136  0.26664  1.0000
  H   H1651     1.0  0.74969  0.53380  0.41860  1.0000
  C   C1637     1.0  0.82842  0.77287  0.24295  1.0000
  C   C1638     1.0  0.81724  0.78607  0.26427  1.0000
  H   H1652     1.0  0.94331  0.53909  0.33838  1.0000
  N   N138      1.0  0.82300  0.80799  0.25848  1.0000
  C   C1639     1.0  0.81983  0.76820  0.25659  1.0000
  H   H1653     1.0  0.67147  0.49581  0.45178  1.0000
  C   C1640     1.0  0.83071  0.81300  0.24504  1.0000
  H   H1654     1.0  0.79816  0.48365  0.38660  1.0000
  C   C1641     1.0  0.82121  0.53799  0.41027  1.0000
  N   N139      1.0  0.76033  0.49863  0.41406  1.0000
  H   H1655     1.0  0.82455  0.86888  0.31348  1.0000
  H   H1656     1.0  0.82072  0.84190  0.32531  1.0000
  C   C1642     1.0  0.82217  0.48894  0.41747  1.0000
  H   H1657     1.0  0.84460  0.52987  0.39219  1.0000
  H   H1658     1.0  0.86508  0.58744  0.23378  1.0000
  H   H1659     1.0  0.88512  0.48910  0.40834  1.0000
  H   H1660     1.0  0.80972  0.89551  0.32920  1.0000
  H   H1661     1.0  0.98438  0.94492  0.31136  1.0000
  H   H1662     1.0  0.97503  0.68324  0.23928  1.0000
  H   H1663     1.0  0.93219  0.88553  0.28902  1.0000
  C   C1643     1.0  0.76784  0.50593  0.25425  1.0000
  C   C1644     1.0  0.79185  0.96030  0.23427  1.0000
  C   C1645     1.0  0.77176  0.53362  0.39940  1.0000
  H   H1664     1.0  0.98297  0.61045  0.27346  1.0000
  C   C1646     1.0  0.78772  0.51151  0.24495  1.0000
  C   C1647     1.0  0.95998  0.88273  0.27197  1.0000
  C   C1648     1.0  0.98737  0.51719  0.37362  1.0000
  C   C1649     1.0  0.95051  0.88738  0.28486  1.0000
  S   S558      1.0  0.91078  0.50164  0.33982  1.0000
  N   N140      1.0  0.90249  0.96396  0.30024  1.0000
  C   C1650     1.0  0.82055  0.82651  0.26660  1.0000
  H   H1665     1.0  0.82067  0.55703  0.40740  1.0000
  H   H1666     1.0  0.85573  0.95728  0.33603  1.0000
  C   C1651     1.0  0.83288  0.85513  0.32106  1.0000
  C   C1652     1.0  0.85560  0.85479  0.33872  1.0000
  N   N141      1.0  0.83769  0.86590  0.33170  1.0000
  C   C1653     1.0  0.82371  0.88651  0.33488  1.0000
  Fe  Fe281     1.0  0.72738  0.50154  0.46207  1.0000
  H   H1667     1.0  0.93653  0.94153  0.29838  1.0000
  C   C1654     1.0  0.84794  0.58549  0.23183  1.0000
  H   H1668     1.0  0.82067  0.81886  0.27731  1.0000
  H   H1669     1.0  0.87510  0.85637  0.35423  1.0000
  N   N142      1.0  0.87603  0.54161  0.30443  1.0000
  C   C1655     1.0  0.87805  0.56314  0.29638  1.0000
  C   C1656     1.0  0.89598  0.52613  0.30746  1.0000
  C   C1657     1.0  0.90048  0.56991  0.29149  1.0000
  C   C1658     1.0  0.91870  0.53228  0.30267  1.0000
  C   C1659     1.0  0.92089  0.55440  0.29468  1.0000
  C   C1660     1.0  0.85253  0.53486  0.31003  1.0000
  H   H1670     1.0  0.86228  0.57543  0.29386  1.0000
  H   H1671     1.0  0.89430  0.50891  0.31366  1.0000
  H   H1672     1.0  0.90208  0.58722  0.28538  1.0000
  H   H1673     1.0  0.93443  0.52000  0.30520  1.0000
  H   H1674     1.0  0.85102  0.51813  0.30681  1.0000
  H   H1675     1.0  0.85015  0.53171  0.32111  1.0000
  H   H1676     1.0  0.83779  0.54898  0.30693  1.0000
  S   S559      1.0  0.85585  0.51206  0.35595  1.0000
  C   C1661     1.0  0.92478  0.95305  0.30522  1.0000
  C   C1662     1.0  0.94156  0.66943  0.28443  1.0000
  C   C1663     1.0  0.81020  0.49841  0.24639  1.0000
  C   C1664     1.0  0.74794  0.48769  0.42686  1.0000
  H   H1677     1.0  0.75516  0.48296  0.27209  1.0000
  C   C1665     1.0  0.79760  0.91771  0.23415  1.0000
  Fe  Fe282     1.0  0.87087  0.49121  0.37407  1.0000
  C   C1666     1.0  0.75936  0.52280  0.41133  1.0000
  C   C1667     1.0  0.97168  0.50526  0.36964  1.0000
  H   H1678     1.0  0.75018  0.51563  0.25300  1.0000
  S   S560      1.0  0.91204  0.97039  0.36835  1.0000
  H   H1679     1.0  0.86491  0.95368  0.28160  1.0000
  H   H1680     1.0  0.71638  0.96483  0.47313  1.0000
  H   H1681     1.0  0.93231  0.65756  0.28076  1.0000
  H   H1682     1.0  0.91201  0.69537  0.26833  1.0000
  C   C1668     1.0  0.96204  0.53823  0.33876  1.0000
  H   H1683     1.0  0.79854  0.49709  0.43544  1.0000
  C   C1669     1.0  0.94536  0.48607  0.40100  1.0000
  C   C1670     1.0  0.96783  0.69774  0.27196  1.0000
  H   H1684     1.0  0.95834  0.65831  0.28720  1.0000
  H   H1685     1.0  0.81633  0.75047  0.26128  1.0000
  H   H1686     1.0  0.91988  0.72923  0.25047  1.0000
  C   C1671     1.0  0.82843  0.60366  0.23363  1.0000
  C   C1672     1.0  0.89373  0.95294  0.29218  1.0000
  H   H1687     1.0  0.82569  0.50269  0.23912  1.0000
  H   H1688     1.0  0.78576  0.52591  0.23660  1.0000
  C   C1673     1.0  0.98379  0.88507  0.26671  1.0000
  C   C1674     1.0  0.78661  0.49484  0.39329  1.0000
  C   C1675     1.0  0.96968  0.55695  0.34245  1.0000
  H   H1689     1.0  0.66406  0.95003  0.46480  1.0000
  H   H1690     1.0  0.72997  0.49814  0.42949  1.0000
  H   H1691     1.0  0.83144  0.75878  0.23704  1.0000
  H   H1692     1.0  0.66210  0.63199  0.47314  1.0000
  H   H1693     1.0  0.97172  0.94878  0.32847  1.0000
  H   H1694     1.0  0.97514  0.82301  0.26301  1.0000
  S   S561      1.0  0.72692  0.48972  0.23617  1.0000
  H   H1695     1.0  0.98062  0.53394  0.37714  1.0000
  H   H1696     1.0  0.66624  0.91839  0.46728  1.0000
  H   H1697     1.0  0.95684  0.57243  0.34483  1.0000
  H   H1698     1.0  0.96116  0.97529  0.38355  1.0000
  C   C1676     1.0  0.98015  0.48355  0.36512  1.0000
  H   H1699     1.0  0.98177  0.68844  0.27761  1.0000
  C   C1677     1.0  0.90369  0.48244  0.40482  1.0000
  H   H1700     1.0  0.91702  0.51120  0.40972  1.0000
  C   C1678     1.0  0.77078  0.48734  0.26499  1.0000
  H   H1701     1.0  0.98760  0.84345  0.30214  1.0000
  C   C1679     1.0  0.97852  0.51828  0.33580  1.0000
  H   H1702     1.0  0.79116  0.61479  0.23225  1.0000
  Fe  Fe283     1.0  0.87853  0.48320  0.34536  1.0000
  S   S562      1.0  0.97430  0.97951  0.35135  1.0000
  H   H1703     1.0  0.79304  0.90288  0.23086  1.0000
  C   C1680     1.0  0.98900  0.89574  0.28730  1.0000
  C   C1681     1.0  0.98890  0.82856  0.27984  1.0000
  H   H1704     1.0  0.72274  0.60516  0.47671  1.0000
  C   C1682     1.0  0.70205  0.95957  0.48092  1.0000
  Fe  Fe284     1.0  0.73551  0.92407  0.61679  1.0000
  S   S563      1.0  0.75711  0.88874  0.62351  1.0000
  H   H1705     1.0  0.77817  0.71758  0.62389  1.0000
  Fe  Fe285     1.0  0.73356  0.91094  0.58973  1.0000
  S   S564      1.0  0.75599  0.87526  0.59419  1.0000
  Fe  Fe286     1.0  0.73300  0.87275  0.61429  1.0000
  S   S565      1.0  0.71500  0.84039  0.62316  1.0000
  Fe  Fe287     1.0  0.77783  0.89457  0.60272  1.0000
  S   S566      1.0  0.81784  0.88679  0.59894  1.0000
  S   S567      1.0  0.70914  0.90788  0.60946  1.0000
  S   S568      1.0  0.75765  0.93053  0.59643  1.0000
  Fe  Fe288     1.0  0.70066  0.67745  0.62417  1.0000
  S   S569      1.0  0.73960  0.67518  0.61594  1.0000
  S   S570      1.0  0.68972  0.66441  0.64627  1.0000
  Fe  Fe289     1.0  0.68586  0.69938  0.59683  1.0000
  S   S571      1.0  0.72405  0.69793  0.58681  1.0000
  Fe  Fe290     1.0  0.75320  0.52016  0.48064  1.0000
  Fe  Fe291     1.0  0.73025  0.66158  0.59917  1.0000
  S   S572      1.0  0.74694  0.62610  0.59298  1.0000
  Fe  Fe292     1.0  0.72919  0.71201  0.60458  1.0000
  S   S573      1.0  0.75078  0.74199  0.60160  1.0000
  S   S574      1.0  0.69152  0.66196  0.60801  1.0000
  S   S575      1.0  0.69078  0.71536  0.61403  1.0000
  H   H1706     1.0  0.67973  0.92754  0.63670  1.0000
  Fe  Fe293     1.0  0.74569  0.54895  0.69382  1.0000
  S   S576      1.0  0.77576  0.55975  0.70080  1.0000
  S   S577      1.0  0.73878  0.56327  0.67256  1.0000
  Fe  Fe294     1.0  0.78840  0.52025  0.70607  1.0000
  H   H1707     1.0  0.69136  0.62305  0.50094  1.0000
  H   H1708     1.0  0.98077  0.58983  0.56042  1.0000
  S   S578      1.0  0.75979  0.50966  0.69800  1.0000
  H   H1709     1.0  0.83825  0.95578  0.54722  1.0000
  C   C1683     1.0  0.79458  0.94552  0.62082  1.0000
  C   C1684     1.0  0.97445  0.53789  0.55191  1.0000
  Fe  Fe295     1.0  0.86777  0.56730  0.56041  1.0000
  S   S579      1.0  0.88985  0.56588  0.54008  1.0000
  S   S580      1.0  0.85543  0.60301  0.56712  1.0000
  Fe  Fe296     1.0  0.87027  0.51402  0.56681  1.0000
  S   S581      1.0  0.89187  0.50848  0.54687  1.0000
  Fe  Fe297     1.0  0.91316  0.53478  0.55035  1.0000
  S   S582      1.0  0.95378  0.52394  0.54684  1.0000
  Fe  Fe298     1.0  0.86656  0.53992  0.53837  1.0000
  S   S583      1.0  0.85224  0.54643  0.51862  1.0000
  S   S584      1.0  0.89276  0.53829  0.57082  1.0000
  S   S585      1.0  0.84324  0.54338  0.55814  1.0000
  H   H1710     1.0  0.75049  0.60040  0.48297  1.0000
  C   C1685     1.0  0.68677  0.91732  0.64577  1.0000
  C   C1686     1.0  0.96820  0.56066  0.55532  1.0000
  H   H1711     1.0  0.95000  0.56979  0.55553  1.0000
  C   C1687     1.0  0.78984  0.52228  0.50564  1.0000
  C   C1688     1.0  0.79436  0.51509  0.51884  1.0000
  C   C1689     1.0  0.81336  0.52216  0.52299  1.0000
  C   C1690     1.0  0.82810  0.53664  0.51398  1.0000
  C   C1691     1.0  0.82340  0.54406  0.50083  1.0000
  S   S586      1.0  0.65676  0.85989  0.53010  1.0000
  C   C1692     1.0  0.80036  0.95592  0.55321  1.0000
  H   H1712     1.0  0.81672  0.51620  0.53312  1.0000
  H   H1713     1.0  0.83466  0.55524  0.49376  1.0000
  H   H1714     1.0  0.83654  0.87706  0.56922  1.0000
  H   H1715     1.0  0.79565  0.97501  0.55017  1.0000
  C   C1693     1.0  0.71353  0.93773  0.51633  1.0000
  C   C1694     1.0  0.73309  0.98098  0.66029  1.0000
  H   H1716     1.0  0.90924  0.51245  0.61395  1.0000
  S   S587      1.0  0.67225  0.89993  0.49549  1.0000
  H   H1717     1.0  0.74504  0.56234  0.49632  1.0000
  C   C1695     1.0  0.87364  0.51317  0.61043  1.0000
  H   H1718     1.0  0.70609  0.91675  0.54573  1.0000
  H   H1719     1.0  0.72621  0.67385  0.66030  1.0000
  H   H1720     1.0  0.69718  0.55149  0.66172  1.0000
  H   H1721     1.0  0.87424  0.52828  0.60236  1.0000
  H   H1722     1.0  0.69109  0.75481  0.57477  1.0000
  C   C1696     1.0  0.69380  0.91033  0.55436  1.0000
  S   S588      1.0  0.65961  0.71792  0.58294  1.0000
  H   H1723     1.0  0.66736  0.84235  0.56764  1.0000
  C   C1697     1.0  0.89243  0.48425  0.62699  1.0000
  S   S589      1.0  0.71440  0.51867  0.48054  1.0000
  C   C1698     1.0  0.77762  0.61979  0.58686  1.0000
  C   C1699     1.0  0.79215  0.63741  0.58373  1.0000
  C   C1700     1.0  0.81628  0.63191  0.57804  1.0000
  C   C1701     1.0  0.82588  0.60884  0.57545  1.0000
  C   C1702     1.0  0.81145  0.59115  0.57890  1.0000
  C   C1703     1.0  0.78739  0.59663  0.58457  1.0000
  H   H1724     1.0  0.78472  0.65532  0.58548  1.0000
  H   H1725     1.0  0.82742  0.64565  0.57544  1.0000
  H   H1726     1.0  0.81872  0.57329  0.57714  1.0000
  H   H1727     1.0  0.77624  0.58291  0.58703  1.0000
  S   S590      1.0  0.76556  0.51281  0.50099  1.0000
  C   C1704     1.0  0.85322  0.48211  0.62418  1.0000
  H   H1728     1.0  0.72529  0.53961  0.51679  1.0000
  C   C1705     1.0  0.72900  0.57104  0.50191  1.0000
  C   C1706     1.0  0.83486  0.90846  0.58979  1.0000
  C   C1707     1.0  0.70565  0.63762  0.65385  1.0000
  C   C1708     1.0  0.72331  0.62351  0.64627  1.0000
  C   C1709     1.0  0.73430  0.60130  0.65233  1.0000
  C   C1710     1.0  0.72803  0.59313  0.66605  1.0000
  C   C1711     1.0  0.71128  0.60782  0.67377  1.0000
  C   C1712     1.0  0.70003  0.62994  0.66767  1.0000
  H   H1729     1.0  0.72793  0.62933  0.63565  1.0000
  H   H1730     1.0  0.74722  0.59003  0.64628  1.0000
  H   H1731     1.0  0.70616  0.60164  0.68432  1.0000
  H   H1732     1.0  0.84870  0.91245  0.55458  1.0000
  H   H1733     1.0  0.80622  0.93836  0.58937  1.0000
  H   H1734     1.0  0.73804  0.73761  0.63268  1.0000
  C   C1713     1.0  0.80444  0.53694  0.49668  1.0000
  N   N143      1.0  0.71974  0.59423  0.49763  1.0000
  C   C1714     1.0  0.72460  0.81362  0.61653  1.0000
  C   C1715     1.0  0.70981  0.79605  0.61964  1.0000
  C   C1716     1.0  0.71724  0.77430  0.61482  1.0000
  C   C1717     1.0  0.73977  0.76973  0.60705  1.0000
  C   C1718     1.0  0.75440  0.78741  0.60380  1.0000
  C   C1719     1.0  0.74682  0.80929  0.60844  1.0000
  H   H1735     1.0  0.69258  0.79925  0.62588  1.0000
  H   H1736     1.0  0.70574  0.76091  0.61738  1.0000
  H   H1737     1.0  0.77185  0.78407  0.59781  1.0000
  H   H1738     1.0  0.75848  0.82254  0.60606  1.0000
  C   C1720     1.0  0.73947  0.96026  0.66920  1.0000
  C   C1721     1.0  0.74439  0.93821  0.66473  1.0000
  C   C1722     1.0  0.74200  0.93674  0.65167  1.0000
  C   C1723     1.0  0.66220  0.89348  0.57669  1.0000
  H   H1739     1.0  0.77967  0.93621  0.62532  1.0000
  S   S591      1.0  0.72128  0.54769  0.71372  1.0000
  H   H1740     1.0  0.74938  0.92211  0.67156  1.0000
  H   H1741     1.0  0.74517  0.91958  0.64852  1.0000
  H   H1742     1.0  0.86459  0.97241  0.59476  1.0000
  N   N144      1.0  0.81257  0.90720  0.56157  1.0000
  H   H1743     1.0  0.69979  0.60642  0.61205  1.0000
  C   C1724     1.0  0.67324  0.90241  0.55271  1.0000
  C   C1725     1.0  0.67873  0.60777  0.63677  1.0000
  C   C1726     1.0  0.83005  0.92058  0.55568  1.0000
  H   H1744     1.0  0.80586  0.87475  0.57444  1.0000
  H   H1745     1.0  0.70785  0.92340  0.47731  1.0000
  H   H1746     1.0  0.68819  0.95571  0.53074  1.0000
  C   C1727     1.0  0.66363  0.57697  0.49219  1.0000
  H   H1747     1.0  0.85454  0.93514  0.61100  1.0000
  C   C1728     1.0  0.69716  0.56898  0.52080  1.0000
  H   H1748     1.0  0.70601  0.91075  0.64266  1.0000
  C   C1729     1.0  0.73106  0.60723  0.48511  1.0000
  H   H1749     1.0  0.81949  0.87196  0.55743  1.0000
  C   C1730     1.0  0.82424  0.94513  0.55146  1.0000
  H   H1750     1.0  0.71648  0.57716  0.61523  1.0000
  S   S592      1.0  0.82679  0.50116  0.70205  1.0000
  C   C1731     1.0  0.68287  0.90108  0.57832  1.0000
  H   H1751     1.0  0.68634  0.90059  0.58823  1.0000
  H   H1752     1.0  0.83856  0.50822  0.60866  1.0000
  C   C1732     1.0  0.76851  0.64744  0.65288  1.0000
  C   C1733     1.0  0.85351  0.50200  0.61403  1.0000
  H   H1753     1.0  0.68644  0.64081  0.67362  1.0000
  C   C1734     1.0  0.69926  0.60497  0.50459  1.0000
  H   H1754     1.0  0.78576  0.64568  0.65643  1.0000
  H   H1755     1.0  0.67720  0.90185  0.64953  1.0000
  C   C1735     1.0  0.77462  0.68444  0.63752  1.0000
  S   S593      1.0  0.72663  0.95610  0.62749  1.0000
  H   H1756     1.0  0.77090  0.63637  0.64498  1.0000
  Fe  Fe299     1.0  0.73857  0.50946  0.71860  1.0000
  C   C1736     1.0  0.67149  0.78507  0.56360  1.0000
  C   C1737     1.0  0.82499  0.93246  0.58634  1.0000
  C   C1738     1.0  0.69551  0.82646  0.58624  1.0000
  C   C1739     1.0  0.76695  0.70813  0.63208  1.0000
  C   C1740     1.0  0.86403  0.94131  0.57493  1.0000
  C   C1741     1.0  0.67864  0.92907  0.49341  1.0000
  C   C1742     1.0  0.70366  0.95695  0.52294  1.0000
  C   C1743     1.0  0.72957  0.70694  0.64714  1.0000
  H   H1757     1.0  0.89245  0.91131  0.57518  1.0000
  C   C1744     1.0  0.71047  0.59414  0.61918  1.0000
  H   H1758     1.0  0.79206  0.67563  0.63347  1.0000
  H   H1759     1.0  0.70567  0.92154  0.51890  1.0000
  N   N145      1.0  0.81889  0.61614  0.54116  1.0000
  C   C1745     1.0  0.79818  0.62352  0.54924  1.0000
  C   C1746     1.0  0.82142  0.59590  0.53582  1.0000
  C   C1747     1.0  0.77969  0.60998  0.55262  1.0000
  C   C1748     1.0  0.80325  0.58200  0.53893  1.0000
  C   C1749     1.0  0.78237  0.58899  0.54748  1.0000
  C   C1750     1.0  0.83814  0.63049  0.53770  1.0000
  H   H1760     1.0  0.79609  0.63961  0.55345  1.0000
  H   H1761     1.0  0.83770  0.59021  0.52925  1.0000
  H   H1762     1.0  0.76367  0.61549  0.55944  1.0000
  H   H1763     1.0  0.80560  0.56572  0.53485  1.0000
  H   H1764     1.0  0.76837  0.57808  0.55019  1.0000
  H   H1765     1.0  0.83752  0.64121  0.54557  1.0000
  H   H1766     1.0  0.85585  0.61880  0.53706  1.0000
  H   H1767     1.0  0.83679  0.64250  0.52803  1.0000
  N   N146      1.0  0.76015  0.67241  0.64760  1.0000
  H   H1768     1.0  0.75560  0.64006  0.66142  1.0000
  C   C1751     1.0  0.73791  0.68338  0.65245  1.0000
  H   H1769     1.0  0.78325  0.50370  0.52587  1.0000
  H   H1770     1.0  0.67424  0.62420  0.63003  1.0000
  H   H1771     1.0  0.77269  0.98007  0.61851  1.0000
  N   N147      1.0  0.83268  0.96934  0.60886  1.0000
  H   H1772     1.0  0.71165  0.71531  0.65075  1.0000
  C   C1752     1.0  0.73034  0.97948  0.64730  1.0000
  C   C1753     1.0  0.85922  0.90110  0.58585  1.0000
  C   C1754     1.0  0.78908  0.91754  0.56303  1.0000
  C   C1755     1.0  0.74428  0.71938  0.63695  1.0000
  H   H1773     1.0  0.66439  0.58279  0.66925  1.0000
  C   C1756     1.0  0.74241  0.96104  0.50258  1.0000
  N   N148      1.0  0.68391  0.93205  0.65612  1.0000
  H   H1774     1.0  0.71808  0.55690  0.63842  1.0000
  C   C1757     1.0  0.87365  0.91735  0.57834  1.0000
  C   C1758     1.0  0.69383  0.78800  0.58040  1.0000
  S   S594      1.0  0.88312  0.96041  0.56501  1.0000
  H   H1775     1.0  0.72644  0.60203  0.61928  1.0000
  C   C1759     1.0  0.69855  0.90988  0.56717  1.0000
  C   C1760     1.0  0.69134  0.56702  0.65465  1.0000
  H   H1776     1.0  0.82083  0.91362  0.62152  1.0000
  C   C1761     1.0  0.83968  0.94900  0.57907  1.0000
  C   C1762     1.0  0.68817  0.93529  0.67825  1.0000
  C   C1763     1.0  0.67700  0.95618  0.65330  1.0000
  N   N149      1.0  0.69669  0.59036  0.63268  1.0000
  H   H1777     1.0  0.72900  0.62650  0.48552  1.0000
  C   C1764     1.0  0.68944  0.92155  0.66840  1.0000
  S   S595      1.0  0.72389  0.92083  0.56904  1.0000
  H   H1778     1.0  0.66959  0.90292  0.54281  1.0000
  C   C1765     1.0  0.68782  0.59262  0.51635  1.0000
  C   C1766     1.0  0.73300  0.93976  0.50607  1.0000
  H   H1779     1.0  0.80131  0.54260  0.48649  1.0000
  C   C1767     1.0  0.73422  0.95733  0.64305  1.0000
  H   H1780     1.0  0.66547  0.77448  0.55775  1.0000
  H   H1781     1.0  0.68385  0.82617  0.59614  1.0000
  H   H1782     1.0  0.67133  0.60111  0.52172  1.0000
  H   H1783     1.0  0.71418  0.81931  0.58782  1.0000
  C   C1768     1.0  0.81770  0.93289  0.61880  1.0000
  Fe  Fe300     1.0  0.75233  0.55656  0.72102  1.0000
  H   H1784     1.0  0.98840  0.59235  0.52684  1.0000
  H   H1785     1.0  0.86700  0.88262  0.58850  1.0000
  N   N150      1.0  0.68746  0.81226  0.57828  1.0000
  C   C1769     1.0  0.79069  0.97019  0.61693  1.0000
  H   H1786     1.0  0.70515  0.77926  0.58774  1.0000
  C   C1770     1.0  0.81894  0.88147  0.56579  1.0000
  C   C1771     1.0  0.66499  0.94560  0.50114  1.0000
  C   C1772     1.0  0.71789  0.55808  0.51355  1.0000
  C   C1773     1.0  0.69723  0.93611  0.48334  1.0000
  S   S596      1.0  0.73814  0.96074  0.68637  1.0000
  C   C1774     1.0  0.66919  0.59461  0.48130  1.0000
  H   H1787     1.0  0.83208  0.96747  0.57639  1.0000
  C   C1775     1.0  0.70315  0.57023  0.64145  1.0000
  C   C1776     1.0  0.68597  0.77406  0.57309  1.0000
  H   H1788     1.0  0.77517  0.90689  0.56746  1.0000
  C   C1777     1.0  0.83668  0.94517  0.61282  1.0000
  C   C1778     1.0  0.68829  0.97613  0.48860  1.0000
  H   H1789     1.0  0.67234  0.55874  0.49213  1.0000
  H   H1790     1.0  0.69517  0.84532  0.58121  1.0000
  H   H1791     1.0  0.69569  0.90254  0.67048  1.0000
  H   H1792     1.0  0.68817  0.55904  0.52974  1.0000
  C   C1779     1.0  0.89326  0.50428  0.61693  1.0000
  C   C1780     1.0  0.78263  0.94204  0.55898  1.0000
  C   C1781     1.0  0.66972  0.96909  0.49867  1.0000
  H   H1793     1.0  0.76394  0.95011  0.56039  1.0000
  H   H1794     1.0  0.74027  0.92517  0.50060  1.0000
  C   C1782     1.0  0.67301  0.58466  0.65890  1.0000
  H   H1795     1.0  0.67367  0.96468  0.64338  1.0000
  C   C1783     1.0  0.66659  0.60517  0.64991  1.0000
  C   C1784     1.0  0.98570  0.57199  0.55809  1.0000
  C   C1785     1.0  0.65722  0.89428  0.56391  1.0000
  C   C1786     1.0  0.67284  0.82316  0.56918  1.0000
  H   H1796     1.0  0.90703  0.48972  0.58332  1.0000
  C   C1787     1.0  0.66481  0.80977  0.56164  1.0000
  H   H1797     1.0  0.69368  0.92716  0.68777  1.0000
  C   C1788     1.0  0.65788  0.61825  0.48156  1.0000
  H   H1798     1.0  0.75718  0.96264  0.49439  1.0000
  C   C1789     1.0  0.71348  0.97799  0.51917  1.0000
  N   N151      1.0  0.73279  0.97971  0.50923  1.0000
  H   H1799     1.0  0.68124  0.97082  0.68282  1.0000
  C   C1790     1.0  0.67541  0.97043  0.66295  1.0000
  C   C1791     1.0  0.68116  0.95988  0.67547  1.0000
  S   S597      1.0  0.85900  0.48340  0.58246  1.0000
  C   C1792     1.0  0.85295  0.98171  0.60268  1.0000
  C   C1793     1.0  0.70032  0.56272  0.76950  1.0000
  H   H1800     1.0  0.68054  0.97091  0.85725  1.0000
  Fe  Fe301     1.0  0.74906  0.51481  0.95985  1.0000
  H   H1801     1.0  0.82464  0.61725  0.74761  1.0000
  N   N152      1.0  0.69060  0.57363  0.85843  1.0000
  Fe  Fe302     1.0  0.72196  0.52230  0.93614  1.0000
  S   S598      1.0  0.70014  0.55639  0.94140  1.0000
  S   S599      1.0  0.71927  0.50791  0.91764  1.0000
  Fe  Fe303     1.0  0.73478  0.56473  0.94454  1.0000
  S   S600      1.0  0.74200  0.60236  0.93640  1.0000
  Fe  Fe304     1.0  0.69674  0.53762  0.96275  1.0000
  S   S601      1.0  0.75719  0.53154  0.93819  1.0000
  S   S602      1.0  0.71595  0.50253  0.95730  1.0000
  Fe  Fe305     1.0  0.89449  0.89840  0.87785  1.0000
  S   S603      1.0  0.87242  0.87323  0.89175  1.0000
  S   S604      1.0  0.88266  0.91353  0.85788  1.0000
  Fe  Fe306     1.0  0.92638  0.89783  0.89833  1.0000
  S   S605      1.0  0.90571  0.87280  0.91362  1.0000
  S   S606      1.0  0.95602  0.90551  0.90764  1.0000
  Fe  Fe307     1.0  0.90746  0.85317  0.89690  1.0000
  S   S607      1.0  0.92090  0.81361  0.89986  1.0000
  Fe  Fe308     1.0  0.87277  0.89561  0.90706  1.0000
  S   S608      1.0  0.83801  0.90410  0.92112  1.0000
  S   S609      1.0  0.92989  0.87673  0.88187  1.0000
  S   S610      1.0  0.89293  0.92218  0.89290  1.0000
  Fe  Fe309     1.0  0.86116  0.65421  0.90454  1.0000
  S   S611      1.0  0.88657  0.64783  0.88571  1.0000
  S   S612      1.0  0.84894  0.62105  0.91769  1.0000
  Fe  Fe310     1.0  0.86362  0.70726  0.89857  1.0000
  S   S613      1.0  0.88934  0.70466  0.87958  1.0000
  S   S614      1.0  0.84805  0.74420  0.90281  1.0000
  Fe  Fe311     1.0  0.86568  0.68107  0.87594  1.0000
  S   S615      1.0  0.85314  0.68989  0.85600  1.0000
  Fe  Fe312     1.0  0.90803  0.67188  0.89120  1.0000
  S   S616      1.0  0.94840  0.66074  0.88805  1.0000
  S   S617      1.0  0.83860  0.68572  0.89425  1.0000
  S   S618      1.0  0.88398  0.67621  0.91072  1.0000
  N   N153      1.0  0.71494  0.54697  0.76207  1.0000
  C   C1794     1.0  0.80801  0.93805  0.93441  1.0000
  S   S619      1.0  0.74091  0.58456  0.73466  1.0000
  C   C1795     1.0  0.87375  0.76863  0.93216  1.0000
  Fe  Fe313     1.0  0.76281  0.89238  0.82277  1.0000
  S   S620      1.0  0.79765  0.89777  0.80949  1.0000
  S   S621      1.0  0.74868  0.92181  0.83497  1.0000
  Fe  Fe314     1.0  0.76557  0.84214  0.81628  1.0000
  S   S622      1.0  0.80070  0.84416  0.80291  1.0000
  S   S623      1.0  0.74783  0.80891  0.82168  1.0000
  Fe  Fe315     1.0  0.81052  0.86025  0.81877  1.0000
  S   S624      1.0  0.84224  0.84587  0.82949  1.0000
  Fe  Fe316     1.0  0.78398  0.88167  0.79502  1.0000
  S   S625      1.0  0.78517  0.89279  0.77257  1.0000
  S   S626      1.0  0.77636  0.85565  0.83268  1.0000
  S   S627      1.0  0.74806  0.87881  0.80776  1.0000
  Fe  Fe317     1.0  0.72878  0.64525  0.81254  1.0000
  S   S628      1.0  0.75790  0.61390  0.81452  1.0000
  S   S629      1.0  0.69049  0.63950  0.81920  1.0000
  Fe  Fe318     1.0  0.76361  0.68066  0.80172  1.0000
  S   S630      1.0  0.79531  0.65125  0.80256  1.0000
  S   S631      1.0  0.77202  0.71803  0.79285  1.0000
  Fe  Fe319     1.0  0.77433  0.63048  0.79419  1.0000
  S   S632      1.0  0.79216  0.60676  0.77878  1.0000
  Fe  Fe320     1.0  0.77567  0.63755  0.82267  1.0000
  S   S633      1.0  0.79171  0.62257  0.84136  1.0000
  S   S634      1.0  0.74412  0.66084  0.79168  1.0000
  S   S635      1.0  0.74516  0.66794  0.82238  1.0000
  C   C1796     1.0  0.75725  0.78272  0.81444  1.0000
  C   C1797     1.0  0.77396  0.78202  0.80272  1.0000
  C   C1798     1.0  0.77876  0.76182  0.79641  1.0000
  C   C1799     1.0  0.76739  0.74190  0.80191  1.0000
  C   C1800     1.0  0.75150  0.74221  0.81394  1.0000
  C   C1801     1.0  0.74637  0.76257  0.82012  1.0000
  H   H1802     1.0  0.78262  0.79731  0.79829  1.0000
  H   H1803     1.0  0.79118  0.76172  0.78714  1.0000
  H   H1804     1.0  0.74258  0.72705  0.81828  1.0000
  H   H1805     1.0  0.73345  0.76289  0.82919  1.0000
  C   C1802     1.0  0.75587  0.59070  0.74662  1.0000
  C   C1803     1.0  0.77878  0.57901  0.74845  1.0000
  C   C1804     1.0  0.78960  0.58402  0.75841  1.0000
  C   C1805     1.0  0.77760  0.60062  0.76665  1.0000
  C   C1806     1.0  0.75476  0.61239  0.76477  1.0000
  C   C1807     1.0  0.74402  0.60750  0.75477  1.0000
  H   H1806     1.0  0.80731  0.57486  0.75977  1.0000
  H   H1807     1.0  0.74536  0.62526  0.77101  1.0000
  H   H1808     1.0  0.72628  0.61662  0.75343  1.0000
  H   H1809     1.0  0.96032  0.76424  0.88222  1.0000
  C   C1808     1.0  0.72546  0.97358  0.81284  1.0000
  C   C1809     1.0  0.77485  0.94223  0.77014  1.0000
  C   C1810     1.0  0.77817  0.92229  0.76392  1.0000
  C   C1811     1.0  0.77625  0.92573  0.75033  1.0000
  C   C1812     1.0  0.77126  0.94881  0.74298  1.0000
  H   H1810     1.0  0.80844  0.65600  0.88509  1.0000
  H   H1811     1.0  0.77643  0.93986  0.78055  1.0000
  H   H1812     1.0  0.77886  0.91045  0.74541  1.0000
  H   H1813     1.0  0.78904  0.64385  0.74613  1.0000
  C   C1813     1.0  0.83649  0.67077  0.85197  1.0000
  C   C1814     1.0  0.82376  0.67881  0.84131  1.0000
  C   C1815     1.0  0.81004  0.66408  0.83798  1.0000
  C   C1816     1.0  0.80909  0.64116  0.84527  1.0000
  C   C1817     1.0  0.82199  0.63302  0.85587  1.0000
  C   C1818     1.0  0.83572  0.64780  0.85920  1.0000
  H   H1814     1.0  0.82451  0.69647  0.83558  1.0000
  H   H1815     1.0  0.80022  0.67046  0.82977  1.0000
  H   H1816     1.0  0.82158  0.61518  0.86139  1.0000
  H   H1817     1.0  0.84609  0.64135  0.86715  1.0000
  C   C1819     1.0  0.96892  0.67142  0.89509  1.0000
  C   C1820     1.0  0.96240  0.69175  0.90111  1.0000
  H   H1818     1.0  0.94398  0.70038  0.90242  1.0000
  C   C1821     1.0  0.87227  0.89445  0.84976  1.0000
  C   C1822     1.0  0.87605  0.86974  0.85382  1.0000
  C   C1823     1.0  0.86698  0.85504  0.84743  1.0000
  C   C1824     1.0  0.85350  0.86494  0.83720  1.0000
  C   C1825     1.0  0.84950  0.88967  0.83325  1.0000
  C   C1826     1.0  0.85918  0.90432  0.83937  1.0000
  H   H1819     1.0  0.88628  0.86192  0.86174  1.0000
  H   H1820     1.0  0.87048  0.83594  0.85043  1.0000
  H   H1821     1.0  0.83940  0.89746  0.82528  1.0000
  H   H1822     1.0  0.85635  0.92338  0.83610  1.0000
  C   C1827     1.0  0.90111  0.79475  0.89899  1.0000
  C   C1828     1.0  0.87724  0.80375  0.89789  1.0000
  C   C1829     1.0  0.86118  0.78811  0.89863  1.0000
  C   C1830     1.0  0.86899  0.76346  0.90030  1.0000
  C   C1831     1.0  0.89303  0.75448  0.90089  1.0000
  C   C1832     1.0  0.90900  0.77011  0.90039  1.0000
  H   H1823     1.0  0.87100  0.82266  0.89688  1.0000
  H   H1824     1.0  0.84257  0.79507  0.89819  1.0000
  H   H1825     1.0  0.89908  0.73544  0.90232  1.0000
  H   H1826     1.0  0.92731  0.76302  0.90154  1.0000
  H   H1827     1.0  0.80901  0.69069  0.77611  1.0000
  C   C1833     1.0  0.82074  0.66114  0.76531  1.0000
  C   C1834     1.0  0.79883  0.91521  0.85404  1.0000
  H   H1828     1.0  0.70688  0.54088  0.86881  1.0000
  H   H1829     1.0  0.76063  0.61825  0.89685  1.0000
  H   H1830     1.0  0.74764  0.55129  0.86260  1.0000
  H   H1831     1.0  0.79592  0.92519  0.93737  1.0000
  H   H1832     1.0  0.78812  0.56608  0.74223  1.0000
  C   C1835     1.0  0.97880  0.84704  0.90433  1.0000
  C   C1836     1.0  0.69522  0.50495  0.89768  1.0000
  C   C1837     1.0  0.78275  0.68691  0.76490  1.0000
  C   C1838     1.0  0.77174  0.60782  0.93191  1.0000
  C   C1839     1.0  0.79091  0.58972  0.93434  1.0000
  C   C1840     1.0  0.81443  0.59432  0.93026  1.0000
  C   C1841     1.0  0.81902  0.61694  0.92360  1.0000
  C   C1842     1.0  0.79984  0.63516  0.92132  1.0000
  C   C1843     1.0  0.77626  0.63061  0.92552  1.0000
  H   H1833     1.0  0.78762  0.57216  0.93933  1.0000
  H   H1834     1.0  0.82921  0.58020  0.93208  1.0000
  H   H1835     1.0  0.80320  0.65268  0.91629  1.0000
  H   H1836     1.0  0.76149  0.64473  0.92369  1.0000
  C   C1844     1.0  0.67408  0.56494  0.82045  1.0000
  C   C1845     1.0  0.81858  0.94444  0.85995  1.0000
  H   H1837     1.0  0.66716  0.54798  0.86220  1.0000
  C   C1846     1.0  0.68424  0.61100  0.81909  1.0000
  C   C1847     1.0  0.70156  0.59368  0.81357  1.0000
  C   C1848     1.0  0.69648  0.57072  0.81427  1.0000
  H   H1838     1.0  0.83641  0.94443  0.86247  1.0000
  C   C1849     1.0  0.82374  0.90251  0.87062  1.0000
  H   H1839     1.0  0.71881  0.59795  0.80871  1.0000
  H   H1840     1.0  0.71002  0.55727  0.81018  1.0000
  H   H1841     1.0  0.77002  0.95114  0.73251  1.0000
  C   C1850     1.0  0.69438  0.51521  0.90901  1.0000
  C   C1851     1.0  0.67391  0.53092  0.91314  1.0000
  H   H1842     1.0  0.73907  0.56959  0.78866  1.0000
  C   C1852     1.0  0.73216  0.56293  0.78135  1.0000
  C   C1853     1.0  0.71656  0.60192  0.84755  1.0000
  C   C1854     1.0  0.71043  0.94858  0.84769  1.0000
  C   C1855     1.0  0.71792  0.93041  0.83999  1.0000
  C   C1856     1.0  0.70094  0.92055  0.83591  1.0000
  C   C1857     1.0  0.67650  0.92907  0.83947  1.0000
  S   S636      1.0  0.72922  0.54915  0.96631  1.0000
  H   H1843     1.0  0.70661  0.90650  0.82997  1.0000
  H   H1844     1.0  0.89380  0.82069  0.92972  1.0000
  C   C1858     1.0  0.73260  0.56381  0.85929  1.0000
  C   C1859     1.0  0.83020  0.93228  0.92637  1.0000
  N   N154      1.0  0.72153  0.82189  0.79042  1.0000
  C   C1860     1.0  0.70656  0.84173  0.79398  1.0000
  C   C1861     1.0  0.74247  0.82400  0.78178  1.0000
  C   C1862     1.0  0.71209  0.86446  0.78859  1.0000
  C   C1863     1.0  0.74874  0.84647  0.77636  1.0000
  C   C1864     1.0  0.73326  0.86679  0.77967  1.0000
  C   C1865     1.0  0.71446  0.79846  0.79572  1.0000
  H   H1845     1.0  0.69025  0.84000  0.80107  1.0000
  H   H1846     1.0  0.75456  0.80830  0.77909  1.0000
  H   H1847     1.0  0.70030  0.88017  0.79149  1.0000
  H   H1848     1.0  0.76558  0.84824  0.76973  1.0000
  H   H1849     1.0  0.73792  0.88431  0.77553  1.0000
  H   H1850     1.0  0.72882  0.78370  0.79297  1.0000
  H   H1851     1.0  0.71046  0.79589  0.80681  1.0000
  H   H1852     1.0  0.69839  0.79696  0.79182  1.0000
  N   N155      1.0  0.81681  0.76672  0.84341  1.0000
  C   C1866     1.0  0.82121  0.74734  0.85306  1.0000
  C   C1867     1.0  0.82438  0.78756  0.84355  1.0000
  C   C1868     1.0  0.83384  0.74840  0.86308  1.0000
  C   C1869     1.0  0.83714  0.78921  0.85339  1.0000
  C   C1870     1.0  0.84185  0.76947  0.86323  1.0000
  C   C1871     1.0  0.80264  0.76560  0.83336  1.0000
  H   H1853     1.0  0.81516  0.73080  0.85301  1.0000
  H   H1854     1.0  0.82066  0.80305  0.83600  1.0000
  H   H1855     1.0  0.83755  0.73286  0.87061  1.0000
  H   H1856     1.0  0.84337  0.80572  0.85328  1.0000
  H   H1857     1.0  0.85167  0.77041  0.87097  1.0000
  H   H1858     1.0  0.78335  0.77061  0.83718  1.0000
  H   H1859     1.0  0.80737  0.77798  0.82394  1.0000
  H   H1860     1.0  0.80576  0.74741  0.83080  1.0000
  C   C1872     1.0  0.83250  0.62801  0.75284  1.0000
  S   S637      1.0  0.66115  0.53914  0.97679  1.0000
  H   H1861     1.0  0.71614  0.61525  0.96247  1.0000
  S   S638      1.0  0.77258  0.49505  0.97512  1.0000
  H   H1862     1.0  0.66335  0.92154  0.83625  1.0000
  C   C1873     1.0  0.70956  0.55799  0.86271  1.0000
  C   C1874     1.0  0.76840  0.96878  0.74912  1.0000
  C   C1875     1.0  0.84972  0.77762  0.93176  1.0000
  C   C1876     1.0  0.83998  0.49680  0.95987  1.0000
  C   C1877     1.0  0.69378  0.59556  0.85119  1.0000
  H   H1863     1.0  0.71900  0.61916  0.84157  1.0000
  H   H1864     1.0  0.70394  0.55417  0.74319  1.0000
  C   C1878     1.0  0.73610  0.58588  0.85158  1.0000
  C   C1879     1.0  0.77016  0.96535  0.76274  1.0000
  H   H1865     1.0  0.75003  0.52759  0.75770  1.0000
  C   C1880     1.0  0.70865  0.57086  0.77928  1.0000
  H   H1866     1.0  0.78288  0.88822  0.84913  1.0000
  H   H1867     1.0  0.97234  0.86042  0.89601  1.0000
  H   H1868     1.0  0.86100  0.85246  0.93254  1.0000
  H   H1869     1.0  0.81903  0.95355  0.84943  1.0000
  H   H1870     1.0  0.83829  0.61584  0.76178  1.0000
  S   S639      1.0  0.66812  0.53613  0.82100  1.0000
  C   C1881     1.0  0.66903  0.94748  0.84706  1.0000
  C   C1882     1.0  0.94797  0.73805  0.87432  1.0000
  H   H1871     1.0  0.78439  0.96454  0.94496  1.0000
  H   H1872     1.0  0.65869  0.57096  0.87240  1.0000
  H   H1873     1.0  0.67293  0.53894  0.92182  1.0000
  C   C1883     1.0  0.79442  0.89201  0.85521  1.0000
  C   C1884     1.0  0.98594  0.90831  0.90060  1.0000
  C   C1885     1.0  0.67760  0.48845  0.73611  1.0000
  C   C1886     1.0  0.69837  0.61100  0.96645  1.0000
  H   H1874     1.0  0.83752  0.65606  0.76908  1.0000
  H   H1875     1.0  0.86290  0.94480  0.91659  1.0000
  N   N156      1.0  0.81517  0.64827  0.75698  1.0000
  H   H1876     1.0  0.68062  0.96584  0.81493  1.0000
  H   H1877     1.0  0.83104  0.84701  0.93523  1.0000
  C   C1887     1.0  0.78316  0.58512  0.90226  1.0000
  H   H1878     1.0  0.82323  0.80908  0.93030  1.0000
  H   H1879     1.0  0.80251  0.85560  0.86474  1.0000
  C   C1888     1.0  0.70584  0.53922  0.75168  1.0000
  H   H1880     1.0  0.68215  0.56929  0.76779  1.0000
  C   C1889     1.0  0.81988  0.87904  0.87194  1.0000
  H   H1881     1.0  0.77880  0.65666  0.89428  1.0000
  C   C1890     1.0  0.79227  0.64739  0.88701  1.0000
  C   C1891     1.0  0.79372  0.65433  0.75250  1.0000
  C   C1892     1.0  0.68425  0.60683  0.95792  1.0000
  C   C1893     1.0  0.83919  0.97120  0.92700  1.0000
  S   S640      1.0  0.76798  0.51834  0.72705  1.0000
  H   H1882     1.0  0.80469  0.95465  0.86658  1.0000
  H   H1883     1.0  0.94126  0.70875  0.86640  1.0000
  C   C1894     1.0  0.84183  0.80216  0.93093  1.0000
  H   H1884     1.0  0.79052  0.92914  0.84695  1.0000
  C   C1895     1.0  0.74700  0.54698  0.77369  1.0000
  N   N157      1.0  0.66203  0.60100  0.96285  1.0000
  C   C1896     1.0  0.80470  0.68070  0.76934  1.0000
  C   C1897     1.0  0.80527  0.87377  0.86408  1.0000
  H   H1885     1.0  0.88022  0.74974  0.93232  1.0000
  C   C1898     1.0  0.68608  0.95705  0.85124  1.0000
  H   H1886     1.0  0.82683  0.50981  0.95503  1.0000
  H   H1887     1.0  0.92933  0.74613  0.87603  1.0000
  N   N158      1.0  0.81378  0.92009  0.86148  1.0000
  H   H1888     1.0  0.76836  0.57544  0.90633  1.0000
  H   H1889     1.0  0.82868  0.86500  0.87875  1.0000
  C   C1899     1.0  0.96534  0.74814  0.87783  1.0000
  N   N159      1.0  0.79742  0.62191  0.89233  1.0000
  C   C1900     1.0  0.88960  0.78420  0.93165  1.0000
  H   H1890     1.0  0.75388  0.59065  0.84875  1.0000
  H   H1891     1.0  0.97491  0.71772  0.90915  1.0000
  H   H1892     1.0  0.72251  0.95534  0.81254  1.0000
  H   H1893     1.0  0.71090  0.49270  0.89443  1.0000
  H   H1894     1.0  0.84782  0.85057  0.91854  1.0000
  H   H1895     1.0  0.97619  0.82916  0.90317  1.0000
  C   C1901     1.0  0.84895  0.84298  0.92915  1.0000
  H   H1896     1.0  0.76997  0.70173  0.76824  1.0000
  N   N160      1.0  0.85746  0.81727  0.93057  1.0000
  C   C1902     1.0  0.82045  0.61080  0.89270  1.0000
  H   H1897     1.0  0.67871  0.60827  0.84808  1.0000
  C   C1903     1.0  0.82537  0.58656  0.89788  1.0000
  H   H1898     1.0  0.84826  0.63435  0.74613  1.0000
  C   C1904     1.0  0.88115  0.80864  0.93071  1.0000
  H   H1899     1.0  0.69706  0.58348  0.78511  1.0000
  H   H1900     1.0  0.83554  0.90643  0.87653  1.0000
  C   C1905     1.0  0.84573  0.94901  0.92268  1.0000
  H   H1901     1.0  0.81009  0.55502  0.90708  1.0000
  C   C1906     1.0  0.80657  0.57368  0.90271  1.0000
  C   C1907     1.0  0.67574  0.51005  0.89067  1.0000
  C   C1908     1.0  0.80143  0.96034  0.93873  1.0000
  C   C1909     1.0  0.73811  0.53927  0.76395  1.0000
  H   H1902     1.0  0.83751  0.76571  0.93156  1.0000
  H   H1903     1.0  0.68821  0.53352  0.75563  1.0000
  H   H1904     1.0  0.78550  0.64996  0.87743  1.0000
  H   H1905     1.0  0.83516  0.62079  0.88947  1.0000
  H   H1906     1.0  0.72350  0.95621  0.85091  1.0000
  C   C1910     1.0  0.77890  0.60937  0.89694  1.0000
  C   C1911     1.0  0.77713  0.67361  0.75648  1.0000
  H   H1907     1.0  0.84362  0.57814  0.89859  1.0000
  H   H1908     1.0  0.76551  0.54131  0.77496  1.0000
  C   C1912     1.0  0.66169  0.60531  0.82507  1.0000
  C   C1913     1.0  0.95464  0.71723  0.86881  1.0000
  H   H1909     1.0  0.98061  0.91697  0.88012  1.0000
  H   H1910     1.0  0.67653  0.50173  0.88212  1.0000
  C   C1914     1.0  0.97997  0.70155  0.90490  1.0000
  H   H1911     1.0  0.75988  0.67794  0.75323  1.0000
  H   H1912     1.0  0.98348  0.69015  0.86299  1.0000
  H   H1913     1.0  0.71800  0.52392  0.74777  1.0000
  H   H1914     1.0  0.90851  0.77752  0.93133  1.0000
  H   H1915     1.0  0.69137  0.60804  0.94736  1.0000
  C   C1915     1.0  0.81706  0.97702  0.93503  1.0000
  H   H1916     1.0  0.96735  0.85203  0.91362  1.0000
  C   C1916     1.0  0.97865  0.70673  0.86691  1.0000
  H   H1917     1.0  0.68032  0.50615  0.73108  1.0000
  H   H1918     1.0  0.76810  0.98066  0.76756  1.0000
  C   C1917     1.0  0.84123  0.49628  0.97325  1.0000
  H   H1919     1.0  0.73897  0.97130  0.81946  1.0000
  C   C1918     1.0  0.66661  0.56723  0.86221  1.0000
  C   C1919     1.0  0.65667  0.58231  0.82583  1.0000
  C   C1920     1.0  0.65812  0.48290  0.80595  1.0000
  H   H1920     1.0  0.73279  0.98178  0.80260  1.0000
