data_image0
_chemical_formula_structural       CSHCHSFeS2FeS2FeSFeS3FeS2C3HC2FeCSFeS2HSH3SHC2H2C7H4C2SHC7H5CH2CHNH2C3NC5HC3FeNCHC3NH2C2HCFeH2C3SC2HC2H4NHCFeH5CH2CH6C2H2CH2S2CH2CH3CH2CH2C2HSC2H2C2HFeS2H2CSHSFeS2FeS2FeS2FeS2FeSFeS3CH4C8H6C2HC4H3C6H5FeSHCH3SC2H3SH4FeHC2FeHCFeHNC6H5CFeCHC2N2CH2CHC3NCHC3HC2HSNCHC2SH3SHCH3C9HC3H4C2H2C2H2FeS2FeS2FeSFeCS2HCSH2NFeS2FeSHC2HC3HCH2CHFeS2HSHC2HN2C7H4NH3C7H4C2H6FeSHCSHC2SC2SH3S2C2H3C2H2C2H4FeHFeCH2C2HC2H3C3SHC2HSNC6SCHCSCHCHFeH3SHC2SH2C2H6FeS2FeS2H2NCSHFeS2FeS2FeSFeCS2FeS2C8H4NC2H2C6H4CH3C3H7CH4C2SCH3C3FeC2SHCHCH3SC3HNC7HCHCSH2NCHCSC2H7C2SHCHCNC2HCS2CHSHC3H2C2HCNH2C2H2CFeH2SH2Fe2CHC2Fe2HC2HCFe2SFeS2FeS2FeSFeS3NS2FeS2CHCHCH2C6H4C6H7C2H2C4SC3H3CNCHCH2CH2CHCH5C2FeCFeHC3SH5CHCHSHNC2H2SC3HC2HC2NCSNCFeH2CH5CH2C3HFeHC2HSCSCH3C2FeNC2HC3HCHCHCHC2HC2H2FeS2FeS2FeS2H4FeS2FeS2FeSFeS3HCHC10H6C6H5C2H2CHC4SCH4NH6NHCSHCNC6H2CHNSCH4SFeCH2C2H2C2HNC4HSHC2H2SC2HCH3C4HCHCS2HNFeH6CHFeC2SHC2HSC2H2C2HC3NHCFe2HSFeS2FeS2FeSFeHS2FeH2C3FeS2CH5FeS2H4NHC6H4C6H6SC2H3CFeC2S2CHCHCH4CH2C2HSCSNC6H3C2HC2NC5HS2H7CH7NCHC4HSH2NHSC3H3C3HSHCSHFe2HSCSHCHCH3C3FeCH2CNCHC2HCHCH2CH2FeS2FeHSH2NH2CFeS2FeS2FeS2FeCFeS3H2FeC2HC6H8C2FeC7H4C2H2CH2CH2CSC2SCH2C2H2CNC6HCH2SNHSC3HCHCHCHCH3CH2C3H3C2FeSH3CHSN2HC2H3C3H2SC2H3C2SCH3S2C2HC2FeC2FeC2H2NFeS2FeS2FeS2FeS2FeSFeS3HC2H2CFeHSH2C6HC3HCSCHC2HC2H4C6H6C6H4CH2SH4CH2C3SH3CH2C2H5CFeHNHCHCH2CHC2NC3HC3HCSHCHC3H2SCSHCHCFeHCH2C4HC2SCHCNHNSH3NFeCH2C2H5NCSH2SCHFeS2FeH3C2FeS2H3CH2FeS2FeS2FeS2FeSFeS3C2H2CNCH2CH6CH4SC3HCH2FeC6H4CHC9H4C2HC5SCH3CH2C2NC6H2CH6NCH2CHCHCHC4NSCNHCH2CSHCHNSH3CH3CHSHC2HCH3CH3C2HCH2FeS3Fe2SCS2C3FeS2FeS2FeS2FeSFeS3H3CHC6H5FeHCNHCHC6H4SH2FeHCHC4H2CH5SHNC5H4C2SH2CHNHCNSC3HCHCSH3CHC4HCNC4HC2H2CH4CHSHCHFeCHC5HC2FeCHCH3CH2CNCSHCFeS2FeS2FeS2FeS2FeSFeS3C3HC2FeS2HC2HC6H4FeHC7H4C2HFe2H2CHCH2CHSCHNC6H8NCHCHC2HCH2CH3NC4HCH2C3SHCHCHC2HNHCHCHCHSH4CHSC3HFeH2CHSFeCHSHCSC5H2FeC2H4FeCHFeS2CFeS2FeS2FeS2FeSFeS3CSH2C2FeS2C2HC6H5C2H4C6H4CHC3H3NC2HCHCHCH2C3HCH3CFeH4CH10SHCHSHCH2NC5H5CHC3SCHNH2SHC2H3CH2CSC2SNC2NCH2CHC3HCHC2NCH3C4H2CHCHC2SCHNH2C2FeSHSHCHCFeS2FeS2FeSFeS3FeS2FeS2HC2HNC6H4C6H4CHCH3CHSH3C4H2CH2C6NH2CNCHC2HCH3CSFeH4CFeC2HSHCHCHC2H2C2H2C2HCHCNH3C2H2SCHSC3NCHFeHCFeCHC2HSHCSCHCH2C2SHCHSHFeHC2HSCH4CHC2SFeS2FeHSFeS2FeSHFeS2FeSFeS3CHC2HC6H8CHC6H5C3HCH3SH2CH3C2HNC3HCHNSC2HFeHCH3NC5NSHC2NSFeH2SHSHC3H2CHC2H2CHC2SHCHC2HC3FeH4N2H3C2HSC4H2FeCHSC3H3CS2CFeC5FeH3CH2CHFeS2FeSFe2S2FeSFeS3FeS2H2C3HFeHSHCSFeH2NSFeC7H4CSH2CHSC6H4S2H2FeHSHCH3CHC3FeHCH2CHCH2CH2SCHCH4SNH2C5H2SH2C3H3SHNCH4NC4NC3FeCHC4H4SHSCHC3SHC4
_chemical_formula_sum              "C1104 S368 H1104 Fe184 N92"
_cell_length_a       59.0406
_cell_length_b       59.8068
_cell_length_c       59.2153
_cell_angle_alpha    88.9624
_cell_angle_beta     88.3455
_cell_angle_gamma    89.1412

_space_group_name_H-M_alt    "P 1"
_space_group_IT_number       1

loop_
  _space_group_symop_operation_xyz
  'x, y, z'

loop_
  _atom_site_type_symbol
  _atom_site_label
  _atom_site_symmetry_multiplicity
  _atom_site_fract_x
  _atom_site_fract_y
  _atom_site_fract_z
  _atom_site_occupancy
  C   C1        1.0  0.13929  0.17886  0.09888  1.0000
  S   S1        1.0  0.49594  0.02014  0.22410  1.0000
  H   H1        1.0  0.18602  0.16928  0.10935  1.0000
  C   C2        1.0  0.15400  0.19724  0.26105  1.0000
  H   H2        1.0  0.13672  0.17475  0.11669  1.0000
  S   S2        1.0  0.48903  0.19311  0.34436  1.0000
  Fe  Fe1       1.0  0.19843  0.15381  0.15723  1.0000
  S   S3        1.0  0.20307  0.15469  0.19461  1.0000
  S   S4        1.0  0.21275  0.12890  0.13150  1.0000
  Fe  Fe2       1.0  0.17180  0.19818  0.15688  1.0000
  S   S5        1.0  0.17481  0.20247  0.19468  1.0000
  S   S6        1.0  0.15019  0.22246  0.13587  1.0000
  Fe  Fe3       1.0  0.21109  0.19114  0.18946  1.0000
  S   S7        1.0  0.24383  0.20136  0.20602  1.0000
  Fe  Fe4       1.0  0.16635  0.16586  0.19741  1.0000
  S   S8        1.0  0.14624  0.15141  0.22781  1.0000
  S   S9        1.0  0.20873  0.18965  0.15152  1.0000
  S   S10       1.0  0.16106  0.16219  0.16017  1.0000
  Fe  Fe5       1.0  0.01986  0.12113  0.27613  1.0000
  S   S11       1.0  0.02711  0.10957  0.31190  1.0000
  S   S12       1.0  0.03972  0.13769  0.24657  1.0000
  C   C3        1.0  0.17330  0.22717  0.09435  1.0000
  C   C4        1.0  0.17506  0.23471  0.07166  1.0000
  C   C5        1.0  0.14663  0.19174  0.05407  1.0000
  H   H3        1.0  0.44037  0.14134  0.45527  1.0000
  C   C6        1.0  0.46189  0.06911  0.22693  1.0000
  C   C7        1.0  0.16227  0.17803  0.06531  1.0000
  Fe  Fe6       1.0  0.47156  0.20544  0.37602  1.0000
  C   C8        1.0  0.01012  0.18301  0.41446  1.0000
  S   S13       1.0  0.47599  0.17261  0.39474  1.0000
  Fe  Fe7       1.0  0.29211  0.01636  0.12934  1.0000
  S   S14       1.0  0.27472  0.04271  0.15194  1.0000
  S   S15       1.0  0.31924  0.02287  0.10247  1.0000
  H   H4        1.0  0.11522  0.21035  0.05737  1.0000
  S   S16       1.0  0.01739  0.04339  0.31487  1.0000
  H   H5        1.0  0.47940  0.14509  0.46926  1.0000
  H   H6        1.0  0.02551  0.14491  0.37374  1.0000
  H   H7        1.0  0.31893  0.09867  0.16597  1.0000
  S   S17       1.0  0.43906  0.22646  0.37947  1.0000
  H   H8        1.0  0.28340  0.21445  0.22934  1.0000
  C   C9        1.0  0.45188  0.06564  0.26660  1.0000
  C   C10       1.0  0.30081  0.09545  0.16300  1.0000
  H   H9        1.0  0.42501  0.04246  0.19556  1.0000
  H   H10       1.0  0.15011  0.19747  0.03683  1.0000
  C   C11       1.0  0.45477  0.13494  0.44544  1.0000
  C   C12       1.0  0.22860  0.10407  0.13751  1.0000
  C   C13       1.0  0.23819  0.09175  0.11948  1.0000
  C   C14       1.0  0.25187  0.07260  0.12350  1.0000
  C   C15       1.0  0.25600  0.06545  0.14565  1.0000
  C   C16       1.0  0.24618  0.07764  0.16365  1.0000
  C   C17       1.0  0.23263  0.09686  0.15965  1.0000
  H   H11       1.0  0.23521  0.09716  0.10228  1.0000
  H   H12       1.0  0.25936  0.06347  0.10947  1.0000
  H   H13       1.0  0.24921  0.07225  0.18086  1.0000
  H   H14       1.0  0.22535  0.10610  0.17369  1.0000
  C   C18       1.0  0.15427  0.23291  0.10775  1.0000
  C   C19       1.0  0.46519  0.07521  0.24927  1.0000
  S   S18       1.0  0.02051  0.19329  0.44043  1.0000
  H   H15       1.0  0.21710  0.23256  0.28720  1.0000
  C   C20       1.0  0.49512  0.12937  0.44012  1.0000
  C   C21       1.0  0.11653  0.14760  0.23249  1.0000
  C   C22       1.0  0.10880  0.13734  0.25283  1.0000
  C   C23       1.0  0.08545  0.13410  0.25743  1.0000
  C   C24       1.0  0.06946  0.14117  0.24174  1.0000
  C   C25       1.0  0.07719  0.15152  0.22143  1.0000
  C   C26       1.0  0.10055  0.15470  0.21680  1.0000
  H   H16       1.0  0.12096  0.13174  0.26510  1.0000
  H   H17       1.0  0.07984  0.12612  0.27311  1.0000
  H   H18       1.0  0.06502  0.15709  0.20916  1.0000
  H   H19       1.0  0.10616  0.16265  0.20111  1.0000
  H   H20       1.0  0.02582  0.13491  0.46500  1.0000
  C   C27       1.0  0.24872  0.22445  0.22377  1.0000
  H   H21       1.0  0.01656  0.17752  0.48789  1.0000
  H   H22       1.0  0.48095  0.05093  0.31936  1.0000
  C   C28       1.0  0.19278  0.18335  0.25479  1.0000
  H   H23       1.0  0.41982  0.03235  0.23506  1.0000
  N   N1        1.0  0.49182  0.11933  0.41992  1.0000
  H   H24       1.0  0.47291  0.07600  0.21367  1.0000
  H   H25       1.0  0.10862  0.19886  0.09764  1.0000
  C   C29       1.0  0.21028  0.21842  0.27848  1.0000
  C   C30       1.0  0.28430  0.12674  0.18421  1.0000
  C   C31       1.0  0.49378  0.10492  0.33278  1.0000
  N   N2        1.0  0.28757  0.11638  0.16393  1.0000
  C   C32       1.0  0.48849  0.06727  0.31770  1.0000
  C   C33       1.0  0.18693  0.21663  0.27559  1.0000
  C   C34       1.0  0.21621  0.18472  0.25722  1.0000
  C   C35       1.0  0.42273  0.22895  0.33572  1.0000
  C   C36       1.0  0.42018  0.23563  0.35819  1.0000
  H   H26       1.0  0.47913  0.19709  0.46094  1.0000
  C   C37       1.0  0.45155  0.12488  0.42471  1.0000
  C   C38       1.0  0.12702  0.19900  0.06562  1.0000
  C   C39       1.0  0.27905  0.12574  0.14463  1.0000
  Fe  Fe8       1.0  0.49589  0.16093  0.36375  1.0000
  N   N3        1.0  0.15836  0.17161  0.08737  1.0000
  C   C40       1.0  0.12327  0.19252  0.08816  1.0000
  H   H27       1.0  0.16724  0.14575  0.11096  1.0000
  C   C41       1.0  0.48413  0.08350  0.33444  1.0000
  C   C42       1.0  0.44272  0.04751  0.19852  1.0000
  C   C43       1.0  0.02328  0.16715  0.40231  1.0000
  N   N4        1.0  0.17847  0.19912  0.26404  1.0000
  H   H28       1.0  0.44679  0.06139  0.18644  1.0000
  H   H29       1.0  0.22757  0.17259  0.24927  1.0000
  C   C44       1.0  0.43546  0.05015  0.26146  1.0000
  C   C45       1.0  0.00894  0.13953  0.45967  1.0000
  H   H30       1.0  0.21521  0.23889  0.22198  1.0000
  C   C46       1.0  0.27220  0.14702  0.18554  1.0000
  Fe  Fe9       1.0  0.01028  0.22085  0.46582  1.0000
  H   H31       1.0  0.18611  0.16968  0.24530  1.0000
  H   H32       1.0  0.45475  0.06982  0.28403  1.0000
  C   C47       1.0  0.17538  0.15823  0.09930  1.0000
  C   C48       1.0  0.48933  0.19129  0.47483  1.0000
  C   C49       1.0  0.26675  0.14591  0.14539  1.0000
  S   S19       1.0  0.48761  0.12455  0.35473  1.0000
  C   C50       1.0  0.40810  0.23774  0.31920  1.0000
  C   C51       1.0  0.27009  0.22644  0.23346  1.0000
  H   H33       1.0  0.47860  0.08659  0.25329  1.0000
  C   C52       1.0  0.01516  0.15713  0.38269  1.0000
  C   C53       1.0  0.47666  0.13709  0.45328  1.0000
  H   H34       1.0  0.18655  0.21674  0.10142  1.0000
  H   H35       1.0  0.01179  0.11987  0.42940  1.0000
  H   H36       1.0  0.24314  0.20386  0.27086  1.0000
  H   H37       1.0  0.29426  0.08323  0.17591  1.0000
  N   N5        1.0  0.44542  0.05426  0.22196  1.0000
  H   H38       1.0  0.14809  0.18055  0.26717  1.0000
  C   C54       1.0  0.22495  0.20227  0.26931  1.0000
  Fe  Fe10      1.0  0.00608  0.07909  0.30411  1.0000
  H   H39       1.0  0.03987  0.16242  0.40824  1.0000
  H   H40       1.0  0.46775  0.10970  0.39581  1.0000
  H   H41       1.0  0.29959  0.08719  0.14639  1.0000
  H   H42       1.0  0.43603  0.21715  0.33105  1.0000
  H   H43       1.0  0.43465  0.12351  0.41819  1.0000
  C   C55       1.0  0.00785  0.01591  0.30862  1.0000
  H   H44       1.0  0.25932  0.15288  0.13021  1.0000
  H   H45       1.0  0.26951  0.15532  0.20159  1.0000
  C   C56       1.0  0.00488  0.16367  0.49256  1.0000
  H   H46       1.0  0.25394  0.17228  0.16684  1.0000
  H   H47       1.0  0.17778  0.17298  0.05642  1.0000
  H   H48       1.0  0.29099  0.11929  0.19951  1.0000
  H   H49       1.0  0.28115  0.11732  0.12861  1.0000
  H   H50       1.0  0.47318  0.07938  0.34883  1.0000
  H   H51       1.0  0.41030  0.23262  0.30183  1.0000
  C   C57       1.0  0.23172  0.24014  0.22927  1.0000
  C   C58       1.0  0.26342  0.15662  0.16597  1.0000
  H   H52       1.0  0.14406  0.21016  0.27043  1.0000
  H   H53       1.0  0.18667  0.14863  0.08752  1.0000
  C   C59       1.0  0.47038  0.11710  0.41211  1.0000
  H   H54       1.0  0.15009  0.19895  0.24284  1.0000
  H   H55       1.0  0.17571  0.22945  0.28250  1.0000
  S   S20       1.0  0.03530  0.22769  0.49325  1.0000
  S   S21       1.0  0.00116  0.08980  0.26805  1.0000
  C   C60       1.0  0.48586  0.24090  0.30216  1.0000
  H   H56       1.0  0.45412  0.03300  0.19479  1.0000
  H   H57       1.0  0.18976  0.22998  0.06140  1.0000
  C   C61       1.0  0.43242  0.04463  0.23890  1.0000
  H   H58       1.0  0.42543  0.04218  0.27487  1.0000
  H   H59       1.0  0.47743  0.22440  0.30248  1.0000
  H   H60       1.0  0.00218  0.11306  0.22337  1.0000
  C   C62       1.0  0.00112  0.13097  0.43953  1.0000
  H   H61       1.0  0.29083  0.24485  0.25615  1.0000
  H   H62       1.0  0.26955  0.99943  0.00385  1.0000
  C   C63       1.0  0.27437  0.24368  0.24870  1.0000
  H   H63       1.0  0.03227  0.99972  0.33006  1.0000
  H   H64       1.0  0.99863  0.15179  0.22431  1.0000
  C   C64       1.0  0.28746  0.99671  0.00040  1.0000
  C   C65       1.0  0.01862  0.99714  0.31863  1.0000
  H   H65       1.0  0.42575  0.99814  0.13488  1.0000
  S   S22       1.0  0.37794  0.99664  0.12714  1.0000
  C   C66       1.0  0.39340  0.99674  0.15266  1.0000
  C   C67       1.0  0.41727  0.99710  0.15131  1.0000
  H   H66       1.0  0.18064  0.10688  0.81177  1.0000
  H   H67       1.0  0.15119  0.11292  0.81725  1.0000
  C   C68       1.0  0.22301  0.24327  0.83293  1.0000
  C   C69       1.0  0.30289  0.08110  0.86251  1.0000
  H   H68       1.0  0.14770  0.11177  0.71969  1.0000
  Fe  Fe11      1.0  0.03173  0.12443  0.69786  1.0000
  S   S23       1.0  0.03416  0.09917  0.67000  1.0000
  S   S24       1.0  0.06563  0.14056  0.70591  1.0000
  H   H69       1.0  0.22545  0.23334  0.84825  1.0000
  H   H70       1.0  0.04300  0.21341  0.65601  1.0000
  C   C70       1.0  0.28958  0.09995  0.86775  1.0000
  S   S25       1.0  0.00601  0.14615  0.67985  1.0000
  H   H71       1.0  0.46450  0.20088  0.50055  1.0000
  S   S26       1.0  0.49345  0.05369  0.71798  1.0000
  Fe  Fe12      1.0  0.48244  0.20434  0.62750  1.0000
  S   S27       1.0  0.45944  0.22546  0.65092  1.0000
  S   S28       1.0  0.47342  0.17327  0.60882  1.0000
  Fe  Fe13      1.0  0.28396  0.01536  0.87460  1.0000
  S   S29       1.0  0.25861  0.04484  0.87544  1.0000
  S   S30       1.0  0.31949  0.02166  0.88547  1.0000
  Fe  Fe14      1.0  0.15810  0.16824  0.79945  1.0000
  S   S31       1.0  0.18867  0.16296  0.77668  1.0000
  S   S32       1.0  0.12303  0.15334  0.79488  1.0000
  Fe  Fe15      1.0  0.18600  0.19122  0.83541  1.0000
  S   S33       1.0  0.21882  0.18699  0.81505  1.0000
  S   S34       1.0  0.18770  0.20561  0.87096  1.0000
  Fe  Fe16      1.0  0.19839  0.19806  0.78531  1.0000
  S   S35       1.0  0.20808  0.22398  0.75788  1.0000
  Fe  Fe17      1.0  0.20688  0.15211  0.80816  1.0000
  S   S36       1.0  0.22946  0.12078  0.80411  1.0000
  S   S37       1.0  0.16612  0.20430  0.80603  1.0000
  S   S38       1.0  0.17579  0.15547  0.83056  1.0000
  C   C71       1.0  0.37819  0.22192  0.67783  1.0000
  H   H72       1.0  0.38847  0.02630  0.79702  1.0000
  H   H73       1.0  0.47736  0.09823  0.70762  1.0000
  H   H74       1.0  0.15193  0.23763  0.85715  1.0000
  H   H75       1.0  0.30625  0.06884  0.87576  1.0000
  C   C72       1.0  0.00843  0.17112  0.56054  1.0000
  C   C73       1.0  0.38469  0.99957  0.82170  1.0000
  C   C74       1.0  0.24911  0.06462  0.85479  1.0000
  C   C75       1.0  0.23512  0.08262  0.86185  1.0000
  C   C76       1.0  0.22843  0.09965  0.84650  1.0000
  C   C77       1.0  0.23560  0.09882  0.82382  1.0000
  C   C78       1.0  0.24900  0.08047  0.81659  1.0000
  C   C79       1.0  0.25580  0.06350  0.83198  1.0000
  H   H76       1.0  0.22976  0.08361  0.87944  1.0000
  H   H77       1.0  0.21809  0.11359  0.85235  1.0000
  H   H78       1.0  0.25454  0.07957  0.79906  1.0000
  H   H79       1.0  0.26637  0.04969  0.82623  1.0000
  H   H80       1.0  0.39029  0.24273  0.72907  1.0000
  H   H81       1.0  0.07835  0.18314  0.58401  1.0000
  C   C80       1.0  0.48106  0.19338  0.49736  1.0000
  C   C81       1.0  0.29189  0.11150  0.82853  1.0000
  H   H82       1.0  0.27287  0.12935  0.85424  1.0000
  C   C82       1.0  0.05044  0.19844  0.62360  1.0000
  C   C83       1.0  0.39081  0.22670  0.69674  1.0000
  C   C84       1.0  0.17130  0.22639  0.88555  1.0000
  C   C85       1.0  0.45140  0.02747  0.68735  1.0000
  H   H83       1.0  0.42620  0.01338  0.78214  1.0000
  H   H84       1.0  0.18737  0.21923  0.91716  1.0000
  H   H85       1.0  0.05882  0.14310  0.65696  1.0000
  C   C86       1.0  0.08096  0.14427  0.73105  1.0000
  C   C87       1.0  0.10206  0.15499  0.72946  1.0000
  C   C88       1.0  0.11499  0.15826  0.74880  1.0000
  C   C89       1.0  0.10695  0.15084  0.77005  1.0000
  C   C90       1.0  0.08588  0.14008  0.77164  1.0000
  C   C91       1.0  0.07296  0.13680  0.75229  1.0000
  H   H86       1.0  0.10845  0.16086  0.71314  1.0000
  H   H87       1.0  0.13118  0.16647  0.74725  1.0000
  H   H88       1.0  0.07948  0.13424  0.78797  1.0000
  H   H89       1.0  0.05678  0.12856  0.75383  1.0000
  H   H90       1.0  0.38643  0.21314  0.66389  1.0000
  Fe  Fe18      1.0  0.00448  0.22969  0.51674  1.0000
  S   S39       1.0  0.35768  0.00993  0.83188  1.0000
  H   H91       1.0  0.48487  0.03137  0.67299  1.0000
  C   C92       1.0  0.00893  0.01218  0.66490  1.0000
  H   H92       1.0  0.01189  0.02618  0.65342  1.0000
  H   H93       1.0  0.25419  0.21893  0.77511  1.0000
  H   H94       1.0  0.29024  0.23758  0.76354  1.0000
  S   S40       1.0  0.01108  0.12763  0.61466  1.0000
  C   C93       1.0  0.00471  0.01607  0.68789  1.0000
  C   C94       1.0  0.00333  0.19187  0.57019  1.0000
  H   H95       1.0  0.33241  0.05803  0.81890  1.0000
  H   H96       1.0  0.31189  0.04261  0.83572  1.0000
  H   H97       1.0  0.11587  0.10481  0.74708  1.0000
  S   S41       1.0  0.00279  0.21743  0.55399  1.0000
  H   H98       1.0  0.05540  0.16397  0.58017  1.0000
  H   H99       1.0  0.06286  0.14411  0.61531  1.0000
  H   H100      1.0  0.16080  0.08428  0.81321  1.0000
  H   H101      1.0  0.28408  0.99839  0.96400  1.0000
  Fe  Fe19      1.0  0.00722  0.12024  0.65297  1.0000
  H   H102      1.0  0.04784  0.21401  0.61427  1.0000
  C   C95       1.0  0.06017  0.17998  0.58788  1.0000
  C   C96       1.0  0.05657  0.15876  0.64769  1.0000
  Fe  Fe20      1.0  0.00589  0.08093  0.68855  1.0000
  H   H103      1.0  0.40854  0.22165  0.69730  1.0000
  C   C97       1.0  0.42114  0.23506  0.62576  1.0000
  Fe  Fe21      1.0  0.33063  0.99776  0.85804  1.0000
  H   H104      1.0  0.48444  0.12494  0.67556  1.0000
  N   N6        1.0  0.15918  0.10425  0.78333  1.0000
  C   C98       1.0  0.17693  0.10749  0.76831  1.0000
  C   C99       1.0  0.13755  0.10281  0.77585  1.0000
  C   C100      1.0  0.17312  0.11024  0.74519  1.0000
  C   C101      1.0  0.13316  0.10517  0.75283  1.0000
  C   C102      1.0  0.15105  0.10918  0.73747  1.0000
  C   C103      1.0  0.16318  0.10191  0.80758  1.0000
  H   H105      1.0  0.19413  0.10849  0.77418  1.0000
  H   H106      1.0  0.12342  0.10074  0.78780  1.0000
  H   H107      1.0  0.18717  0.11350  0.73345  1.0000
  H   H108      1.0  0.28275  0.10208  0.88479  1.0000
  H   H109      1.0  0.04895  0.17779  0.67755  1.0000
  C   C104      1.0  0.04769  0.19824  0.64716  1.0000
  Fe  Fe22      1.0  0.49579  0.18736  0.58032  1.0000
  C   C105      1.0  0.05096  0.17827  0.65925  1.0000
  H   H110      1.0  0.01431  0.13577  0.56668  1.0000
  C   C106      1.0  0.47106  0.01988  0.67598  1.0000
  C   C107      1.0  0.05899  0.15950  0.62414  1.0000
  N   N7        1.0  0.35611  0.22903  0.67652  1.0000
  N   N8        1.0  0.31060  0.07762  0.84083  1.0000
  C   C108      1.0  0.43350  0.23961  0.64492  1.0000
  H   H111      1.0  0.09771  0.20267  0.93252  1.0000
  H   H112      1.0  0.04980  0.19339  0.57975  1.0000
  C   C109      1.0  0.48905  0.09360  0.69403  1.0000
  H   H113      1.0  0.33666  0.05380  0.84836  1.0000
  C   C110      1.0  0.32346  0.05710  0.83565  1.0000
  C   C111      1.0  0.34309  0.22371  0.65666  1.0000
  C   C112      1.0  0.35794  0.24531  0.71321  1.0000
  N   N9        1.0  0.47313  0.99814  0.66936  1.0000
  C   C113      1.0  0.39620  0.01135  0.80411  1.0000
  H   H114      1.0  0.42779  0.22313  0.61364  1.0000
  C   C114      1.0  0.43383  0.01260  0.69204  1.0000
  C   C115      1.0  0.41766  0.00404  0.79558  1.0000
  C   C116      1.0  0.07839  0.22705  0.95178  1.0000
  H   H115      1.0  0.28678  0.12277  0.81496  1.0000
  C   C117      1.0  0.27506  0.24108  0.75421  1.0000
  C   C118      1.0  0.28402  0.11519  0.85061  1.0000
  H   H116      1.0  0.31054  0.08929  0.80657  1.0000
  S   S42       1.0  0.48329  0.19100  0.54385  1.0000
  N   N10       1.0  0.05602  0.17921  0.61241  1.0000
  C   C119      1.0  0.30517  0.09245  0.82389  1.0000
  H   H117      1.0  0.33440  0.20753  0.65943  1.0000
  C   C120      1.0  0.25466  0.23041  0.76078  1.0000
  C   C121      1.0  0.23484  0.23496  0.74904  1.0000
  S   S43       1.0  0.00495  0.10509  0.71775  1.0000
  H   H118      1.0  0.45025  0.04459  0.69315  1.0000
  H   H119      1.0  0.35430  0.22282  0.64126  1.0000
  H   H120      1.0  0.41877  0.01813  0.70141  1.0000
  S   S44       1.0  0.00354  0.04359  0.69947  1.0000
  H   H121      1.0  0.33032  0.23709  0.65317  1.0000
  C   C122      1.0  0.49413  0.18632  0.51579  1.0000
  H   H122      1.0  0.07508  0.21585  0.96605  1.0000
  H   H123      1.0  0.10520  0.22885  0.90021  1.0000
  H   H124      1.0  0.39050  0.24186  0.60765  1.0000
  C   C123      1.0  0.09099  0.21965  0.93297  1.0000
  C   C124      1.0  0.99975  0.19269  0.59381  1.0000
  C   C125      1.0  0.34583  0.24023  0.69406  1.0000
  C   C126      1.0  0.38062  0.23861  0.71446  1.0000
  C   C127      1.0  0.00090  0.99747  0.70243  1.0000
  C   C128      1.0  0.01010  0.15163  0.57435  1.0000
  C   C129      1.0  0.15530  0.24006  0.87478  1.0000
  C   C130      1.0  0.17507  0.22969  0.90862  1.0000
  C   C131      1.0  0.00680  0.15252  0.59800  1.0000
  H   H125      1.0  0.01149  0.17017  0.54253  1.0000
  C   C132      1.0  0.00141  0.17321  0.60762  1.0000
  C   C133      1.0  0.09512  0.23430  0.91478  1.0000
  C   C134      1.0  0.49304  0.10884  0.67582  1.0000
  H   H126      1.0  0.99875  0.17425  0.62573  1.0000
  H   H127      1.0  0.01428  0.15073  0.50237  1.0000
  H   H128      1.0  0.18677  0.24039  0.83464  1.0000
  H   H129      1.0  0.32819  0.24551  0.69328  1.0000
  C   C135      1.0  0.16321  0.24651  0.92077  1.0000
  C   C136      1.0  0.39995  0.24569  0.62244  1.0000
  H   H130      1.0  0.18118  0.43520  0.01353  1.0000
  H   H131      1.0  0.14104  0.33133  0.08666  1.0000
  C   C137      1.0  0.16005  0.33321  0.44152  1.0000
  C   C138      1.0  0.15384  0.32591  0.07435  1.0000
  H   H132      1.0  0.17812  0.34183  0.02416  1.0000
  H   H133      1.0  0.22658  0.30226  0.41271  1.0000
  Fe  Fe23      1.0  0.30661  0.30916  0.33882  1.0000
  S   S45       1.0  0.30894  0.27543  0.32225  1.0000
  S   S46       1.0  0.29902  0.31459  0.37653  1.0000
  Fe  Fe24      1.0  0.32296  0.33444  0.29562  1.0000
  S   S47       1.0  0.32634  0.30271  0.27563  1.0000
  S   S48       1.0  0.32594  0.37191  0.28682  1.0000
  Fe  Fe25      1.0  0.29303  0.29245  0.29210  1.0000
  S   S49       1.0  0.27677  0.46221  0.00124  1.0000
  Fe  Fe26      1.0  0.34218  0.28741  0.30701  1.0000
  C   C139      1.0  0.11015  0.33174  0.48381  1.0000
  S   S50       1.0  0.28848  0.32537  0.31007  1.0000
  S   S51       1.0  0.34106  0.31984  0.32559  1.0000
  H   H134      1.0  0.07884  0.33322  0.46575  1.0000
  C   C140      1.0  0.17474  0.33159  0.03914  1.0000
  S   S52       1.0  0.35496  0.48446  0.18885  1.0000
  H   H135      1.0  0.12252  0.25121  0.10850  1.0000
  H   H136      1.0  0.19888  0.27468  0.47505  1.0000
  N   N11       1.0  0.18586  0.31159  0.04221  1.0000
  Fe  Fe27      1.0  0.38421  0.46348  0.20128  1.0000
  S   S53       1.0  0.38278  0.42619  0.21060  1.0000
  S   S54       1.0  0.40674  0.47178  0.17084  1.0000
  Fe  Fe28      1.0  0.13828  0.27954  0.01175  1.0000
  S   S55       1.0  0.11458  0.30685  0.02381  1.0000
  H   H137      1.0  0.37648  0.43846  0.12665  1.0000
  C   C141      1.0  0.17993  0.30180  0.45974  1.0000
  C   C142      1.0  0.19510  0.31690  0.42528  1.0000
  H   H138      1.0  0.11620  0.34745  0.47683  1.0000
  C   C143      1.0  0.44282  0.28103  0.32642  1.0000
  C   C144      1.0  0.16354  0.40399  0.00957  1.0000
  C   C145      1.0  0.21346  0.30187  0.42597  1.0000
  H   H139      1.0  0.29347  0.37665  0.32271  1.0000
  C   C146      1.0  0.21497  0.28667  0.44403  1.0000
  H   H140      1.0  0.22268  0.26928  0.24883  1.0000
  H   H141      1.0  0.33032  0.49150  0.04985  1.0000
  C   C147      1.0  0.16562  0.30576  0.07758  1.0000
  H   H142      1.0  0.00466  0.32514  0.03721  1.0000
  Fe  Fe29      1.0  0.21023  0.37296  0.46260  1.0000
  S   S56       1.0  0.21746  0.36821  0.42481  1.0000
  S   S57       1.0  0.17446  0.38414  0.47196  1.0000
  H   H143      1.0  0.16678  0.30152  0.47293  1.0000
  S   S58       1.0  0.05292  0.29437  0.47840  1.0000
  H   H144      1.0  0.33693  0.37993  0.36202  1.0000
  C   C148      1.0  0.15781  0.24796  0.06203  1.0000
  C   C149      1.0  0.19802  0.28648  0.46096  1.0000
  H   H145      1.0  0.48849  0.47259  0.12441  1.0000
  N   N12       1.0  0.47398  0.25591  0.31797  1.0000
  N   N13       1.0  0.30148  0.37741  0.35763  1.0000
  C   C150      1.0  0.15852  0.33902  0.05510  1.0000
  C   C151      1.0  0.27547  0.32835  0.38976  1.0000
  C   C152      1.0  0.25675  0.33592  0.37768  1.0000
  C   C153      1.0  0.23886  0.34756  0.38882  1.0000
  C   C154      1.0  0.23956  0.35193  0.41207  1.0000
  C   C155      1.0  0.25799  0.34389  0.42426  1.0000
  C   C156      1.0  0.27582  0.33216  0.41313  1.0000
  H   H146      1.0  0.25619  0.33299  0.35972  1.0000
  H   H147      1.0  0.22462  0.35361  0.37925  1.0000
  H   H148      1.0  0.25873  0.34704  0.44216  1.0000
  H   H149      1.0  0.29018  0.32625  0.42264  1.0000
  N   N14       1.0  0.17897  0.31711  0.44234  1.0000
  H   H150      1.0  0.25446  0.39114  0.32884  1.0000
  H   H151      1.0  0.19411  0.32877  0.41125  1.0000
  H   H152      1.0  0.44920  0.26617  0.29416  1.0000
  C   C157      1.0  0.20742  0.47465  0.48573  1.0000
  C   C158      1.0  0.34196  0.38656  0.26544  1.0000
  C   C159      1.0  0.35667  0.37563  0.25017  1.0000
  C   C160      1.0  0.36912  0.38806  0.23368  1.0000
  C   C161      1.0  0.36708  0.41153  0.23220  1.0000
  C   C162      1.0  0.35226  0.42246  0.24736  1.0000
  C   C163      1.0  0.33984  0.41003  0.26388  1.0000
  H   H153      1.0  0.35850  0.35761  0.25111  1.0000
  H   H154      1.0  0.38047  0.37939  0.22202  1.0000
  H   H155      1.0  0.35042  0.44047  0.24645  1.0000
  H   H156      1.0  0.32852  0.41868  0.27557  1.0000
  C   C164      1.0  0.48070  0.25682  0.33985  1.0000
  C   C165      1.0  0.13901  0.25411  0.07555  1.0000
  H   H157      1.0  0.47427  0.47026  0.18225  1.0000
  H   H158      1.0  0.30482  0.44658  0.11845  1.0000
  H   H159      1.0  0.12566  0.26438  0.06844  1.0000
  H   H160      1.0  0.01147  0.31569  0.49011  1.0000
  H   H161      1.0  0.22925  0.27508  0.44484  1.0000
  H   H162      1.0  0.24041  0.39994  0.36788  1.0000
  Fe  Fe30      1.0  0.02928  0.26446  0.48582  1.0000
  S   S59       1.0  0.37413  0.26525  0.30308  1.0000
  H   H163      1.0  0.40038  0.25602  0.38129  1.0000
  C   C166      1.0  0.39078  0.25327  0.32490  1.0000
  S   S60       1.0  0.26115  0.28047  0.27464  1.0000
  H   H164      1.0  0.31177  0.41627  0.19147  1.0000
  C   C167      1.0  0.38801  0.25963  0.34744  1.0000
  C   C168      1.0  0.45522  0.26767  0.31119  1.0000
  S   S61       1.0  0.23393  0.49342  0.01846  1.0000
  C   C169      1.0  0.34564  0.49540  0.10524  1.0000
  C   C170      1.0  0.49534  0.48852  0.12908  1.0000
  S   S62       1.0  0.16057  0.25607  0.03306  1.0000
  H   H165      1.0  0.32949  0.36793  0.33582  1.0000
  H   H166      1.0  0.21983  0.30409  0.03208  1.0000
  H   H167      1.0  0.14925  0.40899  0.02026  1.0000
  S   S63       1.0  0.14014  0.36456  0.00522  1.0000
  S   S64       1.0  0.05336  0.28510  0.00251  1.0000
  C   C171      1.0  0.34767  0.49336  0.08157  1.0000
  C   C172      1.0  0.29380  0.38183  0.37913  1.0000
  H   H168      1.0  0.26565  0.39346  0.40019  1.0000
  H   H169      1.0  0.36937  0.42541  0.16605  1.0000
  H   H170      1.0  0.00938  0.26502  0.00466  1.0000
  C   C173      1.0  0.23600  0.25734  0.24456  1.0000
  C   C174      1.0  0.18168  0.41896  0.00578  1.0000
  H   H171      1.0  0.45234  0.48847  0.14867  1.0000
  H   H172      1.0  0.33384  0.43501  0.19929  1.0000
  C   C175      1.0  0.48807  0.48120  0.18589  1.0000
  C   C176      1.0  0.27189  0.39040  0.38307  1.0000
  H   H173      1.0  0.15459  0.33825  0.45884  1.0000
  H   H174      1.0  0.29829  0.43411  0.15825  1.0000
  H   H175      1.0  0.14543  0.32569  0.43323  1.0000
  H   H176      1.0  0.30450  0.37832  0.39339  1.0000
  Fe  Fe31      1.0  0.37809  0.49454  0.15963  1.0000
  H   H177      1.0  0.19066  0.28307  0.06374  1.0000
  Fe  Fe32      1.0  0.09069  0.29568  0.99702  1.0000
  C   C177      1.0  0.32958  0.42123  0.18786  1.0000
  H   H178      1.0  0.14944  0.35471  0.05228  1.0000
  H   H179      1.0  0.34054  0.40651  0.19199  1.0000
  C   C178      1.0  0.18179  0.29891  0.06131  1.0000
  C   C179      1.0  0.32467  0.36885  0.35409  1.0000
  H   H180      1.0  0.37475  0.27150  0.35210  1.0000
  C   C180      1.0  0.40260  0.25083  0.36395  1.0000
  C   C181      1.0  0.46863  0.26991  0.35555  1.0000
  H   H181      1.0  0.32622  0.35176  0.36163  1.0000
  H   H182      1.0  0.16508  0.34881  0.43225  1.0000
  H   H183      1.0  0.34406  0.44820  0.10242  1.0000
  C   C182      1.0  0.28758  0.38062  0.33972  1.0000
  C   C183      1.0  0.26548  0.38890  0.34308  1.0000
  C   C184      1.0  0.08022  0.30343  0.48676  1.0000
  S   S65       1.0  0.39856  0.49077  0.22203  1.0000
  H   H184      1.0  0.20225  0.31403  0.00947  1.0000
  C   C185      1.0  0.08883  0.32364  0.47762  1.0000
  C   C186      1.0  0.25766  0.39392  0.36490  1.0000
  H   H185      1.0  0.42740  0.28957  0.32121  1.0000
  S   S66       1.0  0.22627  0.39755  0.48554  1.0000
  N   N15       1.0  0.33340  0.42837  0.16425  1.0000
  C   C187      1.0  0.31545  0.43452  0.15126  1.0000
  C   C188      1.0  0.35510  0.42973  0.15563  1.0000
  C   C189      1.0  0.31899  0.44152  0.12876  1.0000
  C   C190      1.0  0.35925  0.43684  0.13329  1.0000
  C   C191      1.0  0.34104  0.44247  0.11973  1.0000
  C   C192      1.0  0.25729  0.25919  0.25446  1.0000
  S   S67       1.0  0.00632  0.25728  0.45705  1.0000
  C   C193      1.0  0.32834  0.49314  0.06797  1.0000
  H   H186      1.0  0.19866  0.28622  0.02052  1.0000
  C   C194      1.0  0.20254  0.30366  0.02524  1.0000
  S   S68       1.0  0.37077  0.49415  0.12156  1.0000
  C   C195      1.0  0.30657  0.49502  0.07783  1.0000
  H   H187      1.0  0.16205  0.29530  0.09241  1.0000
  C   C196      1.0  0.16362  0.38275  0.99959  1.0000
  H   H188      1.0  0.01185  0.30764  0.45175  1.0000
  Fe  Fe33      1.0  0.27181  0.49160  0.02421  1.0000
  H   H189      1.0  0.43942  0.29139  0.36101  1.0000
  H   H190      1.0  0.47342  0.26977  0.37310  1.0000
  H   H191      1.0  0.36435  0.49180  0.07365  1.0000
  S   S69       1.0  0.21063  0.34486  0.48824  1.0000
  H   H192      1.0  0.21703  0.46079  0.47864  1.0000
  C   C197      1.0  0.44955  0.28203  0.34876  1.0000
  C   C198      1.0  0.00697  0.28200  0.99849  1.0000
  S   S70       1.0  0.28134  0.49484  0.06167  1.0000
  H   H193      1.0  0.49521  0.24703  0.34539  1.0000
  H   H194      1.0  0.48593  0.24794  0.28468  1.0000
  C   C199      1.0  0.13730  0.24664  0.09827  1.0000
  C   C200      1.0  0.18230  0.37666  0.98579  1.0000
  H   H195      1.0  0.06285  0.29206  0.95306  1.0000
  H   H196      1.0  0.33556  0.28800  0.58581  1.0000
  H   H197      1.0  0.41139  0.45505  0.89033  1.0000
  H   H198      1.0  0.13194  0.26802  0.87812  1.0000
  H   H199      1.0  0.16642  0.24886  0.93846  1.0000
  H   H200      1.0  0.39665  0.27765  0.66933  1.0000
  Fe  Fe34      1.0  0.12980  0.29048  0.96169  1.0000
  S   S71       1.0  0.10568  0.31897  0.97052  1.0000
  S   S72       1.0  0.13287  0.28267  0.92398  1.0000
  Fe  Fe35      1.0  0.37507  0.46576  0.78466  1.0000
  S   S73       1.0  0.39027  0.46886  0.81901  1.0000
  S   S74       1.0  0.36137  0.43067  0.77911  1.0000
  H   H201      1.0  0.05206  0.28940  0.92505  1.0000
  H   H202      1.0  0.28756  0.45020  0.91365  1.0000
  N   N16       1.0  0.25462  0.44279  0.92716  1.0000
  C   C201      1.0  0.09341  0.29137  0.50219  1.0000
  S   S75       1.0  0.99991  0.26716  0.51093  1.0000
  H   H203      1.0  0.25236  0.27102  0.79134  1.0000
  Fe  Fe36      1.0  0.33324  0.33781  0.68491  1.0000
  S   S76       1.0  0.29667  0.32918  0.69257  1.0000
  S   S77       1.0  0.35085  0.37090  0.69189  1.0000
  Fe  Fe37      1.0  0.34209  0.29500  0.65747  1.0000
  S   S78       1.0  0.30614  0.28370  0.66311  1.0000
  S   S79       1.0  0.36341  0.27275  0.63380  1.0000
  Fe  Fe38      1.0  0.29573  0.31945  0.65583  1.0000
  S   S80       1.0  0.26444  0.32551  0.63439  1.0000
  Fe  Fe39      1.0  0.30969  0.29398  0.69904  1.0000
  C   C202      1.0  0.17559  0.48886  0.50782  1.0000
  S   S81       1.0  0.33132  0.33006  0.64767  1.0000
  S   S82       1.0  0.34659  0.30325  0.69390  1.0000
  Fe  Fe40      1.0  0.22383  0.37008  0.51226  1.0000
  S   S83       1.0  0.25507  0.36452  0.53392  1.0000
  S   S84       1.0  0.18910  0.38061  0.52473  1.0000
  C   C203      1.0  0.21279  0.45419  0.54633  1.0000
  C   C204      1.0  0.42120  0.42275  0.78693  1.0000
  C   C205      1.0  0.26182  0.33884  0.60744  1.0000
  C   C206      1.0  0.28051  0.34735  0.59523  1.0000
  C   C207      1.0  0.27796  0.35580  0.57302  1.0000
  C   C208      1.0  0.25674  0.35588  0.56274  1.0000
  C   C209      1.0  0.23790  0.34809  0.57522  1.0000
  C   C210      1.0  0.24046  0.33962  0.59742  1.0000
  H   H204      1.0  0.29698  0.34711  0.60278  1.0000
  H   H205      1.0  0.29263  0.36194  0.56359  1.0000
  H   H206      1.0  0.22146  0.34803  0.56760  1.0000
  H   H207      1.0  0.22587  0.33315  0.60675  1.0000
  N   N17       1.0  0.21131  0.43239  0.55356  1.0000
  C   C211      1.0  0.02247  0.31770  0.98712  1.0000
  C   C212      1.0  0.22420  0.46678  0.91481  1.0000
  H   H208      1.0  0.27750  0.31210  0.53498  1.0000
  H   H209      1.0  0.12461  0.28999  0.52043  1.0000
  C   C213      1.0  0.35577  0.41558  0.75427  1.0000
  C   C214      1.0  0.36137  0.42382  0.73260  1.0000
  C   C215      1.0  0.35876  0.41024  0.71360  1.0000
  C   C216      1.0  0.35046  0.38832  0.71599  1.0000
  C   C217      1.0  0.34411  0.38039  0.73758  1.0000
  C   C218      1.0  0.34681  0.39394  0.75658  1.0000
  H   H210      1.0  0.36816  0.44045  0.73050  1.0000
  H   H211      1.0  0.36365  0.41658  0.69697  1.0000
  H   H212      1.0  0.33769  0.36361  0.73971  1.0000
  H   H213      1.0  0.34229  0.38743  0.77324  1.0000
  C   C219      1.0  0.34154  0.48130  0.88376  1.0000
  H   H214      1.0  0.20498  0.29823  0.77770  1.0000
  H   H215      1.0  0.09072  0.26780  0.90188  1.0000
  H   H216      1.0  0.23373  0.49352  0.89168  1.0000
  C   C220      1.0  0.14772  0.26060  0.90984  1.0000
  C   C221      1.0  0.25004  0.44681  0.53014  1.0000
  C   C222      1.0  0.23952  0.47907  0.90137  1.0000
  H   H217      1.0  0.18269  0.36050  0.97787  1.0000
  H   H218      1.0  0.21458  0.38673  0.97109  1.0000
  H   H219      1.0  0.40564  0.42379  0.79792  1.0000
  H   H220      1.0  0.43452  0.41325  0.79602  1.0000
  H   H221      1.0  0.31406  0.31060  0.55447  1.0000
  H   H222      1.0  0.23290  0.47891  0.52830  1.0000
  H   H223      1.0  0.08714  0.27585  0.50944  1.0000
  C   C223      1.0  0.19815  0.25958  0.80530  1.0000
  H   H224      1.0  0.27760  0.41583  0.93425  1.0000
  H   H225      1.0  0.42132  0.41880  0.70900  1.0000
  H   H226      1.0  0.32088  0.28669  0.61261  1.0000
  H   H227      1.0  0.26495  0.45233  0.52060  1.0000
  C   C224      1.0  0.48270  0.48518  0.80475  1.0000
  C   C225      1.0  0.33250  0.47318  0.90466  1.0000
  S   S85       1.0  0.30970  0.47605  0.94592  1.0000
  C   C226      1.0  0.20120  0.24719  0.82527  1.0000
  H   H228      1.0  0.33540  0.45586  0.90952  1.0000
  H   H229      1.0  0.35125  0.47028  0.87276  1.0000
  H   H230      1.0  0.43686  0.46870  0.85891  1.0000
  C   C227      1.0  0.22885  0.41766  0.54944  1.0000
  C   C228      1.0  0.20026  0.41296  0.99183  1.0000
  C   C229      1.0  0.23787  0.26450  0.80089  1.0000
  Fe  Fe41      1.0  0.28281  0.48720  0.97263  1.0000
  C   C230      1.0  0.39086  0.26102  0.63815  1.0000
  C   C231      1.0  0.41085  0.47249  0.88501  1.0000
  S   S86       1.0  0.30199  0.26979  0.72869  1.0000
  H   H231      1.0  0.19853  0.46564  0.54882  1.0000
  C   C232      1.0  0.07041  0.24920  0.95224  1.0000
  H   H232      1.0  0.25662  0.27216  0.70958  1.0000
  C   C233      1.0  0.23584  0.24993  0.73041  1.0000
  H   H233      1.0  0.08089  0.29833  0.92909  1.0000
  H   H234      1.0  0.24278  0.29787  0.55466  1.0000
  H   H235      1.0  0.22854  0.28466  0.76312  1.0000
  S   S87       1.0  0.15637  0.30148  0.98562  1.0000
  C   C234      1.0  0.00028  0.32570  0.98285  1.0000
  C   C235      1.0  0.26301  0.42497  0.94218  1.0000
  C   C236      1.0  0.27853  0.30445  0.55170  1.0000
  H   H236      1.0  0.22021  0.43962  0.93874  1.0000
  N   N18       1.0  0.30017  0.29530  0.58448  1.0000
  C   C237      1.0  0.29910  0.30371  0.56288  1.0000
  C   C238      1.0  0.28108  0.28748  0.59546  1.0000
  C   C239      1.0  0.42181  0.42152  0.74537  1.0000
  C   C240      1.0  0.26026  0.28788  0.58476  1.0000
  C   C241      1.0  0.25900  0.29650  0.56277  1.0000
  C   C242      1.0  0.32171  0.29588  0.59614  1.0000
  C   C243      1.0  0.23216  0.46175  0.53457  1.0000
  H   H237      1.0  0.28161  0.28182  0.61296  1.0000
  C   C244      1.0  0.23210  0.44863  0.92776  1.0000
  H   H238      1.0  0.18114  0.26209  0.79918  1.0000
  C   C245      1.0  0.24153  0.25188  0.82064  1.0000
  S   S88       1.0  0.22361  0.43124  0.98585  1.0000
  H   H239      1.0  0.25861  0.24867  0.82628  1.0000
  H   H240      1.0  0.24960  0.41262  0.94649  1.0000
  N   N19       1.0  0.41620  0.41167  0.76578  1.0000
  C   C246      1.0  0.40618  0.39118  0.76670  1.0000
  H   H241      1.0  0.17654  0.42452  0.55240  1.0000
  C   C247      1.0  0.40174  0.37987  0.74685  1.0000
  S   S89       1.0  0.11363  0.26675  0.98687  1.0000
  C   C248      1.0  0.40748  0.38971  0.72599  1.0000
  C   C249      1.0  0.25624  0.26054  0.72380  1.0000
  H   H242      1.0  0.40091  0.38380  0.78284  1.0000
  H   H243      1.0  0.40318  0.38151  0.71047  1.0000
  H   H244      1.0  0.39298  0.36404  0.74756  1.0000
  H   H245      1.0  0.26853  0.43240  0.95817  1.0000
  H   H246      1.0  0.42929  0.43797  0.74458  1.0000
  H   H247      1.0  0.18517  0.43623  0.57870  1.0000
  H   H248      1.0  0.22768  0.40030  0.55494  1.0000
  C   C250      1.0  0.27597  0.25628  0.73576  1.0000
  C   C251      1.0  0.19030  0.42478  0.56485  1.0000
  S   S90       1.0  0.40451  0.48267  0.76675  1.0000
  H   H249      1.0  0.38409  0.48156  0.90888  1.0000
  C   C252      1.0  0.40336  0.26586  0.65713  1.0000
  H   H250      1.0  0.24502  0.28261  0.59393  1.0000
  C   C253      1.0  0.41752  0.41071  0.72518  1.0000
  N   N20       1.0  0.07514  0.26364  0.93460  1.0000
  C   C254      1.0  0.02597  0.29583  0.99523  1.0000
  C   C255      1.0  0.26242  0.47294  0.90082  1.0000
  H   H251      1.0  0.06080  0.25487  0.96699  1.0000
  C   C256      1.0  0.26968  0.45459  0.91383  1.0000
  S   S91       1.0  0.15046  0.32891  0.50790  1.0000
  S   S92       1.0  0.24600  0.48940  0.96427  1.0000
  C   C257      1.0  0.24846  0.42464  0.53769  1.0000
  H   H252      1.0  0.03678  0.32864  0.98454  1.0000
  S   S93       1.0  0.17810  0.44267  0.50533  1.0000
  H   H253      1.0  0.32616  0.31346  0.59953  1.0000
  C   C258      1.0  0.11473  0.29947  0.50838  1.0000
  C   C259      1.0  0.06726  0.28698  0.93547  1.0000
  C   C260      1.0  0.08682  0.25630  0.91580  1.0000
  H   H254      1.0  0.42724  0.44012  0.78402  1.0000
  H   H255      1.0  0.19218  0.40766  0.57226  1.0000
  C   C261      1.0  0.31989  0.48722  0.91937  1.0000
  C   C262      1.0  0.14385  0.25723  0.88678  1.0000
  H   H256      1.0  0.20093  0.27308  0.76175  1.0000
  C   C263      1.0  0.20039  0.39167  0.98192  1.0000
  N   N21       1.0  0.21637  0.26811  0.79343  1.0000
  H   H257      1.0  0.27464  0.48261  0.89081  1.0000
  H   H258      1.0  0.26215  0.41276  0.53417  1.0000
  C   C264      1.0  0.18772  0.47044  0.49877  1.0000
  C   C265      1.0  0.21254  0.28179  0.77305  1.0000
  H   H259      1.0  0.20642  0.47162  0.91573  1.0000
  H   H260      1.0  0.43395  0.25886  0.67532  1.0000
  C   C266      1.0  0.42450  0.25515  0.66049  1.0000
  Fe  Fe42      1.0  0.23963  0.46532  0.99358  1.0000
  H   H261      1.0  0.34974  0.25457  0.72687  1.0000
  H   H262      1.0  0.22063  0.25359  0.72118  1.0000
  S   S94       1.0  0.45430  0.47738  0.81270  1.0000
  H   H263      1.0  0.16032  0.48595  0.51792  1.0000
  H   H264      1.0  0.49751  0.46340  0.82992  1.0000
  Fe  Fe43      1.0  0.41859  0.48783  0.80118  1.0000
  Fe  Fe44      1.0  0.17560  0.35712  0.49889  1.0000
  C   C267      1.0  0.42512  0.48012  0.86742  1.0000
  H   H265      1.0  0.48442  0.25241  0.51184  1.0000
  C   C268      1.0  0.12329  0.31971  0.49931  1.0000
  C   C269      1.0  0.39563  0.48736  0.89548  1.0000
  Fe  Fe45      1.0  0.13138  0.32832  0.99627  1.0000
  Fe  Fe46      1.0  0.19075  0.40698  0.49672  1.0000
  H   H266      1.0  0.10217  0.72525  0.46073  1.0000
  C   C270      1.0  0.26497  0.56889  0.02404  1.0000
  C   C271      1.0  0.09030  0.65322  0.48538  1.0000
  H   H267      1.0  0.43996  0.55364  0.23119  1.0000
  C   C272      1.0  0.23961  0.73076  0.24610  1.0000
  Fe  Fe47      1.0  0.14401  0.70688  0.01341  1.0000
  Fe  Fe48      1.0  0.13952  0.65746  0.99869  1.0000
  S   S95       1.0  0.12172  0.67865  0.02527  1.0000
  Fe  Fe49      1.0  0.33867  0.69444  0.32139  1.0000
  S   S96       1.0  0.33407  0.69325  0.28367  1.0000
  S   S97       1.0  0.35839  0.72093  0.34014  1.0000
  Fe  Fe50      1.0  0.30419  0.65692  0.33117  1.0000
  S   S98       1.0  0.29797  0.65293  0.29403  1.0000
  S   S99       1.0  0.28378  0.63304  0.35440  1.0000
  Fe  Fe51      1.0  0.33558  0.65556  0.28867  1.0000
  S   S100      1.0  0.35734  0.63523  0.26336  1.0000
  Fe  Fe52      1.0  0.29671  0.69058  0.29188  1.0000
  S   S101      1.0  0.26515  0.70600  0.27566  1.0000
  S   S102      1.0  0.34231  0.65694  0.32598  1.0000
  S   S103      1.0  0.30086  0.69430  0.32927  1.0000
  N   N22       1.0  0.27716  0.65404  0.23774  1.0000
  S   S104      1.0  0.34924  0.53411  0.23181  1.0000
  S   S105      1.0  0.39232  0.52414  0.17756  1.0000
  Fe  Fe53      1.0  0.21784  0.62589  0.47619  1.0000
  S   S106      1.0  0.19045  0.60299  0.46533  1.0000
  S   S107      1.0  0.24312  0.64620  0.45442  1.0000
  C   C273      1.0  0.40382  0.71933  0.32525  1.0000
  H   H268      1.0  0.08313  0.63773  0.47994  1.0000
  C   C274      1.0  0.27792  0.57844  0.41386  1.0000
  H   H269      1.0  0.40458  0.60491  0.28035  1.0000
  C   C275      1.0  0.40246  0.58726  0.27703  1.0000
  H   H270      1.0  0.11029  0.62499  0.04019  1.0000
  H   H271      1.0  0.22483  0.53912  0.08360  1.0000
  C   C276      1.0  0.27024  0.63898  0.38093  1.0000
  C   C277      1.0  0.27713  0.65652  0.39431  1.0000
  C   C278      1.0  0.26816  0.65879  0.41652  1.0000
  C   C279      1.0  0.25198  0.64379  0.42555  1.0000
  C   C280      1.0  0.24451  0.62669  0.41190  1.0000
  C   C281      1.0  0.25373  0.62422  0.38979  1.0000
  H   H272      1.0  0.28990  0.66794  0.38782  1.0000
  H   H273      1.0  0.27404  0.67211  0.42689  1.0000
  H   H274      1.0  0.23201  0.61507  0.41855  1.0000
  H   H275      1.0  0.24825  0.61060  0.37959  1.0000
  C   C282      1.0  0.35360  0.60755  0.25381  1.0000
  C   C283      1.0  0.33756  0.59319  0.26376  1.0000
  C   C284      1.0  0.33604  0.57098  0.25631  1.0000
  C   C285      1.0  0.35055  0.56283  0.23894  1.0000
  C   C286      1.0  0.36617  0.57739  0.22858  1.0000
  C   C287      1.0  0.36762  0.59962  0.23596  1.0000
  H   H276      1.0  0.32660  0.59905  0.27744  1.0000
  H   H277      1.0  0.32385  0.55988  0.26440  1.0000
  H   H278      1.0  0.37728  0.57146  0.21507  1.0000
  H   H279      1.0  0.37998  0.61065  0.22804  1.0000
  H   H280      1.0  0.27076  0.60488  0.47256  1.0000
  H   H281      1.0  0.31059  0.62253  0.40493  1.0000
  H   H282      1.0  0.03408  0.73182  0.41432  1.0000
  C   C288      1.0  0.08750  0.72688  0.45016  1.0000
  C   C289      1.0  0.16266  0.74144  0.06075  1.0000
  H   H283      1.0  0.08194  0.63889  0.06869  1.0000
  H   H284      1.0  0.24820  0.67577  0.24059  1.0000
  C   C290      1.0  0.39552  0.54291  0.26660  1.0000
  C   C291      1.0  0.28913  0.60496  0.44058  1.0000
  C   C292      1.0  0.22889  0.58568  0.03452  1.0000
  C   C293      1.0  0.38749  0.72871  0.33999  1.0000
  S   S108      1.0  0.14814  0.62082  0.00857  1.0000
  C   C294      1.0  0.48981  0.52550  0.14234  1.0000
  C   C295      1.0  0.26147  0.57010  0.42917  1.0000
  C   C296      1.0  0.01359  0.69276  0.01411  1.0000
  H   H285      1.0  0.25049  0.59772  0.00715  1.0000
  H   H286      1.0  0.41344  0.54375  0.22114  1.0000
  H   H287      1.0  0.13030  0.72664  0.06834  1.0000
  C   C297      1.0  0.21478  0.49687  0.48189  1.0000
  N   N23       1.0  0.41176  0.55487  0.25493  1.0000
  C   C298      1.0  0.42657  0.72633  0.32561  1.0000
  H   H288      1.0  0.27432  0.53952  0.04322  1.0000
  C   C299      1.0  0.26165  0.72590  0.25340  1.0000
  H   H289      1.0  0.44696  0.51725  0.14203  1.0000
  H   H290      1.0  0.25044  0.55668  0.42449  1.0000
  C   C300      1.0  0.25899  0.57946  0.45051  1.0000
  H   H291      1.0  0.05523  0.69551  0.41665  1.0000
  H   H292      1.0  0.28678  0.68830  0.23613  1.0000
  C   C301      1.0  0.17120  0.58017  0.00988  1.0000
  H   H293      1.0  0.45067  0.49769  0.11942  1.0000
  C   C302      1.0  0.08039  0.70819  0.43855  1.0000
  H   H294      1.0  0.24604  0.57336  0.46239  1.0000
  H   H295      1.0  0.42748  0.58658  0.25006  1.0000
  H   H296      1.0  0.27993  0.56820  0.01298  1.0000
  H   H297      1.0  0.21017  0.56873  0.06103  1.0000
  H   H298      1.0  0.05806  0.67114  0.48555  1.0000
  C   C303      1.0  0.39431  0.74514  0.35506  1.0000
  C   C304      1.0  0.30882  0.60410  0.40362  1.0000
  Fe  Fe54      1.0  0.37097  0.51273  0.20756  1.0000
  C   C305      1.0  0.07716  0.63677  0.05132  1.0000
  Fe  Fe55      1.0  0.41931  0.50043  0.19089  1.0000
  H   H299      1.0  0.21565  0.59812  0.03159  1.0000
  C   C306      1.0  0.38600  0.57514  0.28912  1.0000
  C   C307      1.0  0.07599  0.67216  0.48856  1.0000
  C   C308      1.0  0.25421  0.65901  0.24655  1.0000
  S   S109      1.0  0.06032  0.69260  0.00961  1.0000
  H   H300      1.0  0.04291  0.64899  0.05679  1.0000
  H   H301      1.0  0.32602  0.68009  0.22292  1.0000
  H   H302      1.0  0.32535  0.59584  0.40700  1.0000
  H   H303      1.0  0.22538  0.72197  0.25376  1.0000
  H   H304      1.0  0.36909  0.54349  0.29254  1.0000
  C   C309      1.0  0.42433  0.54441  0.23610  1.0000
  H   H305      1.0  0.39196  0.52586  0.26197  1.0000
  C   C310      1.0  0.31417  0.66658  0.22578  1.0000
  H   H306      1.0  0.01642  0.69756  0.03132  1.0000
  S   S110      1.0  0.00560  0.71836  0.47105  1.0000
  H   H307      1.0  0.33844  0.64073  0.21691  1.0000
  N   N24       1.0  0.24224  0.55282  0.05430  1.0000
  C   C311      1.0  0.26157  0.55259  0.04099  1.0000
  C   C312      1.0  0.22586  0.56892  0.05107  1.0000
  H   H308      1.0  0.27264  0.61870  0.23934  1.0000
  H   H309      1.0  0.30427  0.60106  0.38584  1.0000
  S   S111      1.0  0.13034  0.62880  0.48747  1.0000
  C   C313      1.0  0.23883  0.53504  0.07138  1.0000
  C   C314      1.0  0.06108  0.70993  0.42555  1.0000
  C   C315      1.0  0.04922  0.73025  0.42426  1.0000
  H   H310      1.0  0.25415  0.65906  0.26534  1.0000
  C   C316      1.0  0.08697  0.62730  0.01280  1.0000
  C   C317      1.0  0.38250  0.55281  0.28393  1.0000
  H   H311      1.0  0.23491  0.51913  0.06299  1.0000
  C   C318      1.0  0.11366  0.65393  0.48964  1.0000
  C   C319      1.0  0.18853  0.56459  0.00385  1.0000
  N   N25       1.0  0.29134  0.59580  0.41962  1.0000
  C   C320      1.0  0.29198  0.67109  0.23344  1.0000
  S   S112      1.0  0.16611  0.73070  0.03291  1.0000
  N   N26       1.0  0.48115  0.50564  0.13568  1.0000
  C   C321      1.0  0.04963  0.64005  0.02208  1.0000
  Fe  Fe56      1.0  0.16820  0.62003  0.49201  1.0000
  H   H312      1.0  0.37538  0.58333  0.30186  1.0000
  H   H313      1.0  0.27954  0.57132  0.39717  1.0000
  C   C322      1.0  0.41523  0.57682  0.25983  1.0000
  H   H314      1.0  0.31157  0.60990  0.22517  1.0000
  H   H315      1.0  0.15814  0.57531  0.02211  1.0000
  H   H316      1.0  0.18872  0.54802  0.01147  1.0000
  H   H317      1.0  0.42976  0.52706  0.24070  1.0000
  H   H318      1.0  0.43899  0.71896  0.31408  1.0000
  C   C323      1.0  0.30604  0.62717  0.22713  1.0000
  H   H319      1.0  0.25449  0.53227  0.08113  1.0000
  H   H320      1.0  0.29933  0.61908  0.44500  1.0000
  C   C324      1.0  0.32112  0.64448  0.22240  1.0000
  C   C325      1.0  0.20260  0.51532  0.49088  1.0000
  C   C326      1.0  0.27295  0.59695  0.45630  1.0000
  H   H321      1.0  0.03279  0.64511  0.01695  1.0000
  Fe  Fe57      1.0  0.20204  0.57951  0.49333  1.0000
  H   H322      1.0  0.39891  0.70674  0.31354  1.0000
  C   C327      1.0  0.09308  0.62900  0.03535  1.0000
  C   C328      1.0  0.28406  0.63227  0.23510  1.0000
  H   H323      1.0  0.24190  0.64655  0.24095  1.0000
  S   S113      1.0  0.45520  0.51463  0.19433  1.0000
  C   C329      1.0  0.48336  0.50297  0.19315  1.0000
  S   S114      1.0  0.21306  0.54302  0.48551  1.0000
  C   C330      1.0  0.24851  0.58552  0.02083  1.0000
  H   H324      1.0  0.47862  0.53876  0.14844  1.0000
  H   H325      1.0  0.08956  0.69238  0.44007  1.0000
  H   H326      1.0  0.32190  0.49883  0.13324  1.0000
  C   C331      1.0  0.14146  0.74619  0.09632  1.0000
  C   C332      1.0  0.05527  0.64230  0.04470  1.0000
  Fe  Fe58      1.0  0.09790  0.68994  0.99785  1.0000
  N   N27       1.0  0.06546  0.63276  0.00645  1.0000
  C   C333      1.0  0.45659  0.50213  0.13637  1.0000
  C   C334      1.0  0.27991  0.73725  0.24325  1.0000
  H   H327      1.0  0.29695  0.73369  0.24869  1.0000
  C   C335      1.0  0.14353  0.73703  0.07451  1.0000
  C   C336      1.0  0.03236  0.68968  0.99916  1.0000
  C   C337      1.0  0.17050  0.60188  0.00016  1.0000
  H   H328      1.0  0.23001  0.49981  0.47176  1.0000
  C   C338      1.0  0.43339  0.74267  0.34075  1.0000
  H   H329      1.0  0.12655  0.74269  0.10674  1.0000
  C   C339      1.0  0.32387  0.49731  0.11511  1.0000
  H   H330      1.0  0.28786  0.49862  0.10941  1.0000
  C   C340      1.0  0.30454  0.49714  0.10150  1.0000
  H   H331      1.0  0.09971  0.62197  0.00036  1.0000
  C   C341      1.0  0.08487  0.69215  0.49616  1.0000
  C   C342      1.0  0.02831  0.68348  0.97696  1.0000
  H   H332      1.0  0.31059  0.59949  0.60625  1.0000
  C   C343      1.0  0.16589  0.72967  0.89169  1.0000
  C   C344      1.0  0.12262  0.67412  0.49663  1.0000
  H   H333      1.0  0.39139  0.54296  0.85352  1.0000
  H   H334      1.0  0.24457  0.59761  0.67094  1.0000
  Fe  Fe59      1.0  0.13737  0.69616  0.96358  1.0000
  S   S115      1.0  0.15182  0.70346  0.92792  1.0000
  S   S116      1.0  0.11429  0.66702  0.97205  1.0000
  Fe  Fe60      1.0  0.38457  0.51493  0.77278  1.0000
  S   S117      1.0  0.40045  0.52086  0.80632  1.0000
  S   S118      1.0  0.38605  0.54234  0.74509  1.0000
  Fe  Fe61      1.0  0.20582  0.61878  0.52675  1.0000
  S   S119      1.0  0.17786  0.59480  0.51918  1.0000
  S   S120      1.0  0.20979  0.62897  0.56361  1.0000
  H   H335      1.0  0.17600  0.71519  0.88686  1.0000
  H   H336      1.0  0.44073  0.74469  0.53170  1.0000
  H   H337      1.0  0.07321  0.63466  0.53569  1.0000
  H   H338      1.0  0.42995  0.71218  0.67373  1.0000
  Fe  Fe62      1.0  0.34640  0.68769  0.67425  1.0000
  S   S121      1.0  0.32600  0.68499  0.70713  1.0000
  S   S122      1.0  0.38344  0.69845  0.67505  1.0000
  Fe  Fe63      1.0  0.30850  0.66652  0.64731  1.0000
  S   S123      1.0  0.28596  0.66201  0.67812  1.0000
  S   S124      1.0  0.30112  0.65615  0.61127  1.0000
  Fe  Fe64      1.0  0.29615  0.69687  0.68719  1.0000
  S   S125      1.0  0.26835  0.72299  0.69500  1.0000
  Fe  Fe65      1.0  0.31761  0.65036  0.69576  1.0000
  S   S126      1.0  0.31539  0.62071  0.72067  1.0000
  S   S127      1.0  0.31719  0.70207  0.65503  1.0000
  S   S128      1.0  0.33949  0.65227  0.66425  1.0000
  H   H339      1.0  0.41005  0.65311  0.70451  1.0000
  C   C345      1.0  0.31285  0.59901  0.66352  1.0000
  H   H340      1.0  0.11546  0.70840  0.50568  1.0000
  C   C346      1.0  0.00589  0.68019  0.97000  1.0000
  C   C347      1.0  0.27225  0.73231  0.74081  1.0000
  C   C348      1.0  0.26536  0.74321  0.76088  1.0000
  C   C349      1.0  0.32043  0.59784  0.64104  1.0000
  C   C350      1.0  0.23529  0.63696  0.57646  1.0000
  C   C351      1.0  0.25621  0.63658  0.56476  1.0000
  C   C352      1.0  0.27607  0.64271  0.57566  1.0000
  C   C353      1.0  0.27534  0.64934  0.59834  1.0000
  C   C354      1.0  0.25441  0.64990  0.61006  1.0000
  C   C355      1.0  0.23454  0.64366  0.59918  1.0000
  H   H341      1.0  0.25709  0.63151  0.54730  1.0000
  H   H342      1.0  0.29215  0.64224  0.56640  1.0000
  H   H343      1.0  0.25355  0.65498  0.62749  1.0000
  H   H344      1.0  0.21844  0.64404  0.60837  1.0000
  H   H345      1.0  0.40968  0.58668  0.74963  1.0000
  H   H346      1.0  0.41353  0.60469  0.77348  1.0000
  C   C356      1.0  0.36543  0.56305  0.73772  1.0000
  C   C357      1.0  0.34529  0.56616  0.75037  1.0000
  C   C358      1.0  0.33012  0.58370  0.74470  1.0000
  C   C359      1.0  0.33492  0.59850  0.72649  1.0000
  C   C360      1.0  0.35507  0.59540  0.71381  1.0000
  C   C361      1.0  0.37013  0.57771  0.71934  1.0000
  H   H347      1.0  0.34143  0.55509  0.76458  1.0000
  H   H348      1.0  0.31459  0.58590  0.75464  1.0000
  H   H349      1.0  0.35917  0.60672  0.69989  1.0000
  H   H350      1.0  0.38570  0.57552  0.70949  1.0000
  H   H351      1.0  0.04240  0.68129  0.96511  1.0000
  C   C362      1.0  0.26026  0.73591  0.72100  1.0000
  C   C363      1.0  0.39784  0.71943  0.65854  1.0000
  H   H352      1.0  0.13495  0.72495  0.81749  1.0000
  H   H353      1.0  0.32338  0.53525  0.88751  1.0000
  C   C364      1.0  0.05992  0.63236  0.98250  1.0000
  H   H354      1.0  0.18730  0.62431  0.97659  1.0000
  C   C365      1.0  0.18290  0.51108  0.50392  1.0000
  C   C366      1.0  0.15186  0.72853  0.91130  1.0000
  C   C367      1.0  0.40132  0.59925  0.76087  1.0000
  C   C368      1.0  0.42116  0.72255  0.66157  1.0000
  S   S129      1.0  0.22851  0.55206  0.98016  1.0000
  C   C369      1.0  0.28185  0.60280  0.62937  1.0000
  H   H355      1.0  0.37296  0.67071  0.71391  1.0000
  H   H356      1.0  0.06814  0.61777  0.97407  1.0000
  H   H357      1.0  0.42179  0.54521  0.85186  1.0000
  H   H358      1.0  0.26995  0.60453  0.61580  1.0000
  N   N28       1.0  0.39316  0.61858  0.74767  1.0000
  H   H359      1.0  0.15556  0.64082  0.53071  1.0000
  H   H360      1.0  0.40665  0.55181  0.87771  1.0000
  H   H361      1.0  0.30673  0.52062  0.92382  1.0000
  H   H362      1.0  0.06501  0.67414  0.54619  1.0000
  H   H363      1.0  0.25044  0.69900  0.62069  1.0000
  H   H364      1.0  0.43483  0.50822  0.84653  1.0000
  N   N29       1.0  0.40891  0.51705  0.87086  1.0000
  H   H365      1.0  0.24864  0.62660  0.66268  1.0000
  C   C370      1.0  0.40663  0.62730  0.73058  1.0000
  S   S130      1.0  0.23068  0.60194  0.50295  1.0000
  H   H366      1.0  0.19478  0.70874  0.95436  1.0000
  C   C371      1.0  0.36493  0.64709  0.74083  1.0000
  N   N30       1.0  0.12597  0.64994  0.54929  1.0000
  C   C372      1.0  0.10883  0.63667  0.54258  1.0000
  C   C373      1.0  0.12166  0.67170  0.55499  1.0000
  C   C374      1.0  0.08659  0.64501  0.54178  1.0000
  C   C375      1.0  0.09961  0.68060  0.55435  1.0000
  C   C376      1.0  0.08200  0.66714  0.54765  1.0000
  C   C377      1.0  0.14928  0.64118  0.54853  1.0000
  H   H367      1.0  0.21778  0.59703  0.96590  1.0000
  H   H368      1.0  0.13537  0.68247  0.55951  1.0000
  C   C378      1.0  0.20550  0.57049  0.98792  1.0000
  H   H369      1.0  0.09628  0.69805  0.55818  1.0000
  N   N31       1.0  0.28229  0.74291  0.63498  1.0000
  S   S131      1.0  0.11943  0.71974  0.98756  1.0000
  C   C379      1.0  0.33859  0.50381  0.87749  1.0000
  H   H370      1.0  0.32478  0.59769  0.67706  1.0000
  H   H371      1.0  0.28418  0.60406  0.68602  1.0000
  H   H372      1.0  0.16097  0.65149  0.55827  1.0000
  H   H373      1.0  0.34830  0.65433  0.74464  1.0000
  S   S132      1.0  0.35185  0.51578  0.85265  1.0000
  Fe  Fe66      1.0  0.03069  0.72845  0.49697  1.0000
  C   C380      1.0  0.31633  0.50955  0.91277  1.0000
  H   H374      1.0  0.23974  0.60670  0.64237  1.0000
  H   H375      1.0  0.38715  0.59042  0.76983  1.0000
  C   C381      1.0  0.10831  0.69304  0.49988  1.0000
  C   C382      1.0  0.42388  0.50258  0.86047  1.0000
  H   H376      1.0  0.12499  0.73976  0.77937  1.0000
  H   H377      1.0  0.36167  0.62121  0.76621  1.0000
  C   C383      1.0  0.30486  0.59971  0.62382  1.0000
  C   C384      1.0  0.18752  0.60777  0.98431  1.0000
  H   H378      1.0  0.00306  0.67531  0.95282  1.0000
  N   N32       1.0  0.27461  0.60433  0.65147  1.0000
  C   C385      1.0  0.26516  0.72770  0.63603  1.0000
  C   C386      1.0  0.25069  0.60901  0.65711  1.0000
  C   C387      1.0  0.12724  0.74144  0.81560  1.0000
  C   C388      1.0  0.28028  0.71020  0.60231  1.0000
  H   H379      1.0  0.04134  0.63130  0.98023  1.0000
  S   S133      1.0  0.06764  0.71635  0.50191  1.0000
  H   H380      1.0  0.15013  0.62390  0.55573  1.0000
  C   C389      1.0  0.32583  0.51780  0.89211  1.0000
  C   C390      1.0  0.37260  0.62831  0.75297  1.0000
  H   H381      1.0  0.28685  0.72117  0.74067  1.0000
  H   H382      1.0  0.11250  0.61981  0.53684  1.0000
  S   S134      1.0  0.00403  0.73096  0.52520  1.0000
  C   C391      1.0  0.20481  0.59219  0.97824  1.0000
  C   C392      1.0  0.40719  0.54042  0.86309  1.0000
  H   H383      1.0  0.33838  0.59584  0.63698  1.0000
  C   C393      1.0  0.28978  0.60250  0.66847  1.0000
  H   H384      1.0  0.42293  0.61962  0.72640  1.0000
  H   H385      1.0  0.17326  0.52495  0.51096  1.0000
  H   H386      1.0  0.45116  0.74121  0.65161  1.0000
  C   C394      1.0  0.26385  0.71121  0.61968  1.0000
  C   C395      1.0  0.38675  0.73304  0.64272  1.0000
  C   C396      1.0  0.37857  0.65608  0.72342  1.0000
  C   C397      1.0  0.39479  0.50968  0.88806  1.0000
  H   H387      1.0  0.36887  0.73089  0.64018  1.0000
  C   C398      1.0  0.39951  0.64615  0.71817  1.0000
  H   H388      1.0  0.27972  0.69720  0.58977  1.0000
  C   C399      1.0  0.20212  0.72406  0.94633  1.0000
  S   S135      1.0  0.35407  0.49750  0.78822  1.0000
  S   S136      1.0  0.16338  0.68496  0.98869  1.0000
  H   H389      1.0  0.21993  0.72568  0.95145  1.0000
  N   N33       1.0  0.18889  0.74397  0.95288  1.0000
  Fe  Fe67      1.0  0.24297  0.51720  0.98965  1.0000
  H   H390      1.0  0.25264  0.72799  0.64982  1.0000
  H   H391      1.0  0.38227  0.52093  0.89567  1.0000
  H   H392      1.0  0.20161  0.72146  0.92780  1.0000
  H   H393      1.0  0.14051  0.67506  0.49990  1.0000
  H   H394      1.0  0.06596  0.64798  0.97401  1.0000
  H   H395      1.0  0.47389  0.50845  0.77820  1.0000
  C   C400      1.0  0.29784  0.72557  0.60152  1.0000
  H   H396      1.0  0.31104  0.72446  0.58843  1.0000
  Fe  Fe68      1.0  0.37103  0.50134  0.82162  1.0000
  C   C401      1.0  0.43327  0.73904  0.64903  1.0000
  C   C402      1.0  0.48760  0.50070  0.78736  1.0000
  S   S137      1.0  0.19489  0.64449  0.50087  1.0000
  H   H397      1.0  0.18113  0.73129  0.98608  1.0000
  C   C403      1.0  0.29861  0.74190  0.61811  1.0000
  C   C404      1.0  0.17921  0.74507  0.97411  1.0000
  H   H398      1.0  0.27478  0.74027  0.77608  1.0000
  S   S138      1.0  0.28058  0.51645  0.99629  1.0000
  C   C405      1.0  0.27206  0.93964  0.07710  1.0000
  C   C406      1.0  0.01103  0.95128  0.24062  1.0000
  H   H399      1.0  0.20376  0.90503  0.10321  1.0000
  H   H400      1.0  0.27477  0.80210  0.25450  1.0000
  C   C407      1.0  0.00957  0.82941  0.40388  1.0000
  C   C408      1.0  0.25987  0.79447  0.26232  1.0000
  H   H401      1.0  0.29022  0.76270  0.21887  1.0000
  C   C409      1.0  0.41708  0.75205  0.35552  1.0000
  C   C410      1.0  0.04181  0.92916  0.25719  1.0000
  C   C411      1.0  0.15845  0.75981  0.10473  1.0000
  N   N34       1.0  0.38820  0.94131  0.17021  1.0000
  H   H402      1.0  0.23677  0.81220  0.24086  1.0000
  C   C412      1.0  0.47354  0.81190  0.29036  1.0000
  Fe  Fe69      1.0  0.00628  0.86390  0.32599  1.0000
  Fe  Fe70      1.0  0.48247  0.77606  0.36024  1.0000
  H   H403      1.0  0.19509  0.78661  0.23856  1.0000
  S   S139      1.0  0.47048  0.80344  0.38348  1.0000
  Fe  Fe71      1.0  0.17706  0.79254  0.15404  1.0000
  S   S140      1.0  0.21238  0.80647  0.15038  1.0000
  S   S141      1.0  0.15463  0.77102  0.13234  1.0000
  Fe  Fe72      1.0  0.16889  0.81277  0.20123  1.0000
  S   S142      1.0  0.20348  0.82818  0.20126  1.0000
  S   S143      1.0  0.14462  0.81054  0.23198  1.0000
  Fe  Fe73      1.0  0.19743  0.83819  0.16506  1.0000
  S   S144      1.0  0.20238  0.87383  0.15103  1.0000
  Fe  Fe74      1.0  0.21639  0.79559  0.18695  1.0000
  H   H404      1.0  0.47953  0.93249  0.31128  1.0000
  S   S145      1.0  0.16163  0.82505  0.16618  1.0000
  S   S146      1.0  0.18243  0.77942  0.18948  1.0000
  Fe  Fe75      1.0  0.33959  0.99594  0.12075  1.0000
  H   H405      1.0  0.38278  0.94311  0.13470  1.0000
  H   H406      1.0  0.38878  0.94009  0.20623  1.0000
  C   C413      1.0  0.41294  0.93994  0.16741  1.0000
  C   C414      1.0  0.49466  0.88060  0.33248  1.0000
  C   C415      1.0  0.27619  0.91826  0.08598  1.0000
  Fe  Fe76      1.0  0.02661  0.86927  0.27786  1.0000
  S   S147      1.0  0.05495  0.86948  0.25047  1.0000
  S   S148      1.0  0.02818  0.89066  0.30883  1.0000
  C   C416      1.0  0.23829  0.80014  0.25469  1.0000
  H   H407      1.0  0.41880  0.94956  0.15215  1.0000
  H   H408      1.0  0.43824  0.84484  0.35469  1.0000
  H   H409      1.0  0.41847  0.92222  0.16574  1.0000
  H   H410      1.0  0.02034  0.96095  0.32202  1.0000
  H   H411      1.0  0.34691  0.94079  0.21113  1.0000
  Fe  Fe77      1.0  0.29851  0.96515  0.12650  1.0000
  S   S149      1.0  0.29363  0.92930  0.13957  1.0000
  S   S150      1.0  0.32588  0.96852  0.09942  1.0000
  H   H412      1.0  0.09249  0.78332  0.22178  1.0000
  H   H413      1.0  0.21869  0.75102  0.22404  1.0000
  H   H414      1.0  0.06645  0.81588  0.21795  1.0000
  H   H415      1.0  0.06287  0.98063  0.28835  1.0000
  N   N35       1.0  0.03078  0.94933  0.25502  1.0000
  H   H416      1.0  0.00241  0.80622  0.35269  1.0000
  C   C417      1.0  0.22783  0.88939  0.15029  1.0000
  C   C418      1.0  0.24905  0.87912  0.15292  1.0000
  C   C419      1.0  0.26896  0.89174  0.15009  1.0000
  C   C420      1.0  0.26793  0.91470  0.14453  1.0000
  C   C421      1.0  0.24671  0.92506  0.14222  1.0000
  C   C422      1.0  0.22679  0.91246  0.14516  1.0000
  H   H417      1.0  0.25013  0.86138  0.15677  1.0000
  H   H418      1.0  0.28528  0.88355  0.15194  1.0000
  H   H419      1.0  0.24563  0.94273  0.13804  1.0000
  H   H420      1.0  0.21046  0.92061  0.14325  1.0000
  C   C423      1.0  0.12047  0.82793  0.23760  1.0000
  C   C424      1.0  0.11492  0.84618  0.22362  1.0000
  C   C425      1.0  0.09503  0.85890  0.22813  1.0000
  C   C426      1.0  0.08041  0.85355  0.24659  1.0000
  C   C427      1.0  0.08606  0.83543  0.26070  1.0000
  C   C428      1.0  0.10599  0.82273  0.25622  1.0000
  H   H421      1.0  0.12587  0.85042  0.20925  1.0000
  H   H422      1.0  0.09086  0.87289  0.21710  1.0000
  H   H423      1.0  0.07501  0.83110  0.27496  1.0000
  H   H424      1.0  0.11012  0.80868  0.26719  1.0000
  H   H425      1.0  0.19530  0.81369  0.25147  1.0000
  H   H426      1.0  0.20980  0.89075  0.07692  1.0000
  S   S151      1.0  0.48575  0.86123  0.35440  1.0000
  C   C429      1.0  0.34123  0.94180  0.17537  1.0000
  C   C430      1.0  0.27604  0.75370  0.22637  1.0000
  H   H427      1.0  0.21468  0.93821  0.07685  1.0000
  H   H428      1.0  0.48168  0.84693  0.28701  1.0000
  H   H429      1.0  0.34107  0.94297  0.13906  1.0000
  C   C431      1.0  0.23195  0.93243  0.07931  1.0000
  Fe  Fe78      1.0  0.47219  0.99130  0.22918  1.0000
  C   C432      1.0  0.12237  0.76787  0.19142  1.0000
  C   C433      1.0  0.25795  0.90422  0.09120  1.0000
  S   S152      1.0  0.99843  0.76454  0.42549  1.0000
  S   S153      1.0  0.49455  0.78184  0.44400  1.0000
  C   C434      1.0  0.05671  0.74854  0.43624  1.0000
  H   H430      1.0  0.10090  0.76949  0.45799  1.0000
  C   C435      1.0  0.32530  0.99056  0.01377  1.0000
  H   H431      1.0  0.41363  0.83922  0.33814  1.0000
  C   C436      1.0  0.35473  0.94103  0.19433  1.0000
  H   H432      1.0  0.04712  0.76416  0.43539  1.0000
  H   H433      1.0  0.18312  0.79054  0.26659  1.0000
  H   H434      1.0  0.11954  0.79551  0.15531  1.0000
  H   H435      1.0  0.22239  0.88138  0.10286  1.0000
  C   C437      1.0  0.43034  0.99566  0.17095  1.0000
  H   H436      1.0  0.13395  0.76559  0.17646  1.0000
  H   H437      1.0  0.06911  0.91071  0.27275  1.0000
  C   C438      1.0  0.35144  0.94231  0.15386  1.0000
  C   C439      1.0  0.21713  0.89642  0.09284  1.0000
  H   H438      1.0  0.24660  0.96364  0.06716  1.0000
  S   S154      1.0  0.24987  0.78132  0.19979  1.0000
  C   C440      1.0  0.08297  0.76553  0.46234  1.0000
  S   S155      1.0  0.00699  0.84152  0.29568  1.0000
  N   N36       1.0  0.44454  0.82507  0.32563  1.0000
  C   C441      1.0  0.44591  0.80304  0.31986  1.0000
  C   C442      1.0  0.45650  0.84078  0.31344  1.0000
  C   C443      1.0  0.46048  0.79611  0.30221  1.0000
  C   C444      1.0  0.47147  0.83444  0.29588  1.0000
  C   C445      1.0  0.06068  0.92688  0.27083  1.0000
  C   C446      1.0  0.42971  0.83208  0.34457  1.0000
  H   H439      1.0  0.43607  0.79059  0.32919  1.0000
  H   H440      1.0  0.45508  0.85831  0.31776  1.0000
  H   H441      1.0  0.46202  0.77847  0.29828  1.0000
  C   C447      1.0  0.30216  0.99394  0.01865  1.0000
  C   C448      1.0  0.24983  0.94685  0.07378  1.0000
  H   H442      1.0  0.19084  0.77459  0.09715  1.0000
  C   C449      1.0  0.41967  0.99388  0.19232  1.0000
  C   C450      1.0  0.48269  0.90104  0.32990  1.0000
  N   N37       1.0  0.10725  0.78733  0.18869  1.0000
  C   C451      1.0  0.10784  0.79982  0.16908  1.0000
  C   C452      1.0  0.09249  0.79283  0.20600  1.0000
  C   C453      1.0  0.09364  0.81859  0.16662  1.0000
  C   C454      1.0  0.07776  0.81125  0.20396  1.0000
  C   C455      1.0  0.07853  0.82432  0.18421  1.0000
  H   H443      1.0  0.02983  0.98381  0.26388  1.0000
  S   S156      1.0  0.02787  0.76529  0.48769  1.0000
  S   S157      1.0  0.46228  0.75120  0.33990  1.0000
  H   H444      1.0  0.09458  0.82872  0.15125  1.0000
  H   H445      1.0  0.15858  0.76444  0.99746  1.0000
  H   H446      1.0  0.07252  0.78086  0.45929  1.0000
  H   H447      1.0  0.00052  0.93603  0.24237  1.0000
  H   H448      1.0  0.20681  0.76481  0.28672  1.0000
  H   H449      1.0  0.29339  0.91285  0.08947  1.0000
  H   H450      1.0  0.08141  0.76118  0.48068  1.0000
  C   C456      1.0  0.17965  0.75509  0.06914  1.0000
  H   H451      1.0  0.46859  0.90478  0.34136  1.0000
  H   H452      1.0  0.42199  0.76453  0.36735  1.0000
  H   H453      1.0  0.03590  0.91460  0.24855  1.0000
  H   H454      1.0  0.42577  0.81782  0.35629  1.0000
  H   H455      1.0  0.38186  0.75247  0.36659  1.0000
  H   H456      1.0  0.42141  0.94725  0.18206  1.0000
  H   H457      1.0  0.28602  0.95077  0.07305  1.0000
  N   N38       1.0  0.23616  0.91141  0.08788  1.0000
  C   C457      1.0  0.06833  0.94545  0.28216  1.0000
  H   H458      1.0  0.32285  0.94208  0.17725  1.0000
  C   C458      1.0  0.01184  0.97508  0.31414  1.0000
  C   C459      1.0  0.37507  0.94214  0.15154  1.0000
  C   C460      1.0  0.37836  0.94061  0.19142  1.0000
  C   C461      1.0  0.17761  0.76418  0.09098  1.0000
  H   H459      1.0  0.08272  0.94382  0.29309  1.0000
  S   S158      1.0  0.43506  0.99078  0.21777  1.0000
  H   H460      1.0  0.26133  0.88782  0.09859  1.0000
  H   H461      1.0  0.06771  0.83908  0.18278  1.0000
  N   N39       1.0  0.21948  0.78990  0.26378  1.0000
  H   H462      1.0  0.99975  0.96544  0.24589  1.0000
  S   S159      1.0  0.31350  0.99106  0.14847  1.0000
  C   C462      1.0  0.48886  0.91685  0.31279  1.0000
  C   C463      1.0  0.25393  0.75900  0.21951  1.0000
  C   C464      1.0  0.19720  0.79539  0.25471  1.0000
  H   H463      1.0  0.01659  0.95374  0.22271  1.0000
  H   H464      1.0  0.27885  0.77281  0.28463  1.0000
  H   H465      1.0  0.19453  0.75862  0.05868  1.0000
  C   C465      1.0  0.03856  0.96778  0.26554  1.0000
  C   C466      1.0  0.22158  0.77358  0.28013  1.0000
  C   C467      1.0  0.05730  0.96609  0.27944  1.0000
  H   H466      1.0  0.48540  0.80662  0.27710  1.0000
  S   S160      1.0  0.47611  0.99044  0.26727  1.0000
  H   H467      1.0  0.44865  0.99555  0.16949  1.0000
  C   C468      1.0  0.00375  0.80747  0.37081  1.0000
  S   S161      1.0  0.27506  0.98974  0.10963  1.0000
  H   H468      1.0  0.01276  0.84536  0.41144  1.0000
  Fe  Fe79      1.0  0.00132  0.75546  0.46339  1.0000
  Fe  Fe80      1.0  0.30344  0.99471  0.08340  1.0000
  H   H469      1.0  0.11233  0.75242  0.19371  1.0000
  S   S162      1.0  0.29043  0.99380  0.04694  1.0000
  C   C469      1.0  0.26216  0.77800  0.27914  1.0000
  S   S163      1.0  0.00959  0.85363  0.36363  1.0000
  H   H470      1.0  0.13307  0.77005  0.20634  1.0000
  C   C470      1.0  0.39580  0.99404  0.19370  1.0000
  H   H471      1.0  0.24468  0.75394  0.30050  1.0000
  C   C471      1.0  0.00103  0.78826  0.38490  1.0000
  H   H472      1.0  0.49438  0.75991  0.48758  1.0000
  H   H473      1.0  0.38728  0.99279  0.21009  1.0000
  H   H474      1.0  0.00823  0.81151  0.43608  1.0000
  C   C472      1.0  0.00790  0.82830  0.38021  1.0000
  C   C473      1.0  0.00700  0.81018  0.41795  1.0000
  C   C474      1.0  0.24293  0.76744  0.28811  1.0000
  Fe  Fe81      1.0  0.49650  0.82527  0.36498  1.0000
  C   C475      1.0  0.00259  0.78942  0.40859  1.0000
  H   H475      1.0  0.36443  0.99525  0.17546  1.0000
  H   H476      1.0  0.33690  0.98839  0.02747  1.0000
  C   C476      1.0  0.38275  0.99547  0.17406  1.0000
  N   N40       1.0  0.07559  0.74665  0.44907  1.0000
  C   C477      1.0  0.23574  0.74725  0.22928  1.0000
  H   H477      1.0  0.47353  0.92960  0.81113  1.0000
  C   C478      1.0  0.28422  0.75939  0.65284  1.0000
  C   C479      1.0  0.13877  0.74731  0.91725  1.0000
  H   H478      1.0  0.11364  0.81864  0.80570  1.0000
  C   C480      1.0  0.05425  0.92900  0.73157  1.0000
  H   H479      1.0  0.46542  0.83867  0.53003  1.0000
  C   C481      1.0  0.49587  0.88547  0.65603  1.0000
  H   H480      1.0  0.08684  0.91202  0.64866  1.0000
  H   H481      1.0  0.24769  0.94432  0.95206  1.0000
  C   C482      1.0  0.25738  0.83163  0.78109  1.0000
  H   H482      1.0  0.17255  0.79455  0.93200  1.0000
  H   H483      1.0  0.48769  0.87936  0.64129  1.0000
  Fe  Fe82      1.0  0.02216  0.87322  0.70846  1.0000
  S   S164      1.0  0.04688  0.87265  0.73765  1.0000
  S   S165      1.0  0.03209  0.88263  0.67262  1.0000
  Fe  Fe83      1.0  0.47395  0.78381  0.61625  1.0000
  H   H484      1.0  0.23952  0.85368  0.75816  1.0000
  S   S166      1.0  0.48176  0.81924  0.60473  1.0000
  H   H485      1.0  0.17816  0.75008  0.86342  1.0000
  H   H486      1.0  0.11187  0.78670  0.84644  1.0000
  N   N41       1.0  0.10827  0.78405  0.81081  1.0000
  H   H487      1.0  0.08901  0.81200  0.82324  1.0000
  H   H488      1.0  0.26204  0.80175  0.81923  1.0000
  C   C483      1.0  0.12335  0.75471  0.83448  1.0000
  Fe  Fe84      1.0  0.29276  0.96465  0.87175  1.0000
  S   S167      1.0  0.28136  0.92813  0.86962  1.0000
  S   S168      1.0  0.32910  0.96822  0.88214  1.0000
  Fe  Fe85      1.0  0.17304  0.80242  0.83450  1.0000
  S   S169      1.0  0.20973  0.81188  0.82939  1.0000
  S   S170      1.0  0.15497  0.79364  0.86829  1.0000
  Fe  Fe86      1.0  0.16170  0.81460  0.78531  1.0000
  S   S171      1.0  0.19763  0.82451  0.77662  1.0000
  S   S172      1.0  0.13492  0.81266  0.75814  1.0000
  Fe  Fe87      1.0  0.20813  0.79375  0.79620  1.0000
  C   C484      1.0  0.18708  0.76172  0.93809  1.0000
  Fe  Fe88      1.0  0.19683  0.84197  0.81016  1.0000
  S   S173      1.0  0.20936  0.87806  0.81020  1.0000
  S   S174      1.0  0.17230  0.78231  0.80279  1.0000
  S   S175      1.0  0.16006  0.83403  0.81738  1.0000
  H   H489      1.0  0.47868  0.91763  0.65505  1.0000
  H   H490      1.0  0.46359  0.83421  0.55970  1.0000
  Fe  Fe89      1.0  0.48122  0.98484  0.76670  1.0000
  C   C485      1.0  0.27672  0.80808  0.80894  1.0000
  C   C486      1.0  0.44639  0.77682  0.51553  1.0000
  H   H491      1.0  0.34195  0.91549  0.94146  1.0000
  C   C487      1.0  0.26058  0.91485  0.85343  1.0000
  C   C488      1.0  0.25601  0.89208  0.85773  1.0000
  C   C489      1.0  0.24002  0.88066  0.84511  1.0000
  C   C490      1.0  0.22852  0.89186  0.82782  1.0000
  C   C491      1.0  0.23311  0.91460  0.82352  1.0000
  C   C492      1.0  0.24896  0.92607  0.83627  1.0000
  H   H492      1.0  0.26488  0.88321  0.87096  1.0000
  H   H493      1.0  0.23671  0.86318  0.84860  1.0000
  H   H494      1.0  0.22435  0.92345  0.81018  1.0000
  H   H495      1.0  0.25227  0.94355  0.83271  1.0000
  H   H496      1.0  0.45312  0.81051  0.50452  1.0000
  H   H497      1.0  0.28052  0.79589  0.79531  1.0000
  H   H498      1.0  0.05821  0.94248  0.65485  1.0000
  H   H499      1.0  0.31435  0.94446  0.97902  1.0000
  C   C493      1.0  0.44352  0.77088  0.55591  1.0000
  C   C494      1.0  0.06477  0.93294  0.66909  1.0000
  Fe  Fe90      1.0  0.00334  0.90810  0.67481  1.0000
  C   C495      1.0  0.42805  0.98480  0.80461  1.0000
  C   C496      1.0  0.07161  0.85605  0.74254  1.0000
  C   C497      1.0  0.07794  0.83795  0.72900  1.0000
  C   C498      1.0  0.09749  0.82507  0.73390  1.0000
  C   C499      1.0  0.11113  0.83025  0.75216  1.0000
  C   C500      1.0  0.10503  0.84862  0.76544  1.0000
  C   C501      1.0  0.08532  0.86132  0.76072  1.0000
  H   H500      1.0  0.06763  0.83369  0.71493  1.0000
  H   H501      1.0  0.10204  0.81093  0.72347  1.0000
  H   H502      1.0  0.11541  0.85300  0.77941  1.0000
  H   H503      1.0  0.08066  0.87532  0.77129  1.0000
  C   C502      1.0  0.13986  0.76701  0.90378  1.0000
  C   C503      1.0  0.15416  0.76826  0.88437  1.0000
  H   H504      1.0  0.10801  0.77758  0.77548  1.0000
  H   H505      1.0  0.08841  0.80856  0.79322  1.0000
  C   C504      1.0  0.49178  0.93178  0.81048  1.0000
  H   H506      1.0  0.25326  0.88822  0.77564  1.0000
  H   H507      1.0  0.12962  0.78142  0.90852  1.0000
  C   C505      1.0  0.11407  0.77621  0.83174  1.0000
  H   H508      1.0  0.34269  0.94106  0.92448  1.0000
  H   H509      1.0  0.44651  0.77041  0.49849  1.0000
  C   C506      1.0  0.09934  0.80691  0.80817  1.0000
  S   S176      1.0  0.43646  0.77397  0.61706  1.0000
  C   C507      1.0  0.23434  0.76132  0.74171  1.0000
  C   C508      1.0  0.44713  0.79369  0.55879  1.0000
  S   S177      1.0  0.32997  0.98959  0.94456  1.0000
  C   C509      1.0  0.42217  0.75273  0.63329  1.0000
  H   H510      1.0  0.25093  0.81660  0.77368  1.0000
  H   H511      1.0  0.08537  0.89780  0.71996  1.0000
  C   C510      1.0  0.08074  0.91582  0.66564  1.0000
  C   C511      1.0  0.49080  0.90726  0.66391  1.0000
  H   H512      1.0  0.43797  0.84065  0.54462  1.0000
  H   H513      1.0  0.44106  0.75988  0.57056  1.0000
  C   C512      1.0  0.25104  0.85251  0.77209  1.0000
  N   N42       1.0  0.31248  0.93614  0.94423  1.0000
  C   C513      1.0  0.29867  0.93264  0.92653  1.0000
  C   C514      1.0  0.30342  0.94152  0.96499  1.0000
  C   C515      1.0  0.27516  0.93533  0.92915  1.0000
  C   C516      1.0  0.28000  0.94453  0.96816  1.0000
  C   C517      1.0  0.26583  0.94156  0.95004  1.0000
  C   C518      1.0  0.33708  0.93347  0.94096  1.0000
  H   H514      1.0  0.30584  0.92815  0.91012  1.0000
  C   C519      1.0  0.44327  0.76240  0.53413  1.0000
  H   H515      1.0  0.26433  0.93306  0.91487  1.0000
  H   H516      1.0  0.15401  0.79640  0.97032  1.0000
  S   S178      1.0  0.49423  0.94367  0.69190  1.0000
  N   N43       1.0  0.27112  0.83015  0.79928  1.0000
  H   H517      1.0  0.48975  0.96373  0.82635  1.0000
  S   S179      1.0  0.23874  0.77126  0.78730  1.0000
  C   C520      1.0  0.17456  0.78086  0.94412  1.0000
  C   C521      1.0  0.45444  0.83150  0.54385  1.0000
  C   C522      1.0  0.27862  0.84911  0.80912  1.0000
  H   H518      1.0  0.34633  0.94250  0.95405  1.0000
  C   C523      1.0  0.24131  0.75053  0.72159  1.0000
  H   H519      1.0  0.45791  0.96596  0.66940  1.0000
  C   C524      1.0  0.00857  0.82068  0.60961  1.0000
  H   H520      1.0  0.21971  0.77243  0.74186  1.0000
  C   C525      1.0  0.01526  0.79918  0.60233  1.0000
  H   H521      1.0  0.44710  0.80012  0.57580  1.0000
  C   C526      1.0  0.24634  0.75772  0.76151  1.0000
  H   H522      1.0  0.19471  0.76087  0.92123  1.0000
  H   H523      1.0  0.26775  0.76213  0.66208  1.0000
  H   H524      1.0  0.28881  0.84805  0.82404  1.0000
  C   C527      1.0  0.11203  0.77115  0.79217  1.0000
  H   H525      1.0  0.27832  0.88530  0.80851  1.0000
  H   H526      1.0  0.10034  0.88953  0.68163  1.0000
  C   C528      1.0  0.45009  0.79953  0.51905  1.0000
  C   C529      1.0  0.07973  0.90797  0.70578  1.0000
  C   C530      1.0  0.39504  0.98027  0.83066  1.0000
  H   H527      1.0  0.03684  0.92217  0.73286  1.0000
  H   H528      1.0  0.28979  0.77579  0.64576  1.0000
  H   H529      1.0  0.42282  0.97853  0.68939  1.0000
  C   C531      1.0  0.05651  0.93716  0.69099  1.0000
  C   C532      1.0  0.16408  0.78183  0.96551  1.0000
  Fe  Fe91      1.0  0.00609  0.85762  0.66224  1.0000
  S   S180      1.0  0.45538  0.97482  0.79496  1.0000
  H   H530      1.0  0.27304  0.94980  0.98441  1.0000
  H   H531      1.0  0.06430  0.92067  0.74501  1.0000
  H   H532      1.0  0.29178  0.80855  0.81971  1.0000
  C   C533      1.0  0.49444  0.99046  0.65855  1.0000
  H   H533      1.0  0.05351  0.94722  0.73491  1.0000
  S   S181      1.0  0.29496  0.99294  0.84595  1.0000
  N   N44       1.0  0.06405  0.92480  0.70899  1.0000
  N   N45       1.0  0.45080  0.80761  0.54050  1.0000
  H   H534      1.0  0.12791  0.74859  0.85112  1.0000
  C   C534      1.0  0.25886  0.87191  0.78181  1.0000
  C   C535      1.0  0.27285  0.87025  0.80036  1.0000
  H   H535      1.0  0.35138  0.98700  0.98762  1.0000
  H   H536      1.0  0.42430  0.95813  0.82939  1.0000
  H   H537      1.0  0.38653  0.97100  0.84417  1.0000
  C   C536      1.0  0.08831  0.90323  0.68409  1.0000
  C   C537      1.0  0.01092  0.79196  0.58025  1.0000
  C   C538      1.0  0.39885  0.74957  0.63023  1.0000
  H   H538      1.0  0.01303  0.98736  0.63891  1.0000
  H   H539      1.0  0.39007  0.76005  0.61815  1.0000
  S   S182      1.0  0.01358  0.82822  0.63820  1.0000
  C   C539      1.0  0.00140  0.97537  0.69421  1.0000
  C   C540      1.0  0.41654  0.97302  0.82220  1.0000
  H   H540      1.0  0.31266  0.75341  0.61775  1.0000
  H   H541      1.0  0.23187  0.75346  0.70642  1.0000
  H   H542      1.0  0.04370  0.95014  0.69344  1.0000
  C   C541      1.0  0.16716  0.74943  0.87835  1.0000
  C   C542      1.0  0.45601  0.98340  0.67396  1.0000
  S   S183      1.0  0.00768  0.94384  0.65991  1.0000
  C   C543      1.0  0.16652  0.76391  0.98069  1.0000
  H   H543      1.0  0.02389  0.78797  0.61388  1.0000
  H   H544      1.0  0.01623  0.77541  0.57502  1.0000
  H   H545      1.0  0.29663  0.75322  0.66538  1.0000
  S   S184      1.0  0.47425  0.99212  0.73023  1.0000
  S   S185      1.0  0.27901  0.98668  0.89971  1.0000
  C   C544      1.0  0.12160  0.74970  0.79427  1.0000
  C   C545      1.0  0.00956  0.99007  0.65670  1.0000
  H   H546      1.0  0.49248  0.97414  0.65015  1.0000
  C   C546      1.0  0.31877  0.99258  0.97284  1.0000
  C   C547      1.0  0.33348  0.98980  0.99107  1.0000
  Fe  Fe92      1.0  0.31519  0.99178  0.90884  1.0000
  C   C548      1.0  0.99979  0.80618  0.56498  1.0000
  C   C549      1.0  0.00583  0.97146  0.67124  1.0000
  Fe  Fe93      1.0  0.99994  0.76711  0.51456  1.0000
  C   C550      1.0  0.43609  0.99042  0.68529  1.0000
  C   C551      1.0  0.29568  0.99620  0.97771  1.0000
  H   H547      1.0  0.12783  0.74667  0.93222  1.0000
  H   H548      1.0  0.99841  0.96137  0.70568  1.0000
  N   N46       1.0  0.91301  0.12224  0.31488  1.0000
  Fe  Fe94      1.0  0.70998  0.01673  0.12122  1.0000
  S   S186      1.0  0.71613  0.05185  0.13444  1.0000
  S   S187      1.0  0.67573  0.01265  0.10582  1.0000
  Fe  Fe95      1.0  0.96987  0.10822  0.28053  1.0000
  S   S188      1.0  0.97344  0.09539  0.31630  1.0000
  S   S189      1.0  0.93704  0.10483  0.26132  1.0000
  Fe  Fe96      1.0  0.80896  0.14445  0.16767  1.0000
  S   S190      1.0  0.78810  0.17424  0.15710  1.0000
  S   S191      1.0  0.80422  0.10815  0.15662  1.0000
  Fe  Fe97      1.0  0.84261  0.17380  0.19185  1.0000
  S   S192      1.0  0.82370  0.20587  0.18262  1.0000
  S   S193      1.0  0.87513  0.17815  0.21173  1.0000
  Fe  Fe98      1.0  0.79216  0.18706  0.19235  1.0000
  S   S194      1.0  0.75964  0.20310  0.20747  1.0000
  Fe  Fe99      1.0  0.82097  0.19135  0.14802  1.0000
  S   S195      1.0  0.81899  0.21202  0.11501  1.0000
  S   S196      1.0  0.81097  0.15582  0.20385  1.0000
  S   S197      1.0  0.84193  0.16069  0.15636  1.0000
  H   H549      1.0  0.54080  0.22728  0.47184  1.0000
  C   C552      1.0  0.91351  0.16790  0.30511  1.0000
  C   C553      1.0  0.71894  0.22184  0.30268  1.0000
  H   H550      1.0  0.75377  0.02821  0.02462  1.0000
  H   H551      1.0  0.89558  0.24022  0.09540  1.0000
  C   C554      1.0  0.60535  0.24241  0.35940  1.0000
  Fe  Fe100     1.0  0.52109  0.20591  0.35963  1.0000
  H   H552      1.0  0.89555  0.09169  0.32100  1.0000
  S   S198      1.0  0.52910  0.17283  0.37694  1.0000
  H   H553      1.0  0.51766  0.12673  0.39558  1.0000
  H   H554      1.0  0.96379  0.18322  0.38120  1.0000
  C   C555      1.0  0.83934  0.22812  0.09941  1.0000
  C   C556      1.0  0.99358  0.16269  0.37492  1.0000
  C   C557      1.0  0.89788  0.13132  0.30010  1.0000
  C   C558      1.0  0.83221  0.24084  0.08060  1.0000
  C   C559      1.0  0.62852  0.00249  0.07161  1.0000
  C   C560      1.0  0.75294  0.05077  0.06230  1.0000
  H   H555      1.0  0.94145  0.18603  0.19569  1.0000
  C   C561      1.0  0.95075  0.17066  0.19942  1.0000
  C   C562      1.0  0.75547  0.22274  0.22949  1.0000
  C   C563      1.0  0.97134  0.17126  0.21042  1.0000
  H   H556      1.0  0.92185  0.09361  0.33524  1.0000
  C   C564      1.0  0.94169  0.15011  0.19394  1.0000
  S   S199      1.0  0.54234  0.22878  0.33600  1.0000
  C   C565      1.0  0.86095  0.20708  0.04231  1.0000
  H   H557      1.0  0.86788  0.20263  0.05861  1.0000
  C   C566      1.0  0.86225  0.22815  0.10476  1.0000
  C   C567      1.0  0.72923  0.23797  0.33853  1.0000
  H   H558      1.0  0.73686  0.22032  0.29822  1.0000
  C   C568      1.0  0.61245  0.01045  0.08735  1.0000
  C   C569      1.0  0.98871  0.18889  0.40644  1.0000
  H   H559      1.0  0.65520  0.22899  0.31745  1.0000
  H   H560      1.0  0.86800  0.21846  0.11916  1.0000
  H   H561      1.0  0.98924  0.10061  0.19973  1.0000
  H   H562      1.0  0.70862  0.20798  0.27122  1.0000
  C   C570      1.0  0.92014  0.12559  0.24773  1.0000
  C   C571      1.0  0.92489  0.14839  0.24863  1.0000
  C   C572      1.0  0.91058  0.16425  0.23800  1.0000
  C   C573      1.0  0.89169  0.15751  0.22595  1.0000
  C   C574      1.0  0.88701  0.13470  0.22505  1.0000
  C   C575      1.0  0.90110  0.11888  0.23595  1.0000
  H   H563      1.0  0.93945  0.15382  0.25765  1.0000
  H   H564      1.0  0.91434  0.18186  0.23883  1.0000
  H   H565      1.0  0.87255  0.12924  0.21586  1.0000
  H   H566      1.0  0.89723  0.10128  0.23516  1.0000
  H   H567      1.0  0.97831  0.20101  0.41548  1.0000
  H   H568      1.0  0.97508  0.09980  0.22725  1.0000
  C   C576      1.0  0.74094  0.06688  0.14095  1.0000
  C   C577      1.0  0.73851  0.08909  0.14828  1.0000
  C   C578      1.0  0.75759  0.10199  0.15305  1.0000
  C   C579      1.0  0.77945  0.09281  0.15063  1.0000
  C   C580      1.0  0.78187  0.07061  0.14319  1.0000
  C   C581      1.0  0.76279  0.05772  0.13833  1.0000
  H   H569      1.0  0.72172  0.09640  0.15036  1.0000
  H   H570      1.0  0.75539  0.11898  0.15878  1.0000
  H   H571      1.0  0.79869  0.06332  0.14128  1.0000
  H   H572      1.0  0.76499  0.04072  0.13267  1.0000
  C   C582      1.0  0.97995  0.13781  0.43187  1.0000
  H   H573      1.0  0.50700  0.09884  0.39420  1.0000
  H   H574      1.0  0.63683  0.01391  0.05966  1.0000
  S   S200      1.0  0.98796  0.13997  0.28671  1.0000
  H   H575      1.0  0.88625  0.12070  0.29152  1.0000
  H   H576      1.0  0.92206  0.08930  0.30521  1.0000
  H   H577      1.0  0.88582  0.16136  0.28326  1.0000
  H   H578      1.0  0.94089  0.12832  0.33606  1.0000
  C   C583      1.0  0.92915  0.15843  0.31984  1.0000
  H   H579      1.0  0.91392  0.18565  0.30105  1.0000
  H   H580      1.0  0.94185  0.16870  0.32739  1.0000
  C   C584      1.0  0.72947  0.07535  0.08516  1.0000
  C   C585      1.0  0.52368  0.17437  0.48879  1.0000
  C   C586      1.0  0.59441  0.00711  0.17163  1.0000
  S   S201      1.0  0.72840  0.99974  0.09234  1.0000
  H   H581      1.0  0.78983  0.22208  0.24061  1.0000
  H   H582      1.0  0.59009  0.00159  0.11549  1.0000
  H   H583      1.0  0.96531  0.17371  0.47368  1.0000
  C   C587      1.0  0.73378  0.23241  0.23301  1.0000
  H   H584      1.0  0.89181  0.22184  0.02917  1.0000
  H   H585      1.0  0.59219  0.00749  0.28978  1.0000
  C   C588      1.0  0.92860  0.13546  0.32462  1.0000
  C   C589      1.0  0.70303  0.21494  0.28729  1.0000
  H   H586      1.0  0.72750  0.08719  0.09880  1.0000
  H   H587      1.0  0.54026  0.16692  0.48561  1.0000
  H   H588      1.0  0.59153  0.02497  0.17282  1.0000
  H   H589      1.0  0.62635  0.01062  0.15296  1.0000
  H   H590      1.0  0.51553  0.12617  0.31240  1.0000
  C   C590      1.0  0.67310  0.22675  0.31317  1.0000
  Fe  Fe101     1.0  0.99381  0.12647  0.32205  1.0000
  H   H591      1.0  0.68390  0.24063  0.34413  1.0000
  N   N47       1.0  0.73434  0.04436  0.05088  1.0000
  H   H592      1.0  0.97840  0.18711  0.21509  1.0000
  C   C591      1.0  0.58334  0.23373  0.35772  1.0000
  H   H593      1.0  0.69377  0.07428  0.07902  1.0000
  C   C592      1.0  0.98048  0.17868  0.38696  1.0000
  H   H594      1.0  0.74057  0.22367  0.34294  1.0000
  H   H595      1.0  0.81170  0.20631  0.01433  1.0000
  C   C593      1.0  0.87437  0.21783  0.02581  1.0000
  H   H596      1.0  0.73416  0.01062  0.04057  1.0000
  C   C594      1.0  0.77305  0.22930  0.24313  1.0000
  C   C595      1.0  0.50791  0.10986  0.31401  1.0000
  N   N48       1.0  0.77633  0.24596  0.16368  1.0000
  C   C596      1.0  0.98268  0.15119  0.21565  1.0000
  C   C597      1.0  0.97521  0.16127  0.46447  1.0000
  C   C598      1.0  0.61424  0.99902  0.16037  1.0000
  H   H597      1.0  0.72150  0.24458  0.35445  1.0000
  C   C599      1.0  0.89766  0.15431  0.29526  1.0000
  C   C600      1.0  0.87786  0.24051  0.09123  1.0000
  C   C601      1.0  0.71326  0.05253  0.05678  1.0000
  H   H598      1.0  0.72404  0.03050  0.01988  1.0000
  C   C602      1.0  0.53294  0.23087  0.48822  1.0000
  S   S202      1.0  0.97979  0.22089  0.48985  1.0000
  H   H599      1.0  0.94590  0.11441  0.19598  1.0000
  C   C603      1.0  0.73678  0.02762  0.03315  1.0000
  H   H600      1.0  0.69841  0.04688  0.04829  1.0000
  C   C604      1.0  0.67996  0.21753  0.29257  1.0000
  C   C605      1.0  0.75081  0.06648  0.07951  1.0000
  C   C606      1.0  0.71051  0.06814  0.07399  1.0000
  H   H601      1.0  0.76954  0.04366  0.05827  1.0000
  H   H602      1.0  0.92527  0.14946  0.18616  1.0000
  S   S203      1.0  0.52257  0.17937  0.44241  1.0000
  C   C607      1.0  0.50263  0.07221  0.29893  1.0000
  S   S204      1.0  0.55389  0.00380  0.19587  1.0000
  H   H603      1.0  0.76547  0.07144  0.08879  1.0000
  C   C608      1.0  0.95339  0.13037  0.19960  1.0000
  H   H604      1.0  0.75551  0.21790  0.15859  1.0000
  C   C609      1.0  0.86497  0.22405  0.00517  1.0000
  Fe  Fe102     1.0  0.50152  0.01817  0.26160  1.0000
  H   H605      1.0  0.95081  0.15915  0.43813  1.0000
  C   C610      1.0  0.57020  0.23934  0.33911  1.0000
  H   H606      1.0  0.51213  0.13184  0.44598  1.0000
  H   H607      1.0  0.97415  0.13204  0.41578  1.0000
  C   C611      1.0  0.91311  0.09804  0.31936  1.0000
  C   C612      1.0  0.83826  0.20296  0.03817  1.0000
  C   C613      1.0  0.98567  0.11013  0.21537  1.0000
  C   C614      1.0  0.51178  0.24153  0.48954  1.0000
  H   H608      1.0  0.82758  0.19520  0.05124  1.0000
  C   C615      1.0  0.82937  0.20949  0.01735  1.0000
  C   C616      1.0  0.76438  0.23127  0.14861  1.0000
  S   S205      1.0  0.68281  0.00268  0.04199  1.0000
  C   C617      1.0  0.99015  0.01220  0.29396  1.0000
  H   H609      1.0  0.98163  0.02634  0.28612  1.0000
  C   C618      1.0  0.96688  0.15306  0.44439  1.0000
  N   N49       1.0  0.71207  0.23088  0.32284  1.0000
  H   H610      1.0  0.52326  0.09773  0.28289  1.0000
  N   N50       1.0  0.84273  0.21988  0.00117  1.0000
  S   S206      1.0  0.98153  0.14948  0.35117  1.0000
  H   H611      1.0  0.57660  0.22264  0.37081  1.0000
  H   H612      1.0  0.59799  0.00803  0.24794  1.0000
  H   H613      1.0  0.66742  0.21252  0.28069  1.0000
  N   N51       1.0  0.97371  0.13112  0.21008  1.0000
  Fe  Fe103     1.0  0.50860  0.18622  0.40690  1.0000
  C   C619      1.0  0.68947  0.23334  0.32823  1.0000
  H   H614      1.0  0.60816  0.02814  0.08780  1.0000
  H   H615      1.0  0.77628  0.22265  0.13663  1.0000
  C   C620      1.0  0.76884  0.24504  0.26029  1.0000
  C   C621      1.0  0.51081  0.18190  0.47039  1.0000
  H   H616      1.0  0.50387  0.23823  0.30678  1.0000
  H   H617      1.0  0.61531  0.23787  0.37388  1.0000
  H   H618      1.0  0.81451  0.24100  0.07634  1.0000
  H   H619      1.0  0.72006  0.22752  0.22251  1.0000
  H   H620      1.0  0.75187  0.24109  0.13876  1.0000
  N   N52       1.0  0.99588  0.15424  0.47201  1.0000
  C   C622      1.0  0.51227  0.09363  0.29726  1.0000
  S   S207      1.0  0.50842  0.05267  0.27683  1.0000
  H   H621      1.0  0.52542  0.10585  0.41655  1.0000
  H   H622      1.0  0.66607  0.01757  0.99893  1.0000
  S   S208      1.0  0.50302  0.22000  0.39030  1.0000
  C   C623      1.0  0.51146  0.11229  0.40595  1.0000
  H   H623      1.0  0.50322  0.24640  0.47420  1.0000
  Fe  Fe104     1.0  0.72087  0.00874  0.85771  1.0000
  S   S209      1.0  0.69214  0.01677  0.88233  1.0000
  S   S210      1.0  0.74639  0.03136  0.83863  1.0000
  Fe  Fe105     1.0  0.50538  0.15789  0.62314  1.0000
  H   H624      1.0  0.76505  0.23315  0.78174  1.0000
  H   H625      1.0  0.75899  0.14038  0.73723  1.0000
  H   H626      1.0  0.77504  0.12948  0.76047  1.0000
  C   C624      1.0  0.88251  0.23469  0.83552  1.0000
  C   C625      1.0  0.94841  0.05185  0.71497  1.0000
  Fe  Fe106     1.0  0.97942  0.12489  0.69764  1.0000
  S   S211      1.0  0.97905  0.09997  0.66944  1.0000
  S   S212      1.0  0.94458  0.14003  0.70737  1.0000
  H   H627      1.0  0.92108  0.09483  0.74156  1.0000
  H   H628      1.0  0.61693  0.21992  0.61926  1.0000
  H   H629      1.0  0.70405  0.05697  0.83210  1.0000
  C   C626      1.0  0.50785  0.10307  0.65791  1.0000
  H   H630      1.0  0.56152  0.21474  0.54693  1.0000
  H   H631      1.0  0.93858  0.04114  0.66140  1.0000
  Fe  Fe107     1.0  0.53279  0.20089  0.61311  1.0000
  S   S213      1.0  0.56992  0.21157  0.61208  1.0000
  S   S214      1.0  0.52688  0.16986  0.59317  1.0000
  Fe  Fe108     1.0  0.80030  0.15651  0.82451  1.0000
  S   S215      1.0  0.78940  0.19265  0.81978  1.0000
  S   S216      1.0  0.77370  0.13456  0.84287  1.0000
  Fe  Fe109     1.0  0.84763  0.16550  0.80316  1.0000
  S   S217      1.0  0.83982  0.20200  0.79713  1.0000
  S   S218      1.0  0.88332  0.15043  0.79787  1.0000
  Fe  Fe110     1.0  0.82387  0.20140  0.83224  1.0000
  S   S219      1.0  0.82764  0.23197  0.85458  1.0000
  Fe  Fe111     1.0  0.80595  0.19070  0.78533  1.0000
  S   S220      1.0  0.79090  0.20270  0.75191  1.0000
  S   S221      1.0  0.83370  0.16560  0.83927  1.0000
  S   S222      1.0  0.81481  0.15384  0.78903  1.0000
  C   C627      1.0  0.77046  0.22430  0.74694  1.0000
  C   C628      1.0  0.51544  0.17655  0.51132  1.0000
  H   H632      1.0  0.88029  0.18464  0.83626  1.0000
  H   H633      1.0  0.77158  0.21947  0.71092  1.0000
  C   C629      1.0  0.70111  0.03670  0.80265  1.0000
  N   N53       1.0  0.94255  0.05669  0.69320  1.0000
  C   C630      1.0  0.92951  0.07520  0.68844  1.0000
  H   H634      1.0  0.66244  0.05852  0.84003  1.0000
  H   H635      1.0  0.91422  0.23547  0.89154  1.0000
  C   C631      1.0  0.92700  0.08401  0.72804  1.0000
  H   H636      1.0  0.76121  0.13782  0.79679  1.0000
  H   H637      1.0  0.89086  0.19914  0.81129  1.0000
  H   H638      1.0  0.78333  0.15522  0.74667  1.0000
  H   H639      1.0  0.99756  0.00016  0.72024  1.0000
  H   H640      1.0  0.53043  0.07730  0.64509  1.0000
  H   H641      1.0  0.96690  0.05034  0.66704  1.0000
  C   C632      1.0  0.73902  0.16533  0.80518  1.0000
  H   H642      1.0  0.91147  0.10397  0.70196  1.0000
  H   H643      1.0  0.87248  0.23424  0.82047  1.0000
  H   H644      1.0  0.95586  0.02563  0.68076  1.0000
  H   H645      1.0  0.50330  0.23925  0.54643  1.0000
  S   S223      1.0  0.50736  0.01189  0.76871  1.0000
  C   C633      1.0  0.83349  0.22635  0.97922  1.0000
  C   C634      1.0  0.65474  0.03875  0.81115  1.0000
  C   C635      1.0  0.85225  0.21730  0.89173  1.0000
  H   H646      1.0  0.69300  0.01544  0.77532  1.0000
  C   C636      1.0  0.76849  0.14507  0.75230  1.0000
  H   H647      1.0  0.91454  0.20137  0.86830  1.0000
  H   H648      1.0  0.85273  0.20095  0.88418  1.0000
  Fe  Fe112     1.0  0.50176  0.01792  0.73122  1.0000
  C   C637      1.0  0.92830  0.14334  0.73297  1.0000
  C   C638      1.0  0.90626  0.15256  0.73185  1.0000
  C   C639      1.0  0.89233  0.15496  0.75147  1.0000
  C   C640      1.0  0.90025  0.14807  0.77256  1.0000
  C   C641      1.0  0.92231  0.13886  0.77371  1.0000
  C   C642      1.0  0.93630  0.13656  0.75408  1.0000
  H   H649      1.0  0.89989  0.15792  0.71564  1.0000
  H   H650      1.0  0.87545  0.16210  0.75025  1.0000
  H   H651      1.0  0.92865  0.13348  0.78991  1.0000
  H   H652      1.0  0.95320  0.12949  0.75527  1.0000
  C   C643      1.0  0.72953  0.19008  0.77416  1.0000
  H   H653      1.0  0.87275  0.20722  0.91988  1.0000
  C   C644      1.0  0.58216  0.00389  0.80786  1.0000
  C   C645      1.0  0.90580  0.21632  0.86233  1.0000
  C   C646      1.0  0.74677  0.24492  0.71996  1.0000
  C   C647      1.0  0.75388  0.06006  0.84041  1.0000
  C   C648      1.0  0.74325  0.07459  0.85579  1.0000
  C   C649      1.0  0.74959  0.09726  0.85626  1.0000
  C   C650      1.0  0.76668  0.10572  0.84151  1.0000
  C   C651      1.0  0.77723  0.09122  0.82605  1.0000
  C   C652      1.0  0.77081  0.06857  0.82550  1.0000
  H   H654      1.0  0.73030  0.06835  0.86745  1.0000
  H   H655      1.0  0.74133  0.10830  0.86832  1.0000
  H   H656      1.0  0.79044  0.09738  0.81464  1.0000
  H   H657      1.0  0.77920  0.05749  0.81357  1.0000
  C   C653      1.0  0.75214  0.15233  0.79021  1.0000
  C   C654      1.0  0.76368  0.22869  0.72467  1.0000
  H   H658      1.0  0.52563  0.17076  0.52521  1.0000
  C   C655      1.0  0.94074  0.06542  0.73270  1.0000
  C   C656      1.0  0.72781  0.18441  0.79710  1.0000
  C   C657      1.0  0.89397  0.19561  0.82947  1.0000
  C   C658      1.0  0.95132  0.04277  0.67467  1.0000
  C   C659      1.0  0.54331  0.22374  0.50811  1.0000
  S   S224      1.0  0.63529  0.00481  0.85091  1.0000
  C   C660      1.0  0.54309  0.21825  0.54936  1.0000
  H   H659      1.0  0.74479  0.18170  0.74203  1.0000
  H   H660      1.0  0.73811  0.16091  0.82306  1.0000
  H   H661      1.0  0.59343  0.02393  0.83530  1.0000
  C   C661      1.0  0.74273  0.17665  0.75966  1.0000
  H   H662      1.0  0.54653  0.19851  0.70203  1.0000
  H   H663      1.0  0.72135  0.20517  0.76772  1.0000
  C   C662      1.0  0.51883  0.08198  0.65874  1.0000
  C   C663      1.0  0.84060  0.23493  0.88113  1.0000
  N   N54       1.0  0.56326  0.15397  0.65782  1.0000
  C   C664      1.0  0.54736  0.14913  0.67440  1.0000
  C   C665      1.0  0.57330  0.17445  0.65685  1.0000
  C   C666      1.0  0.54127  0.16495  0.69068  1.0000
  C   C667      1.0  0.56759  0.19069  0.67283  1.0000
  C   C668      1.0  0.55144  0.18589  0.68982  1.0000
  C   C669      1.0  0.56866  0.13775  0.64012  1.0000
  H   H664      1.0  0.53901  0.13309  0.67490  1.0000
  H   H665      1.0  0.58551  0.17849  0.64340  1.0000
  C   C670      1.0  0.86360  0.22093  0.91198  1.0000
  H   H666      1.0  0.57532  0.20705  0.67170  1.0000
  H   H667      1.0  0.83661  0.24435  0.97548  1.0000
  H   H668      1.0  0.58711  0.13742  0.63589  1.0000
  H   H669      1.0  0.56366  0.12053  0.64542  1.0000
  H   H670      1.0  0.55920  0.14231  0.62470  1.0000
  H   H671      1.0  0.67658  0.00875  0.95906  1.0000
  N   N55       1.0  0.66328  0.02663  0.79338  1.0000
  C   C671      1.0  0.92138  0.08900  0.70579  1.0000
  H   H672      1.0  0.55932  0.21468  0.50685  1.0000
  H   H673      1.0  0.71929  0.03544  0.79947  1.0000
  C   C672      1.0  0.60719  0.23221  0.62876  1.0000
  H   H674      1.0  0.91032  0.18621  0.83012  1.0000
  C   C673      1.0  0.51499  0.06682  0.67703  1.0000
  H   H675      1.0  0.56733  0.01424  0.80485  1.0000
  C   C674      1.0  0.90581  0.23555  0.87547  1.0000
  H   H676      1.0  0.52370  0.05078  0.67736  1.0000
  C   C675      1.0  0.66924  0.04979  0.82537  1.0000
  C   C676      1.0  0.49990  0.07244  0.69479  1.0000
  C   C677      1.0  0.51210  0.23757  0.53017  1.0000
  C   C678      1.0  0.68553  0.00066  0.97272  1.0000
  N   N56       1.0  0.75392  0.15813  0.76777  1.0000
  S   S225      1.0  0.51381  0.12155  0.63439  1.0000
  C   C679      1.0  0.59709  0.00940  0.82513  1.0000
  N   N57       1.0  0.89449  0.21620  0.84248  1.0000
  H   H677      1.0  0.62994  0.01761  0.78351  1.0000
  C   C680      1.0  0.58335  0.23185  0.62858  1.0000
  H   H678      1.0  0.92573  0.07969  0.67111  1.0000
  H   H679      1.0  0.54112  0.23030  0.56339  1.0000
  C   C681      1.0  0.86349  0.24218  0.92188  1.0000
  S   S226      1.0  0.87910  0.24594  0.94679  1.0000
  H   H680      1.0  0.84195  0.21646  0.96557  1.0000
  C   C682      1.0  0.69256  0.04880  0.82101  1.0000
  H   H681      1.0  0.71812  0.19497  0.80866  1.0000
  N   N58       1.0  0.53290  0.22723  0.52874  1.0000
  S   S227      1.0  0.51313  0.18805  0.64356  1.0000
  H   H682      1.0  0.94575  0.06178  0.74987  1.0000
  H   H683      1.0  0.63667  0.03934  0.81497  1.0000
  H   H684      1.0  0.99575  0.20858  0.60154  1.0000
  C   C683      1.0  0.68616  0.02545  0.78907  1.0000
  H   H685      1.0  0.95940  0.03764  0.71870  1.0000
  H   H686      1.0  0.53459  0.20244  0.55453  1.0000
  H   H687      1.0  0.52835  0.16113  0.70353  1.0000
  C   C684      1.0  0.76007  0.23635  0.76453  1.0000
  H   H688      1.0  0.65103  0.01880  0.76107  1.0000
  S   S228      1.0  0.50296  0.21931  0.59844  1.0000
  H   H689      1.0  0.81494  0.22377  0.97863  1.0000
  C   C685      1.0  0.64811  0.01420  0.77916  1.0000
  C   C686      1.0  0.50126  0.24494  0.51063  1.0000
  H   H690      1.0  0.87553  0.23242  0.99245  1.0000
  C   C687      1.0  0.67960  0.00561  0.99545  1.0000
  H   H691      1.0  0.99113  0.17039  0.50387  1.0000
  H   H692      1.0  0.50054  0.00279  0.64560  1.0000
  H   H693      1.0  0.87810  0.32672  0.46621  1.0000
  C   C688      1.0  0.51888  0.49097  0.12923  1.0000
  H   H694      1.0  0.81598  0.48660  0.44932  1.0000
  H   H695      1.0  0.62535  0.36199  0.32606  1.0000
  H   H696      1.0  0.61090  0.32551  0.31935  1.0000
  C   C689      1.0  0.99448  0.31428  0.44858  1.0000
  C   C690      1.0  0.92401  0.29513  0.48284  1.0000
  H   H697      1.0  0.97470  0.35406  0.03091  1.0000
  C   C691      1.0  0.60906  0.32936  0.30104  1.0000
  H   H698      1.0  0.59164  0.34971  0.26504  1.0000
  H   H699      1.0  0.59349  0.32095  0.29570  1.0000
  Fe  Fe113     1.0  0.63272  0.47533  0.21795  1.0000
  S   S229      1.0  0.64749  0.45400  0.24673  1.0000
  S   S230      1.0  0.62219  0.46457  0.18372  1.0000
  S   S231      1.0  0.67308  0.48888  0.14389  1.0000
  Fe  Fe114     1.0  0.88622  0.28438  0.02071  1.0000
  Fe  Fe115     1.0  0.59316  0.48979  0.18811  1.0000
  S   S232      1.0  0.89386  0.32094  0.01512  1.0000
  C   C692      1.0  0.74713  0.25463  0.26387  1.0000
  S   S233      1.0  0.85702  0.28503  0.99719  1.0000
  S   S234      1.0  0.81605  0.44255  0.46995  1.0000
  C   C693      1.0  0.51077  0.47373  0.18262  1.0000
  C   C694      1.0  0.61712  0.36813  0.31099  1.0000
  C   C695      1.0  0.59813  0.36132  0.27704  1.0000
  Fe  Fe116     1.0  0.79554  0.36095  0.46928  1.0000
  S   S235      1.0  0.78389  0.33978  0.43997  1.0000
  S   S236      1.0  0.82921  0.37818  0.46514  1.0000
  Fe  Fe117     1.0  0.67442  0.32884  0.29091  1.0000
  S   S237      1.0  0.66280  0.32867  0.32746  1.0000
  S   S238      1.0  0.65599  0.34832  0.26304  1.0000
  Fe  Fe118     1.0  0.71130  0.29326  0.29903  1.0000
  S   S239      1.0  0.70223  0.29087  0.33630  1.0000
  S   S240      1.0  0.74264  0.27336  0.28664  1.0000
  Fe  Fe119     1.0  0.66572  0.29119  0.32580  1.0000
  S   S241      1.0  0.64259  0.26692  0.34568  1.0000
  Fe  Fe120     1.0  0.70000  0.32831  0.33548  1.0000
  S   S242      1.0  0.71135  0.35254  0.36245  1.0000
  S   S243      1.0  0.67504  0.29097  0.28865  1.0000
  S   S244      1.0  0.71138  0.33107  0.29879  1.0000
  H   H700      1.0  0.97044  0.27911  0.99679  1.0000
  H   H701      1.0  0.68074  0.38542  0.20067  1.0000
  H   H702      1.0  0.62391  0.32210  0.29164  1.0000
  C   C696      1.0  0.81529  0.48891  0.46740  1.0000
  H   H703      1.0  0.76808  0.27203  0.21356  1.0000
  C   C697      1.0  0.76183  0.34261  0.42015  1.0000
  C   C698      1.0  0.74702  0.36109  0.41968  1.0000
  C   C699      1.0  0.73113  0.36344  0.40236  1.0000
  C   C700      1.0  0.72980  0.34739  0.38533  1.0000
  C   C701      1.0  0.74419  0.32862  0.38617  1.0000
  C   C702      1.0  0.76009  0.32629  0.40345  1.0000
  H   H704      1.0  0.74803  0.37372  0.43244  1.0000
  H   H705      1.0  0.72003  0.37799  0.40194  1.0000
  H   H706      1.0  0.74343  0.31614  0.37323  1.0000
  H   H707      1.0  0.77143  0.31191  0.40366  1.0000
  H   H708      1.0  0.62459  0.40263  0.31763  1.0000
  Fe  Fe121     1.0  0.97728  0.25822  0.48271  1.0000
  H   H709      1.0  0.51413  0.45708  0.17637  1.0000
  C   C703      1.0  0.95180  0.27161  0.05722  1.0000
  N   N59       1.0  0.98388  0.32409  0.46885  1.0000
  H   H710      1.0  0.84206  0.26274  0.05258  1.0000
  C   C704      1.0  0.79366  0.41301  0.42452  1.0000
  H   H711      1.0  0.82692  0.27089  0.16892  1.0000
  C   C705      1.0  0.64980  0.42454  0.25062  1.0000
  C   C706      1.0  0.64026  0.40954  0.23588  1.0000
  C   C707      1.0  0.64277  0.38628  0.23966  1.0000
  C   C708      1.0  0.65467  0.37773  0.25828  1.0000
  C   C709      1.0  0.66439  0.39273  0.27289  1.0000
  C   C710      1.0  0.66191  0.41598  0.26908  1.0000
  H   H712      1.0  0.63094  0.41587  0.22157  1.0000
  H   H713      1.0  0.63518  0.37481  0.22825  1.0000
  H   H714      1.0  0.67358  0.38643  0.28728  1.0000
  H   H715      1.0  0.66938  0.42743  0.28060  1.0000
  S   S245      1.0  0.89140  0.26705  0.05498  1.0000
  H   H716      1.0  0.60825  0.27346  0.31082  1.0000
  H   H717      1.0  0.73958  0.25152  0.33054  1.0000
  Fe  Fe122     1.0  0.81254  0.40661  0.48469  1.0000
  H   H718      1.0  0.78301  0.40703  0.43909  1.0000
  C   C711      1.0  0.98076  0.29973  0.04779  1.0000
  H   H719      1.0  0.78920  0.43080  0.42088  1.0000
  C   C712      1.0  0.89064  0.31962  0.47732  1.0000
  C   C713      1.0  0.79885  0.27317  0.19300  1.0000
  C   C714      1.0  0.69094  0.41754  0.21265  1.0000
  C   C715      1.0  0.67512  0.41188  0.17609  1.0000
  H   H720      1.0  0.67153  0.44178  0.15544  1.0000
  H   H721      1.0  0.69609  0.41066  0.22882  1.0000
  C   C716      1.0  0.87078  0.25294  0.07221  1.0000
  H   H722      1.0  0.60667  0.41704  0.28267  1.0000
  H   H723      1.0  0.98407  0.30019  0.44292  1.0000
  H   H724      1.0  0.71287  0.25561  0.25247  1.0000
  H   H725      1.0  0.95371  0.33328  0.45182  1.0000
  H   H726      1.0  0.96641  0.26117  0.06269  1.0000
  S   S246      1.0  0.94560  0.27747  0.47051  1.0000
  H   H727      1.0  0.92415  0.30624  0.05091  1.0000
  N   N60       1.0  0.79026  0.39887  0.40497  1.0000
  C   C717      1.0  0.77339  0.40410  0.39030  1.0000
  C   C718      1.0  0.80284  0.37964  0.40245  1.0000
  C   C719      1.0  0.76908  0.39010  0.37226  1.0000
  C   C720      1.0  0.79900  0.36528  0.38461  1.0000
  C   C721      1.0  0.78197  0.37056  0.36947  1.0000
  H   H728      1.0  0.81531  0.37479  0.41480  1.0000
  H   H729      1.0  0.75509  0.39373  0.36119  1.0000
  H   H730      1.0  0.80835  0.34957  0.38332  1.0000
  H   H731      1.0  0.77804  0.35903  0.35623  1.0000
  C   C722      1.0  0.61666  0.39117  0.30639  1.0000
  C   C723      1.0  0.80957  0.26618  0.17298  1.0000
  S   S247      1.0  0.77836  0.39006  0.48671  1.0000
  H   H732      1.0  0.93429  0.34455  0.03794  1.0000
  H   H733      1.0  0.58995  0.39038  0.25640  1.0000
  C   C724      1.0  0.52916  0.48770  0.18684  1.0000
  H   H734      1.0  0.93509  0.35014  0.48550  1.0000
  N   N61       1.0  0.95841  0.29457  0.05135  1.0000
  H   H735      1.0  0.66815  0.40100  0.16367  1.0000
  C   C725      1.0  0.57941  0.25379  0.32226  1.0000
  N   N62       1.0  0.60771  0.35355  0.29650  1.0000
  S   S248      1.0  0.55728  0.47847  0.17905  1.0000
  C   C726      1.0  0.79792  0.25265  0.15833  1.0000
  C   C727      1.0  0.60142  0.26252  0.32397  1.0000
  C   C728      1.0  0.98700  0.32134  0.04089  1.0000
  H   H736      1.0  0.78251  0.24972  0.27096  1.0000
  C   C729      1.0  0.61454  0.25687  0.34260  1.0000
  H   H737      1.0  0.69892  0.44795  0.24236  1.0000
  C   C730      1.0  0.97020  0.33757  0.03737  1.0000
  S   S249      1.0  0.80788  0.44931  0.99859  1.0000
  H   H738      1.0  0.94425  0.26381  0.04233  1.0000
  H   H739      1.0  0.93883  0.27158  0.07124  1.0000
  H   H740      1.0  0.81167  0.41265  0.42954  1.0000
  C   C731      1.0  0.81478  0.46994  0.48193  1.0000
  H   H741      1.0  0.56947  0.25817  0.30774  1.0000
  C   C732      1.0  0.60656  0.39926  0.28680  1.0000
  C   C733      1.0  0.84780  0.25320  0.06708  1.0000
  C   C734      1.0  0.59716  0.38428  0.27203  1.0000
  C   C735      1.0  0.96275  0.33363  0.46750  1.0000
  H   H742      1.0  0.99391  0.28701  0.04948  1.0000
  C   C736      1.0  0.76545  0.25336  0.18289  1.0000
  N   N63       1.0  0.69213  0.44003  0.20819  1.0000
  C   C737      1.0  0.77656  0.26691  0.19793  1.0000
  C   C738      1.0  0.68564  0.44864  0.18779  1.0000
  C   C739      1.0  0.94749  0.33220  0.04123  1.0000
  C   C740      1.0  0.94187  0.31048  0.04830  1.0000
  H   H743      1.0  0.76274  0.41881  0.39287  1.0000
  C   C741      1.0  0.70135  0.45492  0.22493  1.0000
  C   C742      1.0  0.68226  0.40315  0.19676  1.0000
  H   H744      1.0  0.68701  0.46640  0.18406  1.0000
  H   H745      1.0  0.80781  0.28331  0.20475  1.0000
  C   C743      1.0  0.67694  0.43475  0.17149  1.0000
  H   H746      1.0  0.90735  0.30012  0.45118  1.0000
  H   H747      1.0  0.71966  0.45760  0.22127  1.0000
  H   H748      1.0  0.69220  0.47132  0.22476  1.0000
  H   H749      1.0  0.53016  0.47706  0.12506  1.0000
  C   C744      1.0  0.90732  0.30449  0.46883  1.0000
  H   H750      1.0  0.85052  0.42551  0.99996  1.0000
  S   S250      1.0  0.69932  0.49258  0.03760  1.0000
  H   H751      1.0  0.72623  0.48362  0.07822  1.0000
  C   C745      1.0  0.70874  0.48642  0.08352  1.0000
  H   H752      1.0  0.99588  0.32704  0.43480  1.0000
  Fe  Fe123     1.0  0.64287  0.49331  0.16932  1.0000
  C   C746      1.0  0.70245  0.48601  0.10677  1.0000
  H   H753      1.0  0.71528  0.48277  0.11914  1.0000
  C   C747      1.0  0.95212  0.34315  0.48651  1.0000
  C   C748      1.0  0.67979  0.48965  0.11417  1.0000
  C   C749      1.0  0.99482  0.32346  0.48892  1.0000
  C   C750      1.0  0.72965  0.24839  0.24995  1.0000
  C   C751      1.0  0.66346  0.49373  0.09786  1.0000
  H   H754      1.0  0.74829  0.24812  0.18705  1.0000
  C   C752      1.0  0.83766  0.41314  0.99759  1.0000
  C   C753      1.0  0.66974  0.49410  0.07460  1.0000
  Fe  Fe124     1.0  0.73093  0.49162  0.01360  1.0000
  C   C754      1.0  0.69240  0.49048  0.06721  1.0000
  H   H755      1.0  0.80643  0.24721  0.14288  1.0000
  C   C755      1.0  0.81474  0.42006  0.99679  1.0000
  H   H756      1.0  0.64597  0.49653  0.10313  1.0000
  H   H757      1.0  0.87195  0.26851  0.84303  1.0000
  H   H758      1.0  0.60798  0.41000  0.72296  1.0000
  C   C756      1.0  0.70609  0.48658  0.90878  1.0000
  H   H759      1.0  0.66657  0.35344  0.58682  1.0000
  H   H760      1.0  0.84265  0.31475  0.53680  1.0000
  C   C757      1.0  0.98454  0.33248  0.50835  1.0000
  N   N64       1.0  0.81713  0.34720  0.57657  1.0000
  C   C758      1.0  0.60627  0.26463  0.65313  1.0000
  S   S251      1.0  0.65934  0.48355  0.79900  1.0000
  H   H761      1.0  0.95463  0.34904  0.52210  1.0000
  C   C759      1.0  0.89050  0.32581  0.50000  1.0000
  Fe  Fe125     1.0  0.88249  0.27640  0.96950  1.0000
  S   S252      1.0  0.74021  0.46329  0.98986  1.0000
  S   S253      1.0  0.89035  0.31232  0.96057  1.0000
  Fe  Fe126     1.0  0.79037  0.37372  0.51906  1.0000
  S   S254      1.0  0.77046  0.37590  0.55274  1.0000
  S   S255      1.0  0.82364  0.39188  0.51789  1.0000
  Fe  Fe127     1.0  0.70003  0.29182  0.70008  1.0000
  S   S256      1.0  0.66651  0.30995  0.70568  1.0000
  S   S257      1.0  0.71435  0.27708  0.73284  1.0000
  Fe  Fe128     1.0  0.70303  0.30685  0.65027  1.0000
  S   S258      1.0  0.67006  0.32601  0.65270  1.0000
  S   S259      1.0  0.72218  0.30236  0.61640  1.0000
  Fe  Fe129     1.0  0.68205  0.33834  0.68593  1.0000
  S   S260      1.0  0.67971  0.37563  0.69371  1.0000
  Fe  Fe130     1.0  0.65666  0.29609  0.67215  1.0000
  S   S261      1.0  0.61959  0.28654  0.66753  1.0000
  S   S262      1.0  0.71629  0.32131  0.68207  1.0000
  S   S263      1.0  0.68894  0.27585  0.66799  1.0000
  C   C760      1.0  0.92360  0.30096  0.50566  1.0000
  C   C761      1.0  0.74303  0.25246  0.75984  1.0000
  C   C762      1.0  0.81701  0.37029  0.58447  1.0000
  H   H762      1.0  0.84053  0.43320  0.94545  1.0000
  C   C763      1.0  0.96305  0.34239  0.50709  1.0000
  C   C764      1.0  0.56912  0.45688  0.74687  1.0000
  Fe  Fe131     1.0  0.63203  0.46051  0.78798  1.0000
  S   S264      1.0  0.63578  0.42320  0.78052  1.0000
  S   S265      1.0  0.60821  0.46894  0.81729  1.0000
  H   H763      1.0  0.79294  0.33617  0.60170  1.0000
  C   C765      1.0  0.84019  0.25607  0.89124  1.0000
  C   C766      1.0  0.64736  0.27653  0.59689  1.0000
  H   H764      1.0  0.84178  0.35360  0.55027  1.0000
  C   C767      1.0  0.66604  0.38862  0.71728  1.0000
  C   C768      1.0  0.66759  0.41194  0.71944  1.0000
  C   C769      1.0  0.65819  0.42286  0.73852  1.0000
  C   C770      1.0  0.64721  0.41051  0.75574  1.0000
  C   C771      1.0  0.64530  0.38723  0.75340  1.0000
  C   C772      1.0  0.65458  0.37633  0.73425  1.0000
  H   H765      1.0  0.67642  0.42160  0.70640  1.0000
  H   H766      1.0  0.65975  0.44077  0.74005  1.0000
  H   H767      1.0  0.63675  0.37752  0.76658  1.0000
  H   H768      1.0  0.65323  0.35839  0.73280  1.0000
  Fe  Fe132     1.0  0.83771  0.36213  0.49862  1.0000
  H   H769      1.0  0.85123  0.27613  0.91889  1.0000
  C   C773      1.0  0.66814  0.49455  0.88062  1.0000
  C   C774      1.0  0.75653  0.35521  0.56971  1.0000
  C   C775      1.0  0.75485  0.33301  0.56299  1.0000
  C   C776      1.0  0.74441  0.31705  0.57755  1.0000
  C   C777      1.0  0.73546  0.32308  0.59892  1.0000
  C   C778      1.0  0.73704  0.34529  0.60559  1.0000
  C   C779      1.0  0.74749  0.36123  0.59104  1.0000
  H   H770      1.0  0.76175  0.32812  0.54664  1.0000
  H   H771      1.0  0.74329  0.29990  0.57222  1.0000
  H   H772      1.0  0.73027  0.35020  0.62197  1.0000
  H   H773      1.0  0.74868  0.37837  0.59641  1.0000
  C   C780      1.0  0.82276  0.43148  0.94170  1.0000
  C   C781      1.0  0.58243  0.26405  0.65320  1.0000
  H   H774      1.0  0.83123  0.26983  0.88320  1.0000
  Fe  Fe133     1.0  0.63480  0.49368  0.82684  1.0000
  Fe  Fe134     1.0  0.74063  0.48947  0.96181  1.0000
  H   H775      1.0  0.57190  0.47242  0.71375  1.0000
  H   H776      1.0  0.68755  0.34287  0.60615  1.0000
  C   C782      1.0  0.59685  0.42318  0.72943  1.0000
  H   H777      1.0  0.79210  0.36865  0.98872  1.0000
  C   C783      1.0  0.80405  0.33150  0.58759  1.0000
  H   H778      1.0  0.81626  0.46699  0.93945  1.0000
  H   H779      1.0  0.62074  0.29422  0.61516  1.0000
  C   C784      1.0  0.58885  0.42236  0.75189  1.0000
  H   H780      1.0  0.69203  0.34014  0.57616  1.0000
  S   S266      1.0  0.73033  0.48075  0.92564  1.0000
  C   C785      1.0  0.90707  0.31629  0.51409  1.0000
  H   H781      1.0  0.79329  0.29714  0.58878  1.0000
  N   N65       1.0  0.70256  0.33911  0.76103  1.0000
  C   C786      1.0  0.69584  0.35859  0.77120  1.0000
  C   C787      1.0  0.71533  0.33965  0.74139  1.0000
  C   C788      1.0  0.70206  0.37930  0.76175  1.0000
  C   C789      1.0  0.72162  0.36005  0.73135  1.0000
  C   C790      1.0  0.71491  0.37998  0.74161  1.0000
  C   C791      1.0  0.69561  0.31743  0.77062  1.0000
  H   H782      1.0  0.68526  0.35829  0.78648  1.0000
  H   H783      1.0  0.72045  0.32421  0.73323  1.0000
  H   H784      1.0  0.69615  0.39474  0.76948  1.0000
  H   H785      1.0  0.73101  0.36042  0.71532  1.0000
  H   H786      1.0  0.71895  0.39590  0.73352  1.0000
  H   H787      1.0  0.68393  0.30924  0.75900  1.0000
  H   H788      1.0  0.71067  0.30625  0.77268  1.0000
  H   H789      1.0  0.68690  0.31901  0.78740  1.0000
  N   N66       1.0  0.77666  0.42716  0.93483  1.0000
  C   C792      1.0  0.78601  0.44794  0.93478  1.0000
  H   H790      1.0  0.63948  0.26033  0.59906  1.0000
  C   C793      1.0  0.80913  0.45044  0.93842  1.0000
  H   H791      1.0  0.68753  0.47652  0.85540  1.0000
  C   C794      1.0  0.61860  0.24836  0.64112  1.0000
  C   C795      1.0  0.75215  0.42532  0.93208  1.0000
  H   H792      1.0  0.77544  0.46273  0.93232  1.0000
  C   C796      1.0  0.79837  0.40374  0.99379  1.0000
  H   H793      1.0  0.93626  0.29396  0.51670  1.0000
  H   H794      1.0  0.90721  0.32089  0.53167  1.0000
  C   C797      1.0  0.85154  0.25971  0.91149  1.0000
  H   H795      1.0  0.74291  0.43341  0.94647  1.0000
  H   H796      1.0  0.59722  0.44228  0.69825  1.0000
  H   H797      1.0  0.67711  0.26357  0.57934  1.0000
  N   N67       1.0  0.66772  0.31800  0.59168  1.0000
  C   C798      1.0  0.67838  0.29934  0.58323  1.0000
  C   C799      1.0  0.64722  0.31630  0.60293  1.0000
  C   C800      1.0  0.66837  0.27835  0.58567  1.0000
  C   C801      1.0  0.63673  0.29557  0.60572  1.0000
  H   H798      1.0  0.55180  0.42922  0.78592  1.0000
  C   C802      1.0  0.67896  0.33969  0.59008  1.0000
  H   H799      1.0  0.69504  0.30050  0.57511  1.0000
  H   H800      1.0  0.63912  0.33093  0.61037  1.0000
  C   C803      1.0  0.59087  0.44133  0.71562  1.0000
  C   C804      1.0  0.68726  0.48277  0.87243  1.0000
  C   C805      1.0  0.81806  0.30327  0.56192  1.0000
  S   S267      1.0  0.91120  0.27303  0.99379  1.0000
  H   H801      1.0  0.57269  0.27650  0.66249  1.0000
  C   C806      1.0  0.70602  0.47882  0.88641  1.0000
  H   H802      1.0  0.74669  0.40767  0.93140  1.0000
  C   C807      1.0  0.57674  0.45822  0.72429  1.0000
  H   H803      1.0  0.72058  0.46957  0.87986  1.0000
  C   C808      1.0  0.73628  0.25688  0.73756  1.0000
  C   C809      1.0  0.83174  0.31926  0.55114  1.0000
  H   H804      1.0  0.74702  0.43408  0.91626  1.0000
  N   N68       1.0  0.57571  0.43939  0.76050  1.0000
  H   H805      1.0  0.80067  0.37460  0.59330  1.0000
  C   C810      1.0  0.56795  0.43844  0.78422  1.0000
  H   H806      1.0  0.78254  0.39195  0.93856  1.0000
  C   C811      1.0  0.80418  0.30936  0.58034  1.0000
  H   H807      1.0  0.81857  0.38225  0.56992  1.0000
  C   C812      1.0  0.57101  0.24770  0.64114  1.0000
  H   H808      1.0  0.55823  0.47013  0.75353  1.0000
  S   S268      1.0  0.61642  0.48597  0.76461  1.0000
  H   H809      1.0  0.59384  0.40833  0.76262  1.0000
  H   H810      1.0  0.83120  0.37270  0.59602  1.0000
  H   H811      1.0  0.89310  0.26934  0.87875  1.0000
  H   H812      1.0  0.99312  0.33149  0.52431  1.0000
  C   C813      1.0  0.81321  0.41031  0.94116  1.0000
  H   H813      1.0  0.82357  0.39550  0.94440  1.0000
  S   S269      1.0  0.87096  0.34617  0.51136  1.0000
  C   C814      1.0  0.83112  0.34126  0.55879  1.0000
  C   C815      1.0  0.89396  0.25461  0.86829  1.0000
  C   C816      1.0  0.78993  0.40845  0.93795  1.0000
  H   H814      1.0  0.81342  0.45909  0.51675  1.0000
  Fe  Fe135     1.0  0.91757  0.30928  0.98686  1.0000
  H   H815      1.0  0.56518  0.45554  0.79097  1.0000
  H   H816      1.0  0.58091  0.43013  0.79493  1.0000
  C   C817      1.0  0.81364  0.49533  0.51385  1.0000
  H   H817      1.0  0.81821  0.28622  0.55596  1.0000
  S   S270      1.0  0.95350  0.32368  0.98244  1.0000
  Fe  Fe136     1.0  0.86615  0.32128  0.98963  1.0000
  C   C818      1.0  0.98124  0.31199  0.98643  1.0000
  H   H818      1.0  0.73505  0.26157  0.77361  1.0000
  S   S271      1.0  0.83509  0.34528  0.98716  1.0000
  H   H819      1.0  0.53738  0.47346  0.82024  1.0000
  C   C819      1.0  0.98480  0.28993  0.99402  1.0000
  S   S272      1.0  0.80498  0.34330  0.50193  1.0000
  C   C820      1.0  0.52370  0.48098  0.81085  1.0000
  C   C821      1.0  0.82789  0.37413  0.99179  1.0000
  C   C822      1.0  0.81385  0.47337  0.50527  1.0000
  C   C823      1.0  0.50096  0.47536  0.81638  1.0000
  C   C824      1.0  0.80494  0.38102  0.99120  1.0000
  H   H820      1.0  0.74178  0.24808  0.70275  1.0000
  H   H821      1.0  0.78069  0.40864  0.99325  1.0000
  Fe  Fe137     1.0  0.77651  0.47261  0.99529  1.0000
  C   C825      1.0  0.84420  0.39041  0.99513  1.0000
  C   C826      1.0  0.88221  0.25421  0.84820  1.0000
  H   H822      1.0  0.55268  0.24767  0.64122  1.0000
  H   H823      1.0  0.63692  0.24837  0.64121  1.0000
  H   H824      1.0  0.99783  0.34278  0.97696  1.0000
  H   H825      1.0  0.86190  0.38555  0.99560  1.0000
  Fe  Fe138     1.0  0.59399  0.49587  0.79448  1.0000
  C   C827      1.0  0.52859  0.49654  0.79349  1.0000
  H   H826      1.0  0.85338  0.74086  0.04625  1.0000
  Fe  Fe139     1.0  0.88740  0.69825  0.02585  1.0000
  S   S273      1.0  0.90489  0.66537  0.01793  1.0000
  S   S274      1.0  0.88614  0.70770  0.06321  1.0000
  C   C828      1.0  0.89467  0.65184  0.48329  1.0000
  Fe  Fe140     1.0  0.62453  0.52527  0.20651  1.0000
  S   S275      1.0  0.62380  0.56167  0.21832  1.0000
  S   S276      1.0  0.61327  0.51776  0.17119  1.0000
  Fe  Fe141     1.0  0.65943  0.68566  0.31896  1.0000
  S   S277      1.0  0.67772  0.65567  0.33398  1.0000
  S   S278      1.0  0.62221  0.69115  0.32957  1.0000
  Fe  Fe142     1.0  0.69909  0.69575  0.28567  1.0000
  S   S279      1.0  0.71994  0.66664  0.29826  1.0000
  S   S280      1.0  0.70796  0.71731  0.25449  1.0000
  Fe  Fe143     1.0  0.68747  0.64718  0.29803  1.0000
  S   S281      1.0  0.68821  0.61111  0.28578  1.0000
  Fe  Fe144     1.0  0.70855  0.67729  0.33317  1.0000
  S   S282      1.0  0.73350  0.68168  0.36161  1.0000
  S   S283      1.0  0.66733  0.67546  0.28311  1.0000
  S   S284      1.0  0.68960  0.70810  0.32047  1.0000
  C   C829      1.0  0.75186  0.55004  0.04703  1.0000
  S   S285      1.0  0.87475  0.63264  0.47258  1.0000
  H   H827      1.0  0.65690  0.49725  0.06222  1.0000
  H   H828      1.0  0.63722  0.73763  0.33252  1.0000
  C   C830      1.0  0.80966  0.66478  0.03352  1.0000
  C   C831      1.0  0.52785  0.51110  0.13609  1.0000
  Fe  Fe145     1.0  0.79175  0.61175  0.46454  1.0000
  S   S286      1.0  0.76732  0.61017  0.43531  1.0000
  S   S287      1.0  0.82455  0.59193  0.46446  1.0000
  C   C832      1.0  0.75043  0.54325  0.06968  1.0000
  C   C833      1.0  0.81485  0.51088  0.47598  1.0000
  H   H829      1.0  0.81527  0.52516  0.46451  1.0000
  C   C834      1.0  0.74354  0.66126  0.38128  1.0000
  C   C835      1.0  0.73588  0.63923  0.38167  1.0000
  C   C836      1.0  0.74391  0.62372  0.39791  1.0000
  C   C837      1.0  0.75958  0.62999  0.41402  1.0000
  C   C838      1.0  0.76746  0.65194  0.41350  1.0000
  C   C839      1.0  0.75942  0.66748  0.39725  1.0000
  H   H830      1.0  0.72375  0.63417  0.36948  1.0000
  H   H831      1.0  0.73779  0.60676  0.39806  1.0000
  H   H832      1.0  0.77953  0.65702  0.42574  1.0000
  H   H833      1.0  0.76551  0.68445  0.39704  1.0000
  H   H834      1.0  0.83149  0.63590  0.03072  1.0000
  C   C840      1.0  0.73473  0.72868  0.24683  1.0000
  C   C841      1.0  0.75327  0.72677  0.26094  1.0000
  H   H835      1.0  0.86968  0.54783  0.44551  1.0000
  H   H836      1.0  0.62221  0.56532  0.27880  1.0000
  H   H837      1.0  0.75159  0.71779  0.27692  1.0000
  H   H838      1.0  0.94714  0.67302  0.46912  1.0000
  C   C842      1.0  0.67136  0.59824  0.26540  1.0000
  C   C843      1.0  0.65408  0.60983  0.25428  1.0000
  C   C844      1.0  0.64018  0.59850  0.23937  1.0000
  C   C845      1.0  0.64334  0.57550  0.23539  1.0000
  C   C846      1.0  0.66101  0.56407  0.24607  1.0000
  C   C847      1.0  0.67495  0.57541  0.26093  1.0000
  H   H839      1.0  0.65103  0.62738  0.25755  1.0000
  H   H840      1.0  0.62661  0.60752  0.23113  1.0000
  H   H841      1.0  0.66366  0.54639  0.24320  1.0000
  H   H842      1.0  0.68831  0.56627  0.26939  1.0000
  C   C848      1.0  0.62539  0.57289  0.29544  1.0000
  H   H843      1.0  0.91902  0.64579  0.45615  1.0000
  C   C849      1.0  0.91537  0.65519  0.47130  1.0000
  C   C850      1.0  0.60806  0.71667  0.33677  1.0000
  C   C851      1.0  0.58475  0.71635  0.34255  1.0000
  H   H844      1.0  0.54202  0.73514  0.42119  1.0000
  H   H845      1.0  0.94795  0.74518  0.44731  1.0000
  H   H846      1.0  0.57585  0.70068  0.34252  1.0000
  N   N69       1.0  0.92078  0.72272  0.45438  1.0000
  C   C852      1.0  0.86865  0.72829  0.07657  1.0000
  C   C853      1.0  0.62368  0.63333  0.31078  1.0000
  H   H847      1.0  0.72492  0.62294  0.25636  1.0000
  C   C854      1.0  0.59660  0.62755  0.28185  1.0000
  H   H848      1.0  0.73335  0.55709  0.01700  1.0000
  C   C855      1.0  0.75736  0.63860  0.25712  1.0000
  H   H849      1.0  0.87946  0.58539  0.45952  1.0000
  C   C856      1.0  0.69095  0.54926  0.03126  1.0000
  H   H850      1.0  0.64317  0.60438  0.32062  1.0000
  H   H851      1.0  0.69162  0.61890  0.45294  1.0000
  C   C857      1.0  0.51326  0.52856  0.14256  1.0000
  C   C858      1.0  0.82010  0.69146  0.06134  1.0000
  C   C859      1.0  0.87733  0.57136  0.47126  1.0000
  H   H852      1.0  0.84970  0.68276  0.07995  1.0000
  C   C860      1.0  0.83859  0.67770  0.06676  1.0000
  H   H853      1.0  0.79857  0.65950  0.02038  1.0000
  H   H854      1.0  0.69437  0.54311  0.01386  1.0000
  H   H855      1.0  0.72305  0.74179  0.21499  1.0000
  C   C861      1.0  0.52443  0.50915  0.19502  1.0000
  Fe  Fe146     1.0  0.83894  0.62080  0.48362  1.0000
  H   H856      1.0  0.52011  0.54396  0.14870  1.0000
  H   H857      1.0  0.81726  0.70717  0.06998  1.0000
  H   H858      1.0  0.72500  0.66396  0.43736  1.0000
  H   H859      1.0  0.88046  0.71964  0.10978  1.0000
  C   C862      1.0  0.73206  0.55208  0.03469  1.0000
  H   H860      1.0  0.87752  0.65565  0.06459  1.0000
  H   H861      1.0  0.86885  0.63476  0.04563  1.0000
  H   H862      1.0  0.86167  0.70736  0.47928  1.0000
  H   H863      1.0  0.97702  0.69213  0.01884  1.0000
  H   H864      1.0  0.87706  0.68831  0.44514  1.0000
  H   H865      1.0  0.60229  0.65944  0.29724  1.0000
  H   H866      1.0  0.69116  0.64305  0.24619  1.0000
  H   H867      1.0  0.78808  0.73571  0.26576  1.0000
  H   H868      1.0  0.79148  0.69571  0.03980  1.0000
  H   H869      1.0  0.82343  0.55079  0.99881  1.0000
  S   S288      1.0  0.90686  0.71661  0.99826  1.0000
  H   H870      1.0  0.55486  0.73563  0.35254  1.0000
  C   C863      1.0  0.72672  0.62746  0.48114  1.0000
  H   H871      1.0  0.95608  0.71743  0.45692  1.0000
  S   S289      1.0  0.65505  0.50269  0.20369  1.0000
  H   H872      1.0  0.49842  0.53359  0.20367  1.0000
  C   C864      1.0  0.62986  0.61069  0.30984  1.0000
  H   H873      1.0  0.76573  0.54103  0.07924  1.0000
  H   H874      1.0  0.86450  0.51625  0.47265  1.0000
  N   N70       1.0  0.72469  0.65477  0.23944  1.0000
  C   C865      1.0  0.73715  0.67283  0.23237  1.0000
  C   C866      1.0  0.73466  0.63748  0.25112  1.0000
  C   C867      1.0  0.75991  0.67447  0.23798  1.0000
  C   C868      1.0  0.76998  0.65733  0.25065  1.0000
  C   C869      1.0  0.70074  0.65367  0.23376  1.0000
  H   H875      1.0  0.72935  0.68636  0.22277  1.0000
  H   H876      1.0  0.76951  0.68916  0.23287  1.0000
  H   H877      1.0  0.78749  0.65861  0.25550  1.0000
  H   H878      1.0  0.76823  0.55328  0.03889  1.0000
  H   H879      1.0  0.69265  0.67061  0.23421  1.0000
  C   C870      1.0  0.88662  0.70146  0.45274  1.0000
  H   H880      1.0  0.68497  0.56692  0.03044  1.0000
  C   C871      1.0  0.86936  0.73051  0.10018  1.0000
  C   C872      1.0  0.74155  0.66974  0.46849  1.0000
  C   C873      1.0  0.72926  0.53912  0.07985  1.0000
  S   S290      1.0  0.76726  0.49942  0.02095  1.0000
  C   C874      1.0  0.86308  0.64482  0.06044  1.0000
  H   H881      1.0  0.69344  0.53791  0.07500  1.0000
  N   N71       1.0  0.61951  0.59680  0.29534  1.0000
  H   H882      1.0  0.53827  0.52018  0.19830  1.0000
  H   H883      1.0  0.94687  0.72229  0.42840  1.0000
  S   S291      1.0  0.80676  0.64144  0.48106  1.0000
  H   H884      1.0  0.64372  0.57020  0.29864  1.0000
  C   C875      1.0  0.90821  0.70696  0.44414  1.0000
  C   C876      1.0  0.86895  0.53252  0.47887  1.0000
  H   H885      1.0  0.72149  0.61070  0.48601  1.0000
  H   H886      1.0  0.76495  0.62518  0.26705  1.0000
  H   H887      1.0  0.69911  0.64662  0.21669  1.0000
  C   C877      1.0  0.60294  0.60489  0.28156  1.0000
  H   H888      1.0  0.85924  0.63333  0.07491  1.0000
  H   H889      1.0  0.72787  0.53356  0.09738  1.0000
  C   C878      1.0  0.74672  0.66099  0.48977  1.0000
  S   S292      1.0  0.60276  0.49872  0.22334  1.0000
  C   C879      1.0  0.80567  0.68502  0.04444  1.0000
  C   C880      1.0  0.87801  0.71211  0.47197  1.0000
  S   S293      1.0  0.85738  0.69133  0.00456  1.0000
  N   N72       1.0  0.84302  0.65846  0.05519  1.0000
  C   C881      1.0  0.82843  0.65155  0.03929  1.0000
  C   C882      1.0  0.70980  0.54154  0.06706  1.0000
  N   N73       1.0  0.71144  0.54735  0.04462  1.0000
  C   C883      1.0  0.60703  0.64181  0.29664  1.0000
  H   H890      1.0  0.59485  0.59390  0.26993  1.0000
  H   H891      1.0  0.58370  0.63402  0.27070  1.0000
  C   C884      1.0  0.93140  0.67068  0.47861  1.0000
  H   H892      1.0  0.70560  0.63177  0.42870  1.0000
  C   C885      1.0  0.72871  0.65713  0.45399  1.0000
  C   C886      1.0  0.91247  0.73318  0.47330  1.0000
  C   C887      1.0  0.84049  0.58270  0.99752  1.0000
  H   H893      1.0  0.63169  0.64430  0.32244  1.0000
  C   C888      1.0  0.87190  0.55029  0.46341  1.0000
  H   H894      1.0  0.67723  0.53855  0.03857  1.0000
  C   C889      1.0  0.50173  0.51673  0.19801  1.0000
  C   C890      1.0  0.61932  0.73709  0.33690  1.0000
  N   N74       1.0  0.72156  0.63622  0.46039  1.0000
  C   C891      1.0  0.85413  0.74236  0.06440  1.0000
  H   H895      1.0  0.91512  0.69794  0.42974  1.0000
  H   H896      1.0  0.71775  0.60705  0.44119  1.0000
  H   H897      1.0  0.61522  0.56397  0.30872  1.0000
  C   C892      1.0  0.77394  0.73694  0.25455  1.0000
  C   C893      1.0  0.70839  0.62288  0.44506  1.0000
  C   C894      1.0  0.94404  0.72709  0.44630  1.0000
  C   C895      1.0  0.99116  0.68968  0.00708  1.0000
  H   H898      1.0  0.85692  0.57534  0.00092  1.0000
  H   H899      1.0  0.92292  0.74477  0.48213  1.0000
  C   C896      1.0  0.73726  0.74035  0.22609  1.0000
  H   H900      1.0  0.54607  0.51279  0.13733  1.0000
  C   C897      1.0  0.89096  0.72810  0.48234  1.0000
  H   H901      1.0  0.74765  0.68606  0.46313  1.0000
  C   C898      1.0  0.87931  0.57452  0.49439  1.0000
  C   C899      1.0  0.57279  0.73617  0.34828  1.0000
  S   S294      1.0  0.86318  0.62294  0.99692  1.0000
  C   C900      1.0  0.73913  0.63979  0.49622  1.0000
  H   H902      1.0  0.68663  0.58757  0.64642  1.0000
  N   N75       1.0  0.78849  0.66939  0.61843  1.0000
  H   H903      1.0  0.56052  0.72656  0.69052  1.0000
  H   H904      1.0  0.78156  0.60853  0.98554  1.0000
  C   C901      1.0  0.67585  0.53901  0.83477  1.0000
  C   C902      1.0  0.62419  0.56840  0.69612  1.0000
  Fe  Fe147     1.0  0.87800  0.70763  0.97601  1.0000
  S   S295      1.0  0.89467  0.67536  0.96491  1.0000
  H   H905      1.0  0.80117  0.65674  0.58668  1.0000
  S   S296      1.0  0.94590  0.70385  0.50771  1.0000
  H   H906      1.0  0.66854  0.61144  0.64287  1.0000
  C   C903      1.0  0.83852  0.60607  0.99430  1.0000
  H   H907      1.0  0.88707  0.74557  0.88219  1.0000
  C   C904      1.0  0.62118  0.59034  0.68823  1.0000
  Fe  Fe148     1.0  0.70124  0.65677  0.65225  1.0000
  S   S297      1.0  0.66367  0.66018  0.66000  1.0000
  S   S298      1.0  0.71540  0.63137  0.62686  1.0000
  Fe  Fe149     1.0  0.71360  0.68598  0.69237  1.0000
  S   S299      1.0  0.67704  0.69122  0.70317  1.0000
  S   S300      1.0  0.74627  0.69593  0.70944  1.0000
  Fe  Fe150     1.0  0.67266  0.65446  0.69645  1.0000
  S   S301      1.0  0.65000  0.63261  0.71954  1.0000
  Fe  Fe151     1.0  0.67049  0.69651  0.66601  1.0000
  S   S302      1.0  0.65021  0.72718  0.65366  1.0000
  S   S303      1.0  0.70953  0.64876  0.68842  1.0000
  S   S304      1.0  0.70771  0.69349  0.65554  1.0000
  Fe  Fe152     1.0  0.79607  0.62462  0.51416  1.0000
  S   S305      1.0  0.78000  0.64869  0.54002  1.0000
  S   S306      1.0  0.82917  0.60558  0.51756  1.0000
  Fe  Fe153     1.0  0.64177  0.51001  0.77766  1.0000
  S   S307      1.0  0.66434  0.53172  0.75430  1.0000
  S   S308      1.0  0.61874  0.52164  0.80607  1.0000
  H   H908      1.0  0.94283  0.68980  0.93124  1.0000
  C   C905      1.0  0.79800  0.60120  0.98896  1.0000
  C   C906      1.0  0.76897  0.64601  0.64583  1.0000
  H   H909      1.0  0.79318  0.68563  0.58644  1.0000
  N   N76       1.0  0.91025  0.72775  0.90348  1.0000
  C   C907      1.0  0.65505  0.60505  0.73023  1.0000
  C   C908      1.0  0.67486  0.59295  0.72480  1.0000
  C   C909      1.0  0.67747  0.57062  0.73251  1.0000
  C   C910      1.0  0.66034  0.56010  0.74567  1.0000
  C   C911      1.0  0.64073  0.57233  0.75151  1.0000
  C   C912      1.0  0.63815  0.59468  0.74384  1.0000
  H   H910      1.0  0.68806  0.60073  0.71448  1.0000
  H   H911      1.0  0.69279  0.56136  0.72805  1.0000
  H   H912      1.0  0.62745  0.56452  0.76172  1.0000
  H   H913      1.0  0.62277  0.60391  0.74817  1.0000
  C   C913      1.0  0.73201  0.63657  0.60183  1.0000
  C   C914      1.0  0.73655  0.65825  0.59386  1.0000
  C   C915      1.0  0.75071  0.66156  0.57452  1.0000
  C   C916      1.0  0.76064  0.64333  0.56301  1.0000
  C   C917      1.0  0.75585  0.62165  0.57078  1.0000
  C   C918      1.0  0.74159  0.61832  0.59006  1.0000
  H   H914      1.0  0.72923  0.67245  0.60265  1.0000
  H   H915      1.0  0.75412  0.67842  0.56855  1.0000
  H   H916      1.0  0.76338  0.60743  0.56217  1.0000
  H   H917      1.0  0.73818  0.60147  0.59605  1.0000
  C   C919      1.0  0.62176  0.72988  0.64456  1.0000
  H   H918      1.0  0.57177  0.70218  0.64279  1.0000
  C   C920      1.0  0.60641  0.71231  0.64659  1.0000
  H   H919      1.0  0.70159  0.52455  0.78701  1.0000
  H   H920      1.0  0.72029  0.53558  0.80776  1.0000
  H   H921      1.0  0.76221  0.62982  0.65081  1.0000
  C   C921      1.0  0.78496  0.72354  0.81756  1.0000
  H   H922      1.0  0.65020  0.54930  0.85927  1.0000
  S   S309      1.0  0.54620  0.74070  0.62835  1.0000
  H   H923      1.0  0.78328  0.63443  0.61440  1.0000
  H   H924      1.0  0.61205  0.69615  0.65291  1.0000
  H   H925      1.0  0.65490  0.58817  0.79742  1.0000
  C   C922      1.0  0.75458  0.72017  0.79146  1.0000
  C   C923      1.0  0.90646  0.67943  0.51032  1.0000
  C   C924      1.0  0.66073  0.57447  0.80814  1.0000
  C   C925      1.0  0.66071  0.56711  0.67677  1.0000
  H   H926      1.0  0.83460  0.70924  0.88388  1.0000
  H   H927      1.0  0.74322  0.63280  0.51269  1.0000
  C   C926      1.0  0.64407  0.55667  0.69040  1.0000
  H   H928      1.0  0.70327  0.51124  0.81417  1.0000
  H   H929      1.0  0.94389  0.72097  0.95830  1.0000
  C   C927      1.0  0.51033  0.50628  0.78181  1.0000
  C   C928      1.0  0.81707  0.61521  0.98991  1.0000
  C   C929      1.0  0.92286  0.74284  0.93823  1.0000
  C   C930      1.0  0.98712  0.68328  0.98495  1.0000
  C   C931      1.0  0.81417  0.51429  0.49933  1.0000
  C   C932      1.0  0.84836  0.72104  0.91483  1.0000
  N   N77       1.0  0.68536  0.54260  0.81371  1.0000
  H   H930      1.0  0.64699  0.53995  0.69728  1.0000
  H   H931      1.0  0.91012  0.73127  0.86774  1.0000
  C   C933      1.0  0.70361  0.52780  0.80529  1.0000
  N   N78       1.0  0.87119  0.53571  0.50152  1.0000
  C   C934      1.0  0.58356  0.71580  0.64085  1.0000
  H   H932      1.0  0.74762  0.71200  0.77704  1.0000
  C   C935      1.0  0.77322  0.74130  0.82765  1.0000
  C   C936      1.0  0.83941  0.72381  0.89308  1.0000
  H   H933      1.0  0.75619  0.66250  0.67577  1.0000
  C   C937      1.0  0.65813  0.55275  0.84281  1.0000
  H   H934      1.0  0.78603  0.70963  0.73206  1.0000
  H   H935      1.0  0.79076  0.70392  0.62648  1.0000
  H   H936      1.0  0.92104  0.69436  0.89630  1.0000
  C   C938      1.0  0.80113  0.67219  0.59688  1.0000
  S   S310      1.0  0.81590  0.54153  0.51137  1.0000
  Fe  Fe154     1.0  0.97858  0.72327  0.49846  1.0000
  H   H937      1.0  0.87731  0.55906  0.52737  1.0000
  H   H938      1.0  0.80137  0.71829  0.82379  1.0000
  H   H939      1.0  0.88539  0.51264  0.52502  1.0000
  H   H940      1.0  0.90285  0.68878  0.52551  1.0000
  C   C939      1.0  0.82146  0.56867  0.99634  1.0000
  Fe  Fe155     1.0  0.87588  0.65937  0.99482  1.0000
  C   C940      1.0  0.91085  0.74505  0.91827  1.0000
  C   C941      1.0  0.93460  0.72295  0.94281  1.0000
  H   H941      1.0  0.63637  0.58095  0.83517  1.0000
  S   S311      1.0  0.95923  0.67852  0.97506  1.0000
  H   H942      1.0  0.67644  0.55815  0.67303  1.0000
  C   C942      1.0  0.75208  0.72062  0.72448  1.0000
  H   H943      1.0  0.63611  0.61764  0.66946  1.0000
  C   C943      1.0  0.78478  0.68756  0.63186  1.0000
  H   H944      1.0  0.71961  0.73653  0.71976  1.0000
  C   C944      1.0  0.65039  0.57045  0.82929  1.0000
  C   C945      1.0  0.86879  0.51690  0.51761  1.0000
  H   H945      1.0  0.60627  0.60000  0.69339  1.0000
  H   H946      1.0  0.68168  0.52524  0.84536  1.0000
  C   C946      1.0  0.77341  0.72277  0.73422  1.0000
  C   C947      1.0  0.78082  0.64878  0.62520  1.0000
  H   H947      1.0  0.77004  0.69971  0.66338  1.0000
  H   H948      1.0  0.61155  0.56082  0.70738  1.0000
  C   C948      1.0  0.57569  0.73686  0.63311  1.0000
  C   C949      1.0  0.93400  0.70546  0.92760  1.0000
  H   H949      1.0  0.68627  0.60933  0.66713  1.0000
  C   C950      1.0  0.67848  0.56042  0.80070  1.0000
  H   H950      1.0  0.81899  0.67650  0.59997  1.0000
  C   C951      1.0  0.63817  0.60026  0.67467  1.0000
  N   N79       1.0  0.65751  0.58856  0.66893  1.0000
  H   H951      1.0  0.68642  0.56357  0.78423  1.0000
  H   H952      1.0  0.85040  0.70448  0.92221  1.0000
  H   H953      1.0  0.81517  0.63304  0.98713  1.0000
  C   C952      1.0  0.67559  0.59970  0.65574  1.0000
  C   C953      1.0  0.77562  0.71287  0.79932  1.0000
  H   H954      1.0  0.78475  0.69927  0.79108  1.0000
  H   H955      1.0  0.75679  0.67045  0.50120  1.0000
  S   S312      1.0  0.55697  0.50433  0.78541  1.0000
  C   C954      1.0  0.92162  0.70813  0.90792  1.0000
  H   H956      1.0  0.51378  0.51836  0.76837  1.0000
  S   S313      1.0  0.72925  0.51707  0.98493  1.0000
  C   C955      1.0  0.68703  0.49848  0.91690  1.0000
  C   C956      1.0  0.73601  0.73782  0.72729  1.0000
  C   C957      1.0  0.89038  0.66404  0.50294  1.0000
  N   N80       1.0  0.74343  0.73795  0.80120  1.0000
  C   C958      1.0  0.77313  0.68533  0.65269  1.0000
  H   H957      1.0  0.87466  0.66167  0.51247  1.0000
  Fe  Fe156     1.0  0.76622  0.52354  0.99115  1.0000
  H   H958      1.0  0.85635  0.52133  0.53134  1.0000
  C   C959      1.0  0.80000  0.57781  0.99209  1.0000
  Fe  Fe157     1.0  0.92250  0.68340  0.98894  1.0000
  C   C960      1.0  0.92700  0.68307  0.49814  1.0000
  H   H959      1.0  0.71649  0.73646  0.77772  1.0000
  C   C961      1.0  0.76527  0.66439  0.65968  1.0000
  C   C962      1.0  0.89798  0.73026  0.88238  1.0000
  H   H960      1.0  0.86225  0.50176  0.50948  1.0000
  S   S314      1.0  0.77500  0.56115  0.99123  1.0000
  H   H961      1.0  0.79484  0.74296  0.75464  1.0000
  C   C963      1.0  0.87611  0.55641  0.50938  1.0000
  S   S315      1.0  0.86622  0.73748  0.95429  1.0000
  C   C964      1.0  0.77850  0.74170  0.74698  1.0000
  H   H962      1.0  0.88660  0.71584  0.88029  1.0000
  C   C965      1.0  0.66825  0.50241  0.90293  1.0000
  H   H963      1.0  0.65364  0.51154  0.90954  1.0000
  H   H964      1.0  0.60181  0.72873  0.69755  1.0000
  C   C966      1.0  0.85442  0.73974  0.92702  1.0000
  C   C967      1.0  0.83675  0.74523  0.88310  1.0000
  S   S316      1.0  0.64396  0.50046  0.86370  1.0000
  H   H965      1.0  0.68668  0.50457  0.93400  1.0000
  C   C968      1.0  0.56914  0.74240  0.68876  1.0000
  H   H966      1.0  0.88299  0.59102  0.50060  1.0000
  S   S317      1.0  0.77756  0.49752  0.96611  1.0000
  H   H967      1.0  0.70818  0.74437  0.80603  1.0000
  Fe  Fe158     1.0  0.81267  0.57800  0.49819  1.0000
  H   H968      1.0  0.81310  0.49761  0.53194  1.0000
  C   C969      1.0  0.59229  0.74363  0.69265  1.0000
  C   C970      1.0  0.72165  0.74596  0.79266  1.0000
  H   H969      1.0  0.88485  0.73586  0.49781  1.0000
  S   S318      1.0  0.77896  0.59622  0.49745  1.0000
  C   C971      1.0  0.93476  0.86353  0.35144  1.0000
  H   H970      1.0  0.56813  0.75763  0.39702  1.0000
  H   H971      1.0  0.79145  0.90078  0.20146  1.0000
  H   H972      1.0  0.82981  0.76965  0.06605  1.0000
  H   H973      1.0  0.57736  0.80755  0.39715  1.0000
  C   C972      1.0  0.94510  0.81816  0.35208  1.0000
  H   H974      1.0  0.64128  0.93822  0.10299  1.0000
  C   C973      1.0  0.84076  0.75865  0.07569  1.0000
  C   C974      1.0  0.56555  0.93908  0.24113  1.0000
  S   S319      1.0  0.56994  0.78207  0.35570  1.0000
  Fe  Fe159     1.0  0.72273  0.96775  0.11283  1.0000
  S   S320      1.0  0.75234  0.94262  0.11385  1.0000
  S   S321      1.0  0.68953  0.96065  0.09675  1.0000
  Fe  Fe160     1.0  0.53256  0.78776  0.36560  1.0000
  H   H975      1.0  0.94185  0.87875  0.39417  1.0000
  S   S322      1.0  0.52402  0.81599  0.38948  1.0000
  Fe  Fe161     1.0  0.97550  0.86064  0.28524  1.0000
  S   S323      1.0  0.94298  0.84182  0.27775  1.0000
  S   S324      1.0  0.97407  0.88189  0.31629  1.0000
  Fe  Fe162     1.0  0.81099  0.78717  0.19859  1.0000
  S   S325      1.0  0.79017  0.79557  0.16832  1.0000
  H   H976      1.0  0.71690  0.76483  0.28811  1.0000
  Fe  Fe163     1.0  0.84795  0.82077  0.18517  1.0000
  S   S326      1.0  0.82951  0.83183  0.15387  1.0000
  S   S327      1.0  0.88192  0.83779  0.19009  1.0000
  Fe  Fe164     1.0  0.79771  0.83157  0.17551  1.0000
  S   S328      1.0  0.76910  0.85770  0.17846  1.0000
  Fe  Fe165     1.0  0.82356  0.79510  0.14864  1.0000
  S   S329      1.0  0.82569  0.78308  0.11215  1.0000
  S   S330      1.0  0.81651  0.82320  0.20726  1.0000
  S   S331      1.0  0.84408  0.78406  0.17842  1.0000
  C   C975      1.0  0.79898  0.94475  0.15346  1.0000
  H   H977      1.0  0.96807  0.88105  0.37755  1.0000
  C   C976      1.0  0.58245  0.96934  0.17984  1.0000
  C   C977      1.0  0.54961  0.74999  0.42780  1.0000
  H   H978      1.0  0.50664  0.82609  0.46125  1.0000
  C   C978      1.0  0.89848  0.83888  0.21478  1.0000
  C   C979      1.0  0.91850  0.85144  0.21405  1.0000
  C   C980      1.0  0.93227  0.85265  0.23311  1.0000
  C   C981      1.0  0.92625  0.84118  0.25315  1.0000
  C   C982      1.0  0.90625  0.82858  0.25384  1.0000
  C   C983      1.0  0.89243  0.82745  0.23482  1.0000
  H   H979      1.0  0.92337  0.86038  0.19868  1.0000
  H   H980      1.0  0.94756  0.86241  0.23227  1.0000
  H   H981      1.0  0.90141  0.81960  0.26919  1.0000
  H   H982      1.0  0.87715  0.81768  0.23568  1.0000
  H   H983      1.0  0.93130  0.88139  0.35063  1.0000
  H   H984      1.0  0.69525  0.77628  0.25446  1.0000
  H   H985      1.0  0.96117  0.82470  0.38325  1.0000
  H   H986      1.0  0.82409  0.89744  0.17436  1.0000
  C   C984      1.0  0.84172  0.76113  0.09924  1.0000
  H   H987      1.0  0.82875  0.92562  0.14316  1.0000
  C   C985      1.0  0.75488  0.91753  0.13028  1.0000
  C   C986      1.0  0.73998  0.91250  0.14842  1.0000
  C   C987      1.0  0.74419  0.89373  0.16257  1.0000
  C   C988      1.0  0.76319  0.87964  0.15867  1.0000
  C   C989      1.0  0.77762  0.88424  0.14007  1.0000
  C   C990      1.0  0.77353  0.90311  0.12606  1.0000
  H   H988      1.0  0.72549  0.92333  0.15184  1.0000
  H   H989      1.0  0.73284  0.89028  0.17683  1.0000
  H   H990      1.0  0.79224  0.87354  0.13678  1.0000
  H   H991      1.0  0.78512  0.90677  0.11203  1.0000
  H   H992      1.0  0.96534  0.85974  0.39887  1.0000
  C   C991      1.0  0.54425  0.75675  0.44975  1.0000
  C   C992      1.0  0.58793  0.79583  0.40733  1.0000
  C   C993      1.0  0.55332  0.77642  0.45770  1.0000
  H   H993      1.0  0.57747  0.93519  0.22683  1.0000
  C   C994      1.0  0.56766  0.78911  0.44349  1.0000
  H   H994      1.0  0.61607  0.93075  0.08845  1.0000
  H   H995      1.0  0.92077  0.76696  0.12760  1.0000
  H   H996      1.0  0.60508  0.94340  0.16721  1.0000
  S   S332      1.0  0.50658  0.79851  0.34036  1.0000
  H   H997      1.0  0.71735  0.97176  0.02226  1.0000
  H   H998      1.0  0.96963  0.98763  0.27814  1.0000
  C   C995      1.0  0.72307  0.79476  0.23900  1.0000
  H   H999      1.0  0.76407  0.93229  0.19753  1.0000
  H   H1000     1.0  0.59810  0.78524  0.39541  1.0000
  H   H1001     1.0  0.52226  0.86056  0.31906  1.0000
  C   C996      1.0  0.76446  0.96484  0.16640  1.0000
  C   C997      1.0  0.79404  0.91345  0.18831  1.0000
  H   H1002     1.0  0.76687  0.97732  0.17974  1.0000
  N   N81       1.0  0.94702  0.85444  0.36867  1.0000
  C   C998      1.0  0.95173  0.83197  0.36945  1.0000
  C   C999      1.0  0.95586  0.86920  0.38575  1.0000
  C   C1000     1.0  0.60223  0.96125  0.16849  1.0000
  H   H1003     1.0  0.87573  0.79536  0.07896  1.0000
  C   C1001     1.0  0.72467  0.77550  0.27511  1.0000
  H   H1004     1.0  0.54865  0.78216  0.47452  1.0000
  N   N82       1.0  0.57418  0.95714  0.25474  1.0000
  S   S333      1.0  0.97307  0.75966  0.48935  1.0000
  C   C1002     1.0  0.57085  0.95669  0.27773  1.0000
  C   C1003     1.0  0.57751  0.97465  0.29070  1.0000
  H   H1005     1.0  0.89710  0.79182  0.17369  1.0000
  Fe  Fe166     1.0  0.69413  0.99352  0.07808  1.0000
  H   H1006     1.0  0.56240  0.94269  0.28610  1.0000
  C   C1004     1.0  0.56425  0.76291  0.41415  1.0000
  H   H1007     1.0  0.80068  0.95651  0.13937  1.0000
  H   H1008     1.0  0.75706  0.77628  0.29094  1.0000
  H   H1009     1.0  0.76884  0.80205  0.21335  1.0000
  N   N83       1.0  0.90163  0.79572  0.13817  1.0000
  C   C1005     1.0  0.90853  0.77981  0.12299  1.0000
  C   C1006     1.0  0.88572  0.81151  0.13245  1.0000
  C   C1007     1.0  0.88342  0.79577  0.09538  1.0000
  C   C1008     1.0  0.87629  0.81172  0.11105  1.0000
  C   C1009     1.0  0.50542  0.81438  0.47536  1.0000
  N   N84       1.0  0.74515  0.80102  0.24073  1.0000
  S   S334      1.0  0.70675  0.98531  0.14277  1.0000
  H   H1010     1.0  0.88004  0.82392  0.14457  1.0000
  C   C1010     1.0  0.58403  0.75659  0.34829  1.0000
  C   C1011     1.0  0.81232  0.91151  0.17299  1.0000
  N   N85       1.0  0.78104  0.94645  0.16852  1.0000
  S   S335      1.0  0.80201  0.76329  0.22798  1.0000
  Fe  Fe167     1.0  0.50499  0.96589  0.26033  1.0000
  H   H1011     1.0  0.76588  0.82779  0.22865  1.0000
  H   H1012     1.0  0.92857  0.81713  0.32004  1.0000
  S   S336      1.0  0.98542  0.94397  0.29206  1.0000
  H   H1013     1.0  0.86301  0.82370  0.10686  1.0000
  S   S337      1.0  0.64250  0.96464  0.14384  1.0000
  H   H1014     1.0  0.57407  0.80472  0.44958  1.0000
  C   C1012     1.0  0.81489  0.92728  0.15547  1.0000
  C   C1013     1.0  0.75656  0.81335  0.22217  1.0000
  C   C1014     1.0  0.58401  0.97523  0.24415  1.0000
  H   H1015     1.0  0.61624  0.77259  0.34262  1.0000
  H   H1016     1.0  0.57434  0.97443  0.30885  1.0000
  C   C1015     1.0  0.61832  0.97599  0.15873  1.0000
  H   H1017     1.0  0.64174  0.93691  0.07263  1.0000
  C   C1016     1.0  0.91076  0.79571  0.16095  1.0000
  C   C1017     1.0  0.51912  0.89203  0.30044  1.0000
  H   H1018     1.0  0.58601  0.97594  0.22592  1.0000
  H   H1019     1.0  0.57024  0.95776  0.18707  1.0000
  C   C1018     1.0  0.92766  0.85017  0.33390  1.0000
  H   H1020     1.0  0.90474  0.76682  0.08943  1.0000
  C   C1019     1.0  0.51284  0.87614  0.31743  1.0000
  C   C1020     1.0  0.70842  0.97993  0.00863  1.0000
  S   S338      1.0  0.49994  0.96556  0.22253  1.0000
  H   H1021     1.0  0.77512  0.79863  0.25995  1.0000
  C   C1021     1.0  0.75727  0.79463  0.25917  1.0000
  H   H1022     1.0  0.94973  0.80054  0.35228  1.0000
  C   C1022     1.0  0.77853  0.93120  0.18588  1.0000
  C   C1023     1.0  0.74719  0.78192  0.27669  1.0000
  H   H1023     1.0  0.75949  0.75979  0.20390  1.0000
  C   C1024     1.0  0.93315  0.82741  0.33411  1.0000
  C   C1025     1.0  0.89966  0.77971  0.10132  1.0000
  C   C1026     1.0  0.71249  0.78194  0.25617  1.0000
  Fe  Fe168     1.0  0.67356  0.98032  0.12560  1.0000
  H   H1024     1.0  0.60081  0.96153  0.11477  1.0000
  H   H1025     1.0  0.91889  0.85756  0.31964  1.0000
  H   H1026     1.0  0.53339  0.88839  0.28917  1.0000
  H   H1027     1.0  0.74452  0.82009  0.20955  1.0000
  N   N86       1.0  0.62425  0.96526  0.08693  1.0000
  N   N87       1.0  0.57326  0.78207  0.42215  1.0000
  H   H1028     1.0  0.56304  0.92349  0.25137  1.0000
  H   H1029     1.0  0.54884  0.94419  0.23435  1.0000
  H   H1030     1.0  0.74694  0.95831  0.16780  1.0000
  C   C1027     1.0  0.98337  0.99015  0.28948  1.0000
  C   C1028     1.0  0.60736  0.75690  0.34265  1.0000
  H   H1031     1.0  0.71368  0.79916  0.22405  1.0000
  S   S339      1.0  0.51658  0.93217  0.27643  1.0000
  C   C1029     1.0  0.63117  0.94161  0.08770  1.0000
  C   C1030     1.0  0.50726  0.91256  0.29797  1.0000
  C   C1031     1.0  0.60828  0.97289  0.10224  1.0000
  C   C1032     1.0  0.85599  0.74682  0.11148  1.0000
  H   H1032     1.0  0.60001  0.80556  0.41712  1.0000
  H   H1033     1.0  0.91742  0.81250  0.16473  1.0000
  Fe  Fe169     1.0  0.99578  0.90684  0.29708  1.0000
  C   C1033     1.0  0.57841  0.99239  0.18156  1.0000
  H   H1034     1.0  0.64729  0.97384  0.05976  1.0000
  S   S340      1.0  0.50944  0.76362  0.38378  1.0000
  C   C1034     1.0  0.69092  0.99529  0.01361  1.0000
  C   C1035     1.0  0.60222  0.99557  0.10278  1.0000
  C   C1036     1.0  0.99415  0.97140  0.29946  1.0000
  H   H1035     1.0  0.76594  0.97345  0.14962  1.0000
  H   H1036     1.0  0.92475  0.78330  0.16304  1.0000
  H   H1037     1.0  0.85691  0.74852  0.12959  1.0000
  C   C1037     1.0  0.63438  0.97974  0.07173  1.0000
  S   S341      1.0  0.99498  0.88659  0.26533  1.0000
  S   S342      1.0  0.53058  0.99366  0.25746  1.0000
  C   C1038     1.0  0.58749  0.99319  0.28001  1.0000
  Fe  Fe170     1.0  0.52421  0.99446  0.22029  1.0000
  C   C1039     1.0  0.59082  0.99349  0.25658  1.0000
  C   C1040     1.0  0.75788  0.75061  0.21976  1.0000
  C   C1041     1.0  0.49850  0.77722  0.49025  1.0000
  C   C1042     1.0  0.77626  0.74919  0.23412  1.0000
  C   C1043     1.0  0.49992  0.79211  0.47153  1.0000
  Fe  Fe171     1.0  0.49893  0.79242  0.40629  1.0000
  H   H1038     1.0  0.53233  0.74729  0.46027  1.0000
  H   H1039     1.0  0.99769  0.77235  0.37735  1.0000
  H   H1040     1.0  0.50098  0.77277  0.52658  1.0000
  C   C1044     1.0  0.94894  0.82329  0.62347  1.0000
  H   H1041     1.0  0.55745  0.80062  0.64972  1.0000
  H   H1042     1.0  0.71040  0.93643  0.91747  1.0000
  C   C1045     1.0  0.50892  0.82167  0.49759  1.0000
  H   H1043     1.0  0.88921  0.84239  0.81436  1.0000
  Fe  Fe172     1.0  0.70983  0.95848  0.85807  1.0000
  S   S343      1.0  0.68020  0.96315  0.88259  1.0000
  S   S344      1.0  0.71612  0.92369  0.84341  1.0000
  Fe  Fe173     1.0  0.82267  0.77825  0.83181  1.0000
  S   S345      1.0  0.82862  0.77049  0.79496  1.0000
  Fe  Fe174     1.0  0.53324  0.98590  0.75762  1.0000
  Fe  Fe175     1.0  0.81097  0.82784  0.82078  1.0000
  S   S346      1.0  0.81642  0.82334  0.78330  1.0000
  S   S347      1.0  0.80586  0.86257  0.83611  1.0000
  Fe  Fe176     1.0  0.79722  0.79103  0.78872  1.0000
  S   S348      1.0  0.76666  0.78187  0.76791  1.0000
  Fe  Fe177     1.0  0.84743  0.80309  0.79241  1.0000
  S   S349      1.0  0.88394  0.80424  0.77840  1.0000
  S   S350      1.0  0.78986  0.79703  0.82580  1.0000
  S   S351      1.0  0.84336  0.80942  0.82969  1.0000
  Fe  Fe178     1.0  0.97132  0.87404  0.69823  1.0000
  S   S352      1.0  0.93388  0.87180  0.70932  1.0000
  S   S353      1.0  0.97813  0.88365  0.66159  1.0000
  H   H1044     1.0  0.60014  0.79797  0.67755  1.0000
  H   H1045     1.0  0.55602  0.94233  0.80522  1.0000
  C   C1046     1.0  0.76226  0.75873  0.75012  1.0000
  C   C1047     1.0  0.55624  0.80067  0.66845  1.0000
  C   C1048     1.0  0.59122  0.78255  0.68123  1.0000
  H   H1046     1.0  0.92732  0.85263  0.62218  1.0000
  Fe  Fe179     1.0  0.52459  0.77118  0.61787  1.0000
  H   H1047     1.0  0.99216  0.85147  0.59956  1.0000
  S   S354      1.0  0.53555  0.80541  0.60593  1.0000
  H   H1048     1.0  0.58545  0.77053  0.62454  1.0000
  C   C1049     1.0  0.84293  0.76390  0.89526  1.0000
  S   S355      1.0  0.51923  0.84408  0.65778  1.0000
  Fe  Fe180     1.0  0.50750  0.80333  0.58066  1.0000
  H   H1049     1.0  0.78035  0.74969  0.84184  1.0000
  H   H1050     1.0  0.72854  0.76998  0.74198  1.0000
  N   N88       1.0  0.85609  0.88183  0.78955  1.0000
  S   S356      1.0  0.69937  0.98752  0.83580  1.0000
  Fe  Fe181     1.0  0.50894  0.81888  0.63072  1.0000
  C   C1050     1.0  0.52202  0.88020  0.68627  1.0000
  C   C1051     1.0  0.89720  0.82235  0.75807  1.0000
  C   C1052     1.0  0.88498  0.83812  0.74542  1.0000
  C   C1053     1.0  0.89648  0.85285  0.73030  1.0000
  C   C1054     1.0  0.92026  0.85206  0.72772  1.0000
  C   C1055     1.0  0.93244  0.83607  0.74011  1.0000
  C   C1056     1.0  0.92094  0.82129  0.75515  1.0000
  H   H1051     1.0  0.86673  0.83907  0.74741  1.0000
  H   H1052     1.0  0.88689  0.86509  0.72071  1.0000
  H   H1053     1.0  0.95073  0.83528  0.73837  1.0000
  H   H1054     1.0  0.93055  0.80914  0.76486  1.0000
  C   C1057     1.0  0.97329  0.79594  0.67482  1.0000
  S   S357      1.0  0.82589  0.74760  0.85543  1.0000
  H   H1055     1.0  0.49891  0.90118  0.79283  1.0000
  H   H1056     1.0  0.92543  0.85666  0.66397  1.0000
  C   C1058     1.0  0.70299  0.98526  0.96772  1.0000
  H   H1057     1.0  0.51282  0.83902  0.50030  1.0000
  S   S358      1.0  0.56797  0.97672  0.77285  1.0000
  C   C1059     1.0  0.74166  0.90768  0.84026  1.0000
  C   C1060     1.0  0.74066  0.88611  0.83122  1.0000
  C   C1061     1.0  0.76014  0.87220  0.82956  1.0000
  C   C1062     1.0  0.78092  0.87968  0.83702  1.0000
  C   C1063     1.0  0.78198  0.90131  0.84594  1.0000
  C   C1064     1.0  0.76250  0.91527  0.84751  1.0000
  H   H1058     1.0  0.72464  0.88006  0.82554  1.0000
  H   H1059     1.0  0.75902  0.85565  0.82263  1.0000
  H   H1060     1.0  0.79796  0.90730  0.85175  1.0000
  H   H1061     1.0  0.76355  0.93179  0.85452  1.0000
  S   S359      1.0  0.50749  0.95825  0.75778  1.0000
  S   S360      1.0  0.51055  0.81749  0.54411  1.0000
  H   H1062     1.0  0.53425  0.86986  0.69503  1.0000
  H   H1063     1.0  0.77172  0.93403  0.93121  1.0000
  Fe  Fe182     1.0  0.50209  0.96710  0.72131  1.0000
  H   H1064     1.0  0.98453  0.83890  0.56068  1.0000
  S   S361      1.0  0.99477  0.90001  0.71113  1.0000
  H   H1065     1.0  0.95033  0.82159  0.60525  1.0000
  C   C1065     1.0  0.96070  0.80847  0.63761  1.0000
  H   H1066     1.0  0.97131  0.79548  0.63006  1.0000
  H   H1067     1.0  0.52512  0.90807  0.70892  1.0000
  H   H1068     1.0  0.92253  0.75623  0.95035  1.0000
  C   C1066     1.0  0.72232  0.88862  0.88934  1.0000
  H   H1069     1.0  0.60969  0.95748  0.78867  1.0000
  C   C1067     1.0  0.70962  0.90642  0.89824  1.0000
  C   C1068     1.0  0.60608  0.97208  0.79877  1.0000
  C   C1069     1.0  0.52929  0.91964  0.79847  1.0000
  Fe  Fe183     1.0  0.67122  0.99359  0.86133  1.0000
  H   H1070     1.0  0.82813  0.89781  0.80620  1.0000
  C   C1070     1.0  0.93613  0.84072  0.63296  1.0000
  H   H1071     1.0  0.53334  0.98807  0.81079  1.0000
  H   H1072     1.0  0.74446  0.94065  0.94389  1.0000
  C   C1071     1.0  0.85155  0.76115  0.91713  1.0000
  H   H1073     1.0  0.84969  0.85673  0.81482  1.0000
  C   C1072     1.0  0.74551  0.88711  0.89312  1.0000
  H   H1074     1.0  0.86712  0.90542  0.76418  1.0000
  H   H1075     1.0  0.82086  0.87528  0.78818  1.0000
  C   C1073     1.0  0.86223  0.86462  0.80370  1.0000
  H   H1076     1.0  0.84089  0.78048  0.88789  1.0000
  H   H1077     1.0  0.72790  0.96307  0.98239  1.0000
  S   S362      1.0  0.71140  0.97809  0.93934  1.0000
  C   C1074     1.0  0.60345  0.76380  0.68887  1.0000
  H   H1078     1.0  0.63604  0.96744  0.81885  1.0000
  C   C1075     1.0  0.75382  0.93824  0.92752  1.0000
  H   H1079     1.0  0.75339  0.95441  0.91796  1.0000
  H   H1080     1.0  0.99137  0.80092  0.67351  1.0000
  H   H1081     1.0  0.74394  0.76291  0.82643  1.0000
  H   H1082     1.0  0.85607  0.77575  0.92646  1.0000
  S   S363      1.0  0.99785  0.84668  0.69841  1.0000
  N   N89       1.0  0.52390  0.95463  0.81740  1.0000
  H   H1083     1.0  0.52270  0.98271  0.83926  1.0000
  H   H1084     1.0  0.55067  0.97333  0.83098  1.0000
  C   C1076     1.0  0.55747  0.76145  0.68103  1.0000
  C   C1077     1.0  0.89456  0.88451  0.77538  1.0000
  C   C1078     1.0  0.74115  0.75680  0.73990  1.0000
  C   C1079     1.0  0.62110  0.97768  0.81593  1.0000
  C   C1080     1.0  0.90089  0.86678  0.78959  1.0000
  H   H1085     1.0  0.77387  0.90262  0.90790  1.0000
  H   H1086     1.0  0.53801  0.80055  0.67377  1.0000
  S   S364      1.0  0.49934  0.78441  0.64384  1.0000
  H   H1087     1.0  0.62578  0.76446  0.63449  1.0000
  H   H1088     1.0  0.91817  0.86033  0.78899  1.0000
  C   C1081     1.0  0.83241  0.88965  0.78987  1.0000
  C   C1082     1.0  0.94714  0.82792  0.66999  1.0000
  C   C1083     1.0  0.75572  0.90359  0.90568  1.0000
  H   H1089     1.0  0.82891  0.90169  0.77587  1.0000
  H   H1090     1.0  0.69179  0.90827  0.89455  1.0000
  H   H1091     1.0  0.56312  0.81666  0.67441  1.0000
  S   S365      1.0  0.73315  0.97899  0.87820  1.0000
  H   H1092     1.0  0.71441  0.87664  0.87864  1.0000
  N   N90       1.0  0.74307  0.92087  0.91455  1.0000
  C   C1084     1.0  0.51686  0.90194  0.69424  1.0000
  H   H1093     1.0  0.97200  0.77837  0.66931  1.0000
  H   H1094     1.0  0.75568  0.87382  0.88548  1.0000
  H   H1095     1.0  0.54047  0.90779  0.78988  1.0000
  H   H1096     1.0  0.90699  0.89196  0.76375  1.0000
  N   N91       1.0  0.56848  0.78125  0.67767  1.0000
  C   C1085     1.0  0.50228  0.78444  0.51244  1.0000
  C   C1086     1.0  0.58645  0.98507  0.79459  1.0000
  C   C1087     1.0  0.87193  0.89186  0.77554  1.0000
  C   C1088     1.0  0.93508  0.84300  0.65637  1.0000
  N   N92       1.0  0.95971  0.81092  0.66054  1.0000
  C   C1089     1.0  0.59115  0.75429  0.63060  1.0000
  C   C1090     1.0  0.53309  0.97572  0.82504  1.0000
  C   C1091     1.0  0.88464  0.85671  0.80383  1.0000
  Fe  Fe184     1.0  0.70302  0.98560  0.90187  1.0000
  C   C1092     1.0  0.53800  0.93924  0.80719  1.0000
  H   H1097     1.0  0.94659  0.83014  0.68814  1.0000
  C   C1093     1.0  0.72033  0.92247  0.91089  1.0000
  C   C1094     1.0  0.71437  0.97500  0.98590  1.0000
  C   C1095     1.0  0.51161  0.87172  0.66711  1.0000
  C   C1096     1.0  0.50122  0.91573  0.68308  1.0000
  H   H1098     1.0  0.62166  0.76455  0.69077  1.0000
  H   H1099     1.0  0.90143  0.76043  0.91510  1.0000
  H   H1100     1.0  0.53976  0.76006  0.67686  1.0000
  H   H1101     1.0  0.96761  0.79660  0.69286  1.0000
  S   S366      1.0  0.52925  0.99349  0.72015  1.0000
  H   H1102     1.0  0.50750  0.98806  0.67156  1.0000
  S   S367      1.0  0.49833  0.76817  0.59096  1.0000
  C   C1097     1.0  0.61404  0.75078  0.63624  1.0000
  H   H1103     1.0  0.65118  0.99593  0.78155  1.0000
  C   C1098     1.0  0.50107  0.95117  0.81902  1.0000
  C   C1099     1.0  0.50722  0.80684  0.51634  1.0000
  C   C1100     1.0  0.99743  0.83490  0.59436  1.0000
  S   S368      1.0  0.99356  0.79805  0.53683  1.0000
  H   H1104     1.0  0.72303  0.76382  0.78724  1.0000
  C   C1101     1.0  0.50601  0.91595  0.80012  1.0000
  C   C1102     1.0  0.99308  0.82767  0.57228  1.0000
  C   C1103     1.0  0.75252  0.74853  0.81902  1.0000
  C   C1104     1.0  0.61672  0.99641  0.82930  1.0000
