data_image0
_chemical_formula_structural       FeSHFeS2FeSFeS3FeS2FeS2FeSFeS3FeS2FeS2FeSFeS3C3HC4H2CHC2HC6H5CHC2HCNHC2H3C6H4NHC2H2C3H5C2HC3H2C2HCH2CHNCHCHC3H5CH3CHC2HCH2CH2CNHCH2NC6H2SCH2NH3CHC2H2C2HCHCHCH2C2HCHCHC2SHCNFeS2FeS2FeSFeCS2FeS2FeS2FeSFeS3FeS2FeS2FeSFeS3C3H2C6H4C6H4C2SC2HCH2CHC2H2C3HCHC2H2C2H3C4HC2NCH7C2NHNC5H6NC6H2CHCHCNC5H3CH6CH2CHCH3CHNH2CH8C2HCH2CFeSCFeS2FeSFeS3FeS2FeS2FeSFeS3FeS2FeS2FeSFeS3C2H3C3H2CHCH2CHC2HC6H4CHC2HC3H2C6H5CNC2H5CH3NCH7NC2HC3H2CH3CH2CH2SC2H2CNHC3HC2H4NC6H8C2HC3HCHC3HCH2NCHC2HC2H6C3FeS2FeSHFeSFeS3FeS2FeS2FeSFeS3FeS2FeS2FeSFeS3C2H2C5HC6H4C3HC7H4C4H3CH3C2H2C3HC2H2C3NC2H5CH3CHCH2CNC6H5CNC3H4C2HCHNH3CNCH10C4H4CHNC2H2CHC2HCHC3H2SCH3CH2CHFeS2FeS2FeSFeHS2FeS2FeS2FeSFeHS2CHC2H3CH3C6H5C2H3CHCH2C3HC5H4SH3NC2HCHC2HNCHCH2CHCFeS2FeS2FeHFeS3FeSCFeS2FeSFeCS2H3NHSC2H3C6H4CH2C2HCHCHC2H2CNC6H5CHC3H3SCNCH2CHCHC2H2CHC2SCHC2H3NC2HCH2CH4CFeS2FeSCFeSFeS3FeCNFeS2FeSFeS3C3H3CHC2H3NC7H4C4HC3H2CNC6H3CH6CNHCHCH5SHCH4SHC3H2C3H2C2HCH2CHCNCHFeS2FeS2FeSFeS3FeS2FeSCFeSFeS3C2HC2H3C4HNHC6H4NC4HC2H3NSCHC3H4CH5C4H3C3H7CH5C2H2CHC2HNCHC3HCFeS2FeS2FeSFeS3FeS2FeS2FeSFeS3FeS2FeS2FeSFeHS2CHSHNHC2H2C3HC7H4C3H2C3H2CHCHC6H4C4HC4HC2H2C4H3CNH2NC3H4CNH2CHCHCHCNHCH4CH2CNC6HCH7NC6H2CH3CH2CH4C3H3CH2C3FeS2FeS2FeSFeS3FeS2FeS2FeSFeS3FeS2FeS2FeHFeS3NCH3C6H4C2HCHCHCHC6H4C2H4C2H3C3HC2H3C3H2C3HCNC5H4C2H2CNC6H8CHCH5C3HCHNH3CH2CHC2HCH3C2NC2HCNHCH2SC2HC3H3CHC2HCH2CHC2H2CHC2H3CFeS2FeS2FeSFeS3FeS2FeS2FeSFeS3FeS2FeS2FeSFeHS2CHCHC2HCH2C2HCHC7H4C3H2C2NHC2H2CHCHNC7H4CH2CH2SH12CHCHC2HC2HC3HNC2H2CHC2HCNC6H8C3HC2HCH4CHCNCHC2HC2H2CHCHCHCHC3H2CSH2CHFeS2FeSCFeSFeS3FeS2FeS2FeSFeS3FeS2FeS2FeSFeS3C2H3C6H4CH2CHC6H4CNC4H2CHC2HCSC3H2CNH2C2NHCH2C2H2CHCH2C2H3NC5H5NC6H6CHCH3C4HCH2CH3NC3H2CHC2HCHCH2CH4CH2C2H2C2H
_chemical_formula_sum              "Fe128 S256 H768 C768 N64"
_cell_length_a       60.5363
_cell_length_b       60.2665
_cell_length_c       47.4368
_cell_angle_alpha    89.2583
_cell_angle_beta     89.2404
_cell_angle_gamma    87.0074

_space_group_name_H-M_alt    "P 1"
_space_group_IT_number       1

loop_
  _space_group_symop_operation_xyz
  'x, y, z'

loop_
  _atom_site_type_symbol
  _atom_site_label
  _atom_site_symmetry_multiplicity
  _atom_site_fract_x
  _atom_site_fract_y
  _atom_site_fract_z
  _atom_site_occupancy
  Fe  Fe1       1.0  0.27467  0.11296  0.31978  1.0000
  S   S1        1.0  0.24240  0.10151  0.30333  1.0000
  H   H1        1.0  0.16736  0.38109  0.20751  1.0000
  Fe  Fe2       1.0  0.26641  0.08989  0.37881  1.0000
  S   S2        1.0  0.23400  0.07761  0.36489  1.0000
  S   S3        1.0  0.27646  0.07574  0.42227  1.0000
  Fe  Fe3       1.0  0.25182  0.06819  0.32466  1.0000
  S   S4        1.0  0.25265  0.03361  0.30399  1.0000
  Fe  Fe4       1.0  0.22762  0.11185  0.34555  1.0000
  S   S5        1.0  0.19877  0.13495  0.36128  1.0000
  S   S6        1.0  0.28480  0.07939  0.33894  1.0000
  S   S7        1.0  0.25947  0.12436  0.36146  1.0000
  Fe  Fe5       1.0  0.06435  0.25922  0.33766  1.0000
  S   S8        1.0  0.08552  0.28393  0.35902  1.0000
  S   S9        1.0  0.02712  0.27041  0.33792  1.0000
  Fe  Fe6       1.0  0.10546  0.22745  0.32751  1.0000
  S   S10       1.0  0.12809  0.24991  0.34877  1.0000
  S   S11       1.0  0.12079  0.19632  0.30658  1.0000
  Fe  Fe7       1.0  0.10115  0.25426  0.38193  1.0000
  S   S12       1.0  0.10842  0.24640  0.42865  1.0000
  Fe  Fe8       1.0  0.11060  0.27743  0.32353  1.0000
  S   S13       1.0  0.13303  0.30310  0.30220  1.0000
  S   S14       1.0  0.07936  0.22984  0.36182  1.0000
  S   S15       1.0  0.08860  0.25473  0.30095  1.0000
  Fe  Fe9       1.0  0.20722  0.36554  0.09385  1.0000
  S   S16       1.0  0.23174  0.38834  0.11141  1.0000
  S   S17       1.0  0.21549  0.35560  0.04802  1.0000
  Fe  Fe10      1.0  0.18807  0.35580  0.15465  1.0000
  S   S18       1.0  0.21194  0.37812  0.17494  1.0000
  S   S19       1.0  0.16139  0.33545  0.17738  1.0000
  Fe  Fe11      1.0  0.20428  0.40260  0.13914  1.0000
  S   S20       1.0  0.19289  0.43993  0.14120  1.0000
  Fe  Fe12      1.0  0.23731  0.36190  0.14499  1.0000
  S   S21       1.0  0.27293  0.34988  0.15414  1.0000
  S   S22       1.0  0.17900  0.38090  0.11995  1.0000
  S   S23       1.0  0.21394  0.33864  0.12665  1.0000
  C   C1        1.0  0.20438  0.36139  0.01379  1.0000
  C   C2        1.0  0.18348  0.37194  0.00968  1.0000
  C   C3        1.0  0.11920  0.36335  0.26197  1.0000
  H   H2        1.0  0.17353  0.37714  0.02775  1.0000
  C   C4        1.0  0.17058  0.21464  0.28476  1.0000
  C   C5        1.0  0.00044  0.25899  0.33528  1.0000
  C   C6        1.0  0.99763  0.23689  0.32796  1.0000
  C   C7        1.0  0.10194  0.35418  0.21840  1.0000
  H   H3        1.0  0.01198  0.22612  0.32303  1.0000
  H   H4        1.0  0.02911  0.29069  0.40873  1.0000
  C   C8        1.0  0.10063  0.25802  0.46191  1.0000
  H   H5        1.0  0.16736  0.26850  0.30251  1.0000
  C   C9        1.0  0.09529  0.28071  0.46530  1.0000
  C   C10       1.0  0.18764  0.20675  0.30245  1.0000
  H   H6        1.0  0.09463  0.29165  0.44703  1.0000
  C   C11       1.0  0.14219  0.30972  0.26700  1.0000
  C   C12       1.0  0.16020  0.32347  0.26323  1.0000
  C   C13       1.0  0.16702  0.33064  0.23604  1.0000
  C   C14       1.0  0.15571  0.32444  0.21203  1.0000
  C   C15       1.0  0.13807  0.31023  0.21576  1.0000
  C   C16       1.0  0.13142  0.30284  0.24292  1.0000
  H   H7        1.0  0.16879  0.32892  0.28155  1.0000
  H   H8        1.0  0.18068  0.34143  0.23376  1.0000
  H   H9        1.0  0.12914  0.30524  0.19748  1.0000
  H   H10       1.0  0.11747  0.29241  0.24519  1.0000
  H   H11       1.0  0.14962  0.40631  0.20749  1.0000
  C   C17       1.0  0.21328  0.46224  0.07604  1.0000
  H   H12       1.0  0.98539  0.21766  0.41835  1.0000
  C   C18       1.0  0.28311  0.32189  0.14964  1.0000
  C   C19       1.0  0.26892  0.30490  0.14429  1.0000
  H   H13       1.0  0.14900  0.38688  0.17898  1.0000
  C   C20       1.0  0.11760  0.36624  0.20363  1.0000
  N   N1        1.0  0.28949  0.17850  0.17984  1.0000
  H   H14       1.0  0.25129  0.30856  0.14351  1.0000
  C   C21       1.0  0.27257  0.08772  0.45627  1.0000
  C   C22       1.0  0.02939  0.27277  0.41133  1.0000
  H   H15       1.0  0.06405  0.22873  0.42866  1.0000
  H   H16       1.0  0.99595  0.27041  0.39793  1.0000
  H   H17       1.0  0.28328  0.35282  0.09026  1.0000
  C   C23       1.0  0.17769  0.15211  0.34493  1.0000
  C   C24       1.0  0.16720  0.16935  0.36069  1.0000
  C   C25       1.0  0.14984  0.18300  0.34925  1.0000
  C   C26       1.0  0.14241  0.17928  0.32201  1.0000
  C   C27       1.0  0.15288  0.16202  0.30619  1.0000
  C   C28       1.0  0.17057  0.14863  0.31746  1.0000
  H   H18       1.0  0.17247  0.17214  0.38199  1.0000
  H   H19       1.0  0.14200  0.19620  0.36167  1.0000
  H   H20       1.0  0.14724  0.15894  0.28512  1.0000
  H   H21       1.0  0.17829  0.13528  0.30518  1.0000
  N   N2        1.0  0.01137  0.23842  0.40666  1.0000
  H   H22       1.0  0.26619  0.12135  0.44167  1.0000
  C   C29       1.0  0.22654  0.46851  0.15405  1.0000
  C   C30       1.0  0.20460  0.46636  0.14596  1.0000
  H   H23       1.0  0.09140  0.34260  0.25942  1.0000
  H   H24       1.0  0.23700  0.45375  0.15819  1.0000
  C   C31       1.0  0.21051  0.10778  0.42830  1.0000
  C   C32       1.0  0.23919  0.00207  0.34392  1.0000
  C   C33       1.0  0.24831  0.00612  0.31717  1.0000
  H   H25       1.0  0.16276  0.20301  0.27128  1.0000
  H   H26       1.0  0.23400  0.01595  0.35709  1.0000
  H   H27       1.0  0.19297  0.18926  0.30260  1.0000
  H   H28       1.0  0.30015  0.20484  0.15327  1.0000
  H   H29       1.0  0.99638  0.21380  0.38291  1.0000
  C   C34       1.0  0.17297  0.25110  0.30241  1.0000
  C   C35       1.0  0.14515  0.24436  0.26681  1.0000
  H   H30       1.0  0.13550  0.25864  0.27625  1.0000
  C   C36       1.0  0.10286  0.35265  0.24775  1.0000
  C   C37       1.0  0.27752  0.28301  0.14010  1.0000
  C   C38       1.0  0.26976  0.34461  0.07947  1.0000
  H   H31       1.0  0.11742  0.36645  0.18076  1.0000
  H   H32       1.0  0.98322  0.28982  0.34692  1.0000
  C   C39       1.0  0.04901  0.23794  0.42223  1.0000
  C   C40       1.0  0.30042  0.27777  0.14095  1.0000
  H   H33       1.0  0.08972  0.34537  0.20707  1.0000
  C   C41       1.0  0.19722  0.22138  0.32062  1.0000
  H   H34       1.0  0.14762  0.38306  0.25766  1.0000
  H   H35       1.0  0.26631  0.35301  0.05889  1.0000
  C   C42       1.0  0.29286  0.97980  0.35725  1.0000
  H   H36       1.0  0.30564  0.99293  0.31803  1.0000
  N   N3        1.0  0.16314  0.23646  0.28537  1.0000
  C   C43       1.0  0.18999  0.24376  0.32050  1.0000
  H   H37       1.0  0.19760  0.14156  0.42460  1.0000
  C   C44       1.0  0.29222  0.16175  0.15776  1.0000
  H   H38       1.0  0.22424  0.07501  0.43833  1.0000
  C   C45       1.0  0.29177  0.21626  0.19482  1.0000
  C   C46       1.0  0.26278  0.28468  0.06445  1.0000
  C   C47       1.0  0.04864  0.26105  0.41990  1.0000
  H   H39       1.0  0.21012  0.21529  0.33486  1.0000
  H   H40       1.0  0.28243  0.22269  0.23806  1.0000
  H   H41       1.0  0.26633  0.27009  0.13578  1.0000
  H   H42       1.0  0.28787  0.25786  0.06625  1.0000
  H   H43       1.0  0.19635  0.45745  0.08219  1.0000
  C   C48       1.0  0.28428  0.27563  0.06804  1.0000
  H   H44       1.0  0.27305  0.18351  0.24803  1.0000
  H   H45       1.0  0.28715  0.04067  0.38168  1.0000
  H   H46       1.0  0.25488  0.34692  0.09319  1.0000
  C   C49       1.0  0.28406  0.21036  0.22160  1.0000
  H   H47       1.0  0.15197  0.24967  0.24610  1.0000
  C   C50       1.0  0.03016  0.22681  0.41524  1.0000
  C   C51       1.0  0.28136  0.17270  0.20582  1.0000
  H   H48       1.0  0.27849  0.05630  0.47784  1.0000
  C   C52       1.0  0.29424  0.20005  0.17402  1.0000
  H   H49       1.0  0.27689  0.16135  0.14526  1.0000
  H   H50       1.0  0.22461  0.45405  0.09175  1.0000
  C   C53       1.0  0.98137  0.27266  0.34137  1.0000
  H   H51       1.0  0.19731  0.25533  0.33450  1.0000
  H   H52       1.0  0.12050  0.36155  0.28470  1.0000
  C   C54       1.0  0.13453  0.37537  0.24655  1.0000
  N   N4        1.0  0.13371  0.37653  0.21775  1.0000
  H   H53       1.0  0.23307  0.34636  0.99270  1.0000
  C   C55       1.0  0.15066  0.38840  0.20219  1.0000
  H   H54       1.0  0.26159  0.99053  0.27951  1.0000
  H   H55       1.0  0.03077  0.20880  0.41637  1.0000
  N   N5        1.0  0.28403  0.98475  0.38327  1.0000
  C   C56       1.0  0.21707  0.09441  0.47574  1.0000
  C   C57       1.0  0.26759  0.11044  0.45993  1.0000
  C   C58       1.0  0.21766  0.09073  0.44667  1.0000
  C   C59       1.0  0.20276  0.13144  0.46819  1.0000
  C   C60       1.0  0.27864  0.18848  0.22713  1.0000
  C   C61       1.0  0.20300  0.12826  0.43901  1.0000
  H   H56       1.0  0.21096  0.10525  0.40574  1.0000
  H   H57       1.0  0.24164  0.31451  0.06542  1.0000
  S   S24       1.0  0.29561  0.13886  0.29622  1.0000
  C   C62       1.0  0.25841  0.30751  0.06806  1.0000
  H   H58       1.0  0.13327  0.23114  0.26363  1.0000
  H   H59       1.0  0.27765  0.15561  0.21054  1.0000
  N   N6        1.0  0.27496  0.32086  0.07538  1.0000
  H   H60       1.0  0.27545  0.01028  0.41291  1.0000
  H   H61       1.0  0.19709  0.14747  0.47640  1.0000
  H   H62       1.0  0.30633  0.16536  0.14347  1.0000
  C   C63       1.0  0.29615  0.31219  0.07853  1.0000
  H   H63       1.0  0.30197  0.03205  0.33366  1.0000
  C   C64       1.0  0.30602  0.31662  0.15094  1.0000
  C   C65       1.0  0.01070  0.26114  0.40505  1.0000
  H   H64       1.0  0.24951  0.27407  0.05932  1.0000
  H   H65       1.0  0.06337  0.26981  0.42426  1.0000
  C   C66       1.0  0.30113  0.28948  0.07482  1.0000
  C   C67       1.0  0.28235  0.00627  0.39228  1.0000
  H   H66       1.0  0.30473  0.11045  0.24647  1.0000
  C   C68       1.0  0.28900  0.02358  0.37473  1.0000
  H   H67       1.0  0.10581  0.22661  0.48375  1.0000
  C   C69       1.0  0.27448  0.07386  0.48037  1.0000
  H   H68       1.0  0.29628  0.14500  0.16699  1.0000
  C   C70       1.0  0.23658  0.98001  0.35356  1.0000
  H   H69       1.0  0.21757  0.45557  0.05485  1.0000
  H   H70       1.0  0.15116  0.26365  0.47377  1.0000
  C   C71       1.0  0.99191  0.22625  0.39940  1.0000
  C   C72       1.0  0.31039  0.14251  0.26353  1.0000
  H   H71       1.0  0.29597  0.23324  0.19010  1.0000
  C   C73       1.0  0.25467  0.98769  0.30030  1.0000
  H   H72       1.0  0.30918  0.32267  0.08490  1.0000
  C   C74       1.0  0.21692  0.35457  0.98990  1.0000
  H   H73       1.0  0.13838  0.30057  0.48488  1.0000
  C   C75       1.0  0.29966  0.99673  0.33916  1.0000
  C   C76       1.0  0.29755  0.01874  0.34793  1.0000
  S   S25       1.0  0.31003  0.25013  0.13313  1.0000
  H   H74       1.0  0.97839  0.23742  0.39069  1.0000
  C   C77       1.0  0.10169  0.24419  0.48605  1.0000
  N   N7        1.0  0.20976  0.11462  0.48613  1.0000
  Fe  Fe13      1.0  0.25994  0.06322  0.63263  1.0000
  S   S26       1.0  0.28676  0.08567  0.61706  1.0000
  S   S27       1.0  0.26952  0.02541  0.63131  1.0000
  Fe  Fe14      1.0  0.22687  0.10332  0.63913  1.0000
  S   S28       1.0  0.25130  0.12736  0.62385  1.0000
  S   S29       1.0  0.19217  0.11562  0.65299  1.0000
  Fe  Fe15      1.0  0.26018  0.10229  0.59008  1.0000
  S   S30       1.0  0.26182  0.11722  0.54530  1.0000
  Fe  Fe16      1.0  0.27582  0.10903  0.65234  1.0000
  C   C78       1.0  0.15163  0.25962  0.49613  1.0000
  S   S31       1.0  0.23402  0.07915  0.60385  1.0000
  S   S32       1.0  0.25069  0.08571  0.66951  1.0000
  Fe  Fe17      1.0  0.21064  0.39470  0.83217  1.0000
  S   S33       1.0  0.17831  0.37845  0.84051  1.0000
  S   S34       1.0  0.20791  0.43040  0.81351  1.0000
  Fe  Fe18      1.0  0.23735  0.35225  0.85174  1.0000
  S   S35       1.0  0.20649  0.33448  0.86183  1.0000
  S   S36       1.0  0.26859  0.33247  0.86589  1.0000
  Fe  Fe19      1.0  0.19382  0.34770  0.81980  1.0000
  S   S37       1.0  0.18215  0.32102  0.78906  1.0000
  Fe  Fe20      1.0  0.19414  0.36659  0.88147  1.0000
  S   S38       1.0  0.17613  0.37213  0.92391  1.0000
  S   S39       1.0  0.22552  0.36443  0.80913  1.0000
  S   S40       1.0  0.22555  0.38392  0.87369  1.0000
  Fe  Fe21      1.0  0.11859  0.23248  0.62686  1.0000
  S   S41       1.0  0.12571  0.26847  0.61905  1.0000
  S   S42       1.0  0.14971  0.21069  0.61615  1.0000
  Fe  Fe22      1.0  0.06892  0.24480  0.63845  1.0000
  S   S43       1.0  0.07377  0.28118  0.63149  1.0000
  S   S44       1.0  0.03527  0.22970  0.64849  1.0000
  Fe  Fe23      1.0  0.09455  0.27021  0.59365  1.0000
  S   S45       1.0  0.09246  0.28817  0.55071  1.0000
  Fe  Fe24      1.0  0.10489  0.27602  0.65763  1.0000
  S   S46       1.0  0.11281  0.30261  0.69049  1.0000
  S   S47       1.0  0.08838  0.23411  0.59938  1.0000
  S   S48       1.0  0.09893  0.23993  0.66689  1.0000
  C   C79       1.0  0.00687  0.23961  0.64642  1.0000
  C   C80       1.0  0.99006  0.22461  0.65125  1.0000
  C   C81       1.0  0.00058  0.26193  0.64090  1.0000
  H   H75       1.0  0.99460  0.20732  0.65562  1.0000
  H   H76       1.0  0.01318  0.27375  0.63707  1.0000
  C   C82       1.0  0.16299  0.31665  0.76118  1.0000
  C   C83       1.0  0.16449  0.29635  0.74657  1.0000
  C   C84       1.0  0.14972  0.29190  0.72463  1.0000
  C   C85       1.0  0.13293  0.30764  0.71699  1.0000
  C   C86       1.0  0.13134  0.32789  0.73169  1.0000
  C   C87       1.0  0.14626  0.33243  0.75344  1.0000
  H   H77       1.0  0.17728  0.28395  0.75222  1.0000
  H   H78       1.0  0.15133  0.27625  0.71370  1.0000
  H   H79       1.0  0.11849  0.34026  0.72617  1.0000
  H   H80       1.0  0.14471  0.34811  0.76431  1.0000
  C   C88       1.0  0.17974  0.14143  0.64132  1.0000
  C   C89       1.0  0.19029  0.15490  0.62167  1.0000
  C   C90       1.0  0.18068  0.17591  0.61416  1.0000
  C   C91       1.0  0.16039  0.18374  0.62609  1.0000
  C   C92       1.0  0.14970  0.17022  0.64559  1.0000
  C   C93       1.0  0.15933  0.14914  0.65310  1.0000
  H   H81       1.0  0.20590  0.14917  0.61230  1.0000
  H   H82       1.0  0.18906  0.18619  0.59899  1.0000
  H   H83       1.0  0.13405  0.17598  0.65487  1.0000
  H   H84       1.0  0.15100  0.13883  0.66829  1.0000
  C   C94       1.0  0.17515  0.37516  0.98210  1.0000
  C   C95       1.0  0.20926  0.11851  0.51659  1.0000
  S   S49       1.0  0.29860  0.13225  0.67622  1.0000
  C   C96       1.0  0.28572  0.31394  0.84556  1.0000
  C   C97       1.0  0.29240  0.29316  0.85726  1.0000
  H   H85       1.0  0.22051  0.29538  0.81568  1.0000
  C   C98       1.0  0.15163  0.24862  0.55303  1.0000
  H   H86       1.0  0.28497  0.28775  0.87687  1.0000
  H   H87       1.0  0.22319  0.08125  0.48982  1.0000
  C   C99       1.0  0.24261  0.14170  0.70277  1.0000
  H   H88       1.0  0.14493  0.28351  0.55952  1.0000
  C   C100      1.0  0.18765  0.36815  0.95824  1.0000
  C   C101      1.0  0.20872  0.35805  0.96235  1.0000
  H   H89       1.0  0.29208  0.11372  0.73383  1.0000
  H   H90       1.0  0.21855  0.35251  0.94431  1.0000
  C   C102      1.0  0.09822  0.25295  0.51330  1.0000
  C   C103      1.0  0.09370  0.27576  0.51679  1.0000
  C   C104      1.0  0.14453  0.29917  0.50684  1.0000
  H   H91       1.0  0.09973  0.24216  0.53165  1.0000
  C   C105      1.0  0.09179  0.28948  0.49257  1.0000
  H   H92       1.0  0.08826  0.30714  0.49499  1.0000
  C   C106      1.0  0.26650  0.10527  0.51141  1.0000
  C   C107      1.0  0.29568  0.32089  0.82041  1.0000
  H   H93       1.0  0.27283  0.07165  0.52604  1.0000
  H   H94       1.0  0.21663  0.98203  0.59479  1.0000
  C   C108      1.0  0.22223  0.46229  0.85090  1.0000
  C   C109      1.0  0.21227  0.45797  0.82519  1.0000
  H   H95       1.0  0.16553  0.40823  0.88711  1.0000
  H   H96       1.0  0.22803  0.44854  0.86421  1.0000
  H   H97       1.0  0.18793  0.47081  0.91173  1.0000
  C   C110      1.0  0.20503  0.47622  0.80816  1.0000
  C   C111      1.0  0.25838  0.99914  0.63981  1.0000
  C   C112      1.0  0.23793  0.99718  0.65349  1.0000
  C   C113      1.0  0.16715  0.42581  0.88305  1.0000
  H   H98       1.0  0.22838  0.01202  0.65978  1.0000
  C   C114      1.0  0.14812  0.27066  0.54393  1.0000
  C   C115      1.0  0.30941  0.27978  0.84455  1.0000
  N   N8        1.0  0.14795  0.27588  0.51578  1.0000
  C   C116      1.0  0.30687  0.14025  0.71081  1.0000
  H   H99       1.0  0.15536  0.46510  0.83269  1.0000
  H   H100      1.0  0.28626  0.98073  0.62118  1.0000
  H   H101      1.0  0.26638  0.00731  0.57324  1.0000
  H   H102      1.0  0.15159  0.42486  0.84239  1.0000
  H   H103      1.0  0.03935  0.23276  0.71035  1.0000
  H   H104      1.0  0.02094  0.26780  0.69277  1.0000
  H   H105      1.0  0.15712  0.21467  0.54026  1.0000
  C   C117      1.0  0.16096  0.45780  0.85254  1.0000
  C   C118      1.0  0.27129  0.08252  0.50776  1.0000
  N   N9        1.0  0.24638  0.97942  0.57007  1.0000
  H   H106      1.0  0.09794  0.25794  0.76542  1.0000
  N   N10       1.0  0.22653  0.17230  0.67579  1.0000
  C   C119      1.0  0.24469  0.15935  0.68365  1.0000
  C   C120      1.0  0.20611  0.16840  0.68691  1.0000
  C   C121      1.0  0.20343  0.15083  0.70601  1.0000
  C   C122      1.0  0.22180  0.13731  0.71377  1.0000
  C   C123      1.0  0.22897  0.18952  0.65402  1.0000
  H   H107      1.0  0.26085  0.16224  0.67456  1.0000
  H   H108      1.0  0.19158  0.17827  0.68018  1.0000
  H   H109      1.0  0.18705  0.14708  0.71362  1.0000
  H   H110      1.0  0.24316  0.19977  0.65878  1.0000
  H   H111      1.0  0.23191  0.18154  0.63320  1.0000
  H   H112      1.0  0.21389  0.20081  0.65242  1.0000
  N   N11       1.0  0.07610  0.26903  0.73265  1.0000
  C   C124      1.0  0.06670  0.24921  0.72837  1.0000
  C   C125      1.0  0.06619  0.28844  0.72258  1.0000
  C   C126      1.0  0.04663  0.24852  0.71423  1.0000
  C   C127      1.0  0.04620  0.28832  0.70815  1.0000
  C   C128      1.0  0.03633  0.26822  0.70414  1.0000
  C   C129      1.0  0.09753  0.26915  0.74666  1.0000
  H   H113      1.0  0.07397  0.30410  0.72514  1.0000
  H   H114      1.0  0.29817  0.23543  0.79570  1.0000
  C   C130      1.0  0.15892  0.43520  0.85793  1.0000
  H   H115      1.0  0.23857  0.01245  0.58488  1.0000
  C   C131      1.0  0.17942  0.46074  0.89701  1.0000
  H   H116      1.0  0.24269  0.31407  0.81857  1.0000
  C   C132      1.0  0.24899  0.00348  0.56874  1.0000
  N   N12       1.0  0.25247  0.28248  0.80215  1.0000
  C   C133      1.0  0.25329  0.26538  0.82144  1.0000
  C   C134      1.0  0.26788  0.28317  0.78083  1.0000
  C   C135      1.0  0.26950  0.24801  0.81917  1.0000
  C   C136      1.0  0.15491  0.23186  0.53322  1.0000
  C   C137      1.0  0.23594  0.30095  0.80546  1.0000
  H   H117      1.0  0.24158  0.26530  0.83895  1.0000
  H   H118      1.0  0.19443  0.43980  0.94149  1.0000
  H   H119      1.0  0.03863  0.30367  0.69970  1.0000
  C   C138      1.0  0.27046  0.97951  0.63188  1.0000
  H   H120      1.0  0.10112  0.28607  0.75390  1.0000
  H   H121      1.0  0.21984  0.12315  0.72777  1.0000
  H   H122      1.0  0.24445  0.01015  0.54757  1.0000
  H   H123      1.0  0.23103  0.30835  0.78472  1.0000
  H   H124      1.0  0.19965  0.41482  0.92160  1.0000
  H   H125      1.0  0.29698  0.26700  0.76161  1.0000
  C   C139      1.0  0.18676  0.42784  0.92751  1.0000
  H   H126      1.0  0.17359  0.41961  0.93972  1.0000
  H   H127      1.0  0.15878  0.38287  0.97929  1.0000
  C   C140      1.0  0.28432  0.26610  0.77796  1.0000
  H   H128      1.0  0.26782  0.29722  0.76631  1.0000
  C   C141      1.0  0.17100  0.47077  0.87234  1.0000
  H   H129      1.0  0.07491  0.23375  0.73544  1.0000
  H   H130      1.0  0.25698  0.13113  0.70837  1.0000
  H   H131      1.0  0.29102  0.33706  0.81151  1.0000
  C   C142      1.0  0.15499  0.23735  0.50454  1.0000
  H   H132      1.0  0.27035  0.23461  0.83469  1.0000
  N   N13       1.0  0.17747  0.43850  0.90203  1.0000
  H   H133      1.0  0.15151  0.24450  0.57532  1.0000
  H   H134      1.0  0.16026  0.30774  0.50828  1.0000
  C   C143      1.0  0.28507  0.24841  0.79724  1.0000
  H   H135      1.0  0.11090  0.26370  0.73160  1.0000
  H   H136      1.0  0.19737  0.47316  0.78819  1.0000
  H   H137      1.0  0.21887  0.13318  0.52151  1.0000
  H   H138      1.0  0.21701  0.10426  0.52867  1.0000
  H   H139      1.0  0.26114  0.13678  0.48985  1.0000
  H   H140      1.0  0.19195  0.12136  0.52426  1.0000
  H   H141      1.0  0.13175  0.30784  0.52044  1.0000
  H   H142      1.0  0.30705  0.31482  0.92181  1.0000
  C   C144      1.0  0.97794  0.26911  0.64084  1.0000
  C   C145      1.0  0.30151  0.12840  0.73537  1.0000
  H   H143      1.0  0.98881  0.24275  0.58514  1.0000
  C   C146      1.0  0.30878  0.13524  0.76203  1.0000
  H   H144      1.0  0.30469  0.12570  0.78069  1.0000
  H   H145      1.0  0.15708  0.22444  0.48886  1.0000
  C   C147      1.0  0.26473  0.11914  0.48732  1.0000
  Fe  Fe25      1.0  0.27703  0.85609  0.32402  1.0000
  S   S50       1.0  0.24770  0.87487  0.30475  1.0000
  C   C148      1.0  0.23345  0.49574  0.08497  1.0000
  Fe  Fe26      1.0  0.25461  0.85609  0.38378  1.0000
  S   S51       1.0  0.22379  0.87385  0.36731  1.0000
  S   S52       1.0  0.25347  0.84075  0.42831  1.0000
  Fe  Fe27      1.0  0.22732  0.85101  0.33018  1.0000
  S   S53       1.0  0.20357  0.82826  0.30897  1.0000
  Fe  Fe28      1.0  0.24705  0.89630  0.34384  1.0000
  S   S54       1.0  0.24134  0.93413  0.35155  1.0000
  S   S55       1.0  0.25680  0.83185  0.34785  1.0000
  S   S56       1.0  0.27788  0.87889  0.36179  1.0000
  Fe  Fe29      1.0  0.23211  0.61998  0.12994  1.0000
  S   S57       1.0  0.19717  0.62860  0.11542  1.0000
  S   S58       1.0  0.25328  0.65036  0.12399  1.0000
  Fe  Fe30      1.0  0.22062  0.57123  0.14310  1.0000
  S   S59       1.0  0.18551  0.57788  0.13027  1.0000
  S   S60       1.0  0.23344  0.53587  0.15592  1.0000
  Fe  Fe31      1.0  0.19974  0.59594  0.09275  1.0000
  S   S61       1.0  0.18824  0.58476  0.04953  1.0000
  Fe  Fe32      1.0  0.18645  0.61004  0.15439  1.0000
  S   S62       1.0  0.15617  0.62089  0.18210  1.0000
  S   S63       1.0  0.23505  0.58828  0.10490  1.0000
  S   S64       1.0  0.22109  0.60237  0.16979  1.0000
  Fe  Fe33      1.0  0.06773  0.71921  0.34100  1.0000
  S   S65       1.0  0.08408  0.68490  0.34664  1.0000
  S   S66       1.0  0.03090  0.72987  0.33381  1.0000
  Fe  Fe34      1.0  0.11139  0.74193  0.35510  1.0000
  S   S67       1.0  0.12970  0.70909  0.36262  1.0000
  S   S68       1.0  0.12614  0.77481  0.36663  1.0000
  Fe  Fe35      1.0  0.11355  0.69800  0.32269  1.0000
  S   S69       1.0  0.13925  0.68271  0.29077  1.0000
  Fe  Fe36      1.0  0.09905  0.69899  0.38568  1.0000
  S   S70       1.0  0.09646  0.68047  0.42785  1.0000
  S   S71       1.0  0.09622  0.73170  0.31448  1.0000
  S   S72       1.0  0.08172  0.73242  0.38080  1.0000
  C   C149      1.0  0.00069  0.69595  0.33798  1.0000
  C   C150      1.0  0.00391  0.71875  0.33535  1.0000
  H   H146      1.0  0.28680  0.67210  0.05999  1.0000
  H   H147      1.0  0.01486  0.68429  0.33896  1.0000
  H   H148      1.0  0.25186  0.49115  0.16384  1.0000
  C   C151      1.0  0.10104  0.69220  0.46142  1.0000
  C   C152      1.0  0.10901  0.71343  0.46411  1.0000
  C   C153      1.0  0.21161  0.57714  0.23869  1.0000
  H   H149      1.0  0.11284  0.72302  0.44540  1.0000
  H   H150      1.0  0.30577  0.63970  0.08307  1.0000
  C   C154      1.0  0.22174  0.50937  0.15191  1.0000
  H   H151      1.0  0.22762  0.55044  0.21481  1.0000
  C   C155      1.0  0.19987  0.50723  0.14347  1.0000
  H   H152      1.0  0.22719  0.81506  0.39268  1.0000
  H   H153      1.0  0.18947  0.52197  0.13904  1.0000
  C   C156      1.0  0.19633  0.59511  0.01580  1.0000
  H   H154      1.0  0.01967  0.68481  0.40322  1.0000
  C   C157      1.0  0.20580  0.61567  0.01240  1.0000
  C   C158      1.0  0.19270  0.55447  0.20615  1.0000
  H   H155      1.0  0.20906  0.62541  0.03075  1.0000
  C   C159      1.0  0.15206  0.63769  0.21280  1.0000
  C   C160      1.0  0.16939  0.64784  0.22599  1.0000
  C   C161      1.0  0.16517  0.66106  0.25011  1.0000
  C   C162      1.0  0.14361  0.66442  0.26149  1.0000
  C   C163      1.0  0.12636  0.65393  0.24860  1.0000
  C   C164      1.0  0.13058  0.64070  0.22448  1.0000
  H   H156      1.0  0.18602  0.64566  0.21749  1.0000
  H   H157      1.0  0.17871  0.66897  0.25989  1.0000
  H   H158      1.0  0.10971  0.65619  0.25702  1.0000
  H   H159      1.0  0.11701  0.63285  0.21467  1.0000
  C   C165      1.0  0.24341  0.96158  0.33696  1.0000
  H   H160      1.0  0.22668  0.58161  0.24884  1.0000
  C   C166      1.0  0.25243  0.96562  0.31016  1.0000
  C   C167      1.0  0.30297  0.69219  0.13527  1.0000
  H   H161      1.0  0.25766  0.95176  0.29699  1.0000
  C   C168      1.0  0.25745  0.85304  0.46177  1.0000
  C   C169      1.0  0.27677  0.96689  0.40197  1.0000
  C   C170      1.0  0.26577  0.87413  0.46444  1.0000
  H   H162      1.0  0.03904  0.69696  0.37903  1.0000
  H   H163      1.0  0.26970  0.88363  0.44570  1.0000
  C   C171      1.0  0.14706  0.78978  0.34940  1.0000
  C   C172      1.0  0.15308  0.80997  0.36094  1.0000
  C   C173      1.0  0.17060  0.82171  0.34920  1.0000
  C   C174      1.0  0.18185  0.81376  0.32515  1.0000
  C   C175      1.0  0.17550  0.79383  0.31319  1.0000
  C   C176      1.0  0.15843  0.78172  0.32547  1.0000
  H   H164      1.0  0.14430  0.81643  0.37933  1.0000
  H   H165      1.0  0.17510  0.83715  0.35843  1.0000
  H   H166      1.0  0.18401  0.78764  0.29447  1.0000
  H   H167      1.0  0.15402  0.76621  0.31647  1.0000
  H   H168      1.0  0.15403  0.54398  0.18851  1.0000
  C   C177      1.0  0.18120  0.80504  0.43124  1.0000
  N   N14       1.0  0.21465  0.48648  0.07597  1.0000
  C   C178      1.0  0.27833  0.66112  0.13585  1.0000
  C   C179      1.0  0.28270  0.68317  0.12854  1.0000
  H   H169      1.0  0.15090  0.57299  0.17844  1.0000
  H   H170      1.0  0.24971  0.52620  0.09251  1.0000
  H   H171      1.0  0.03053  0.76519  0.42483  1.0000
  H   H172      1.0  0.27045  0.69325  0.11705  1.0000
  H   H173      1.0  0.13830  0.56315  0.21055  1.0000
  C   C180      1.0  0.29300  0.82376  0.25087  1.0000
  H   H174      1.0  0.15983  0.77818  0.42351  1.0000
  H   H175      1.0  0.27647  0.82878  0.25811  1.0000
  H   H176      1.0  0.21862  0.55029  0.07360  1.0000
  N   N15       1.0  0.20602  0.78853  0.38569  1.0000
  C   C181      1.0  0.30379  0.67330  0.06657  1.0000
  H   H177      1.0  0.23436  0.77071  0.36942  1.0000
  H   H178      1.0  0.27371  0.95159  0.39000  1.0000
  H   H179      1.0  0.05282  0.68814  0.45309  1.0000
  H   H180      1.0  0.28565  0.70922  0.04460  1.0000
  H   H181      1.0  0.24704  0.48535  0.09339  1.0000
  H   H182      1.0  0.28921  0.89268  0.27154  1.0000
  H   H183      1.0  0.02494  0.73406  0.39276  1.0000
  N   N16       1.0  0.03900  0.70939  0.42084  1.0000
  C   C182      1.0  0.04766  0.70501  0.44694  1.0000
  C   C183      1.0  0.03216  0.73062  0.41328  1.0000
  H   H184      1.0  0.18253  0.49235  0.05859  1.0000
  C   C184      1.0  0.03522  0.74831  0.43140  1.0000
  C   C185      1.0  0.21251  0.80683  0.39949  1.0000
  C   C186      1.0  0.03648  0.69120  0.40112  1.0000
  H   H185      1.0  0.29501  0.76476  0.23296  1.0000
  H   H186      1.0  0.29809  0.74901  0.18367  1.0000
  C   C187      1.0  0.29618  0.81299  0.22472  1.0000
  H   H187      1.0  0.18233  0.76353  0.38361  1.0000
  H   H188      1.0  0.27338  0.86444  0.19219  1.0000
  H   H189      1.0  0.22424  0.79394  0.34784  1.0000
  C   C188      1.0  0.18770  0.77792  0.39466  1.0000
  H   H190      1.0  0.18490  0.53343  0.05689  1.0000
  H   H191      1.0  0.19108  0.60306  0.25842  1.0000
  C   C189      1.0  0.23493  0.48983  0.15726  1.0000
  H   H192      1.0  0.19342  0.54119  0.19089  1.0000
  H   H193      1.0  0.15716  0.59295  0.23440  1.0000
  S   S73       1.0  0.30831  0.84390  0.29920  1.0000
  C   C190      1.0  0.19859  0.52283  0.06477  1.0000
  C   C191      1.0  0.15313  0.56124  0.19657  1.0000
  H   H194      1.0  0.29130  0.63130  0.15647  1.0000
  H   H195      1.0  0.30222  0.72640  0.06567  1.0000
  C   C192      1.0  0.21927  0.77999  0.36173  1.0000
  N   N17       1.0  0.17319  0.56616  0.21180  1.0000
  H   H196      1.0  0.17440  0.48458  0.13441  1.0000
  C   C193      1.0  0.19210  0.58278  0.99160  1.0000
  C   C194      1.0  0.30396  0.73355  0.19496  1.0000
  C   C195      1.0  0.19136  0.48593  0.14078  1.0000
  H   H197      1.0  0.28194  0.80979  0.21213  1.0000
  C   C196      1.0  0.29436  0.64831  0.15071  1.0000
  C   C197      1.0  0.17490  0.78612  0.41737  1.0000
  H   H198      1.0  0.20549  0.83006  0.43302  1.0000
  H   H199      1.0  0.28952  0.96276  0.41807  1.0000
  H   H200      1.0  0.98719  0.75109  0.33136  1.0000
  H   H201      1.0  0.26119  0.88261  0.23675  1.0000
  N   N18       1.0  0.13763  0.72491  0.24256  1.0000
  C   C198      1.0  0.11652  0.71865  0.23836  1.0000
  C   C199      1.0  0.15477  0.71620  0.22638  1.0000
  C   C200      1.0  0.11207  0.70377  0.21701  1.0000
  C   C201      1.0  0.15090  0.70138  0.20473  1.0000
  C   C202      1.0  0.12939  0.69515  0.20006  1.0000
  C   C203      1.0  0.14212  0.73989  0.26569  1.0000
  H   H202      1.0  0.10307  0.72478  0.25194  1.0000
  H   H203      1.0  0.17162  0.72034  0.23055  1.0000
  H   H204      1.0  0.09540  0.69848  0.21417  1.0000
  H   H205      1.0  0.16455  0.69411  0.19232  1.0000
  H   H206      1.0  0.12631  0.68305  0.18400  1.0000
  H   H207      1.0  0.12782  0.75182  0.26971  1.0000
  H   H208      1.0  0.14543  0.73002  0.28530  1.0000
  H   H209      1.0  0.15664  0.74987  0.26083  1.0000
  C   C204      1.0  0.21215  0.55964  0.21966  1.0000
  C   C205      1.0  0.97903  0.68808  0.33833  1.0000
  H   H210      1.0  0.18471  0.56689  0.99395  1.0000
  C   C206      1.0  0.28569  0.86916  0.20707  1.0000
  C   C207      1.0  0.20022  0.81539  0.42240  1.0000
  C   C208      1.0  0.04488  0.74408  0.45762  1.0000
  H   H211      1.0  0.20970  0.76899  0.34841  1.0000
  C   C209      1.0  0.19168  0.58911  0.24412  1.0000
  H   H212      1.0  0.04780  0.75765  0.47168  1.0000
  C   C210      1.0  0.17252  0.58330  0.23048  1.0000
  C   C211      1.0  0.19739  0.49968  0.06579  1.0000
  C   C212      1.0  0.21759  0.53238  0.07415  1.0000
  H   H213      1.0  0.04913  0.67742  0.40487  1.0000
  C   C213      1.0  0.05096  0.72228  0.46560  1.0000
  H   H214      1.0  0.30609  0.70898  0.12880  1.0000
  H   H215      1.0  0.17129  0.81176  0.44863  1.0000
  N   N19       1.0  0.30772  0.86449  0.20176  1.0000
  C   C214      1.0  0.27868  0.87952  0.23212  1.0000
  H   H216      1.0  0.08984  0.66362  0.48424  1.0000
  C   C215      1.0  0.23514  0.51882  0.08438  1.0000
  C   C216      1.0  0.30286  0.71238  0.05060  1.0000
  H   H217      1.0  0.30265  0.84156  0.16880  1.0000
  C   C217      1.0  0.29439  0.88534  0.25157  1.0000
  C   C218      1.0  0.98504  0.73344  0.33356  1.0000
  H   H218      1.0  0.28956  0.72433  0.20243  1.0000
  H   H219      1.0  0.22930  0.97721  0.37416  1.0000
  H   H220      1.0  0.26082  0.97191  0.41250  1.0000
  H   H221      1.0  0.24622  0.82454  0.48470  1.0000
  H   H222      1.0  0.29387  0.96280  0.34990  1.0000
  H   H223      1.0  0.05871  0.71876  0.48581  1.0000
  C   C219      1.0  0.09603  0.68006  0.48605  1.0000
  C   C220      1.0  0.25255  0.84091  0.48646  1.0000
  C   C221      1.0  0.31056  0.75549  0.23672  1.0000
  Fe  Fe37      1.0  0.26109  0.87043  0.59408  1.0000
  S   S74       1.0  0.22635  0.87803  0.60968  1.0000
  S   S75       1.0  0.27065  0.88196  0.54956  1.0000
  Fe  Fe38      1.0  0.27693  0.85578  0.65463  1.0000
  S   S76       1.0  0.24322  0.86354  0.67339  1.0000
  H   H224      1.0  0.09918  0.61044  0.65077  1.0000
  Fe  Fe39      1.0  0.23026  0.84623  0.63543  1.0000
  S   S77       1.0  0.21157  0.81403  0.63603  1.0000
  Fe  Fe40      1.0  0.24273  0.89477  0.64569  1.0000
  S   S78       1.0  0.23100  0.92995  0.65967  1.0000
  S   S79       1.0  0.26433  0.83771  0.61733  1.0000
  S   S80       1.0  0.27726  0.88801  0.62956  1.0000
  Fe  Fe41      1.0  0.19061  0.61143  0.82346  1.0000
  S   S81       1.0  0.21826  0.58909  0.80524  1.0000
  S   S82       1.0  0.16107  0.63074  0.80224  1.0000
  Fe  Fe42      1.0  0.21136  0.60883  0.88323  1.0000
  S   S83       1.0  0.24041  0.58738  0.86816  1.0000
  S   S84       1.0  0.21029  0.62413  0.92713  1.0000
  Fe  Fe43      1.0  0.24094  0.61002  0.83024  1.0000
  S   S85       1.0  0.27156  0.62422  0.80953  1.0000
  Fe  Fe44      1.0  0.21535  0.56799  0.84504  1.0000
  S   S86       1.0  0.22036  0.53029  0.85492  1.0000
  S   S87       1.0  0.21359  0.63283  0.84658  1.0000
  S   S88       1.0  0.18606  0.58900  0.86191  1.0000
  Fe  Fe45      1.0  0.10447  0.71358  0.59519  1.0000
  S   S89       1.0  0.07999  0.73853  0.61453  1.0000
  S   S90       1.0  0.11318  0.72164  0.54904  1.0000
  Fe  Fe46      1.0  0.11519  0.69203  0.65448  1.0000
  S   S91       1.0  0.09119  0.71600  0.67646  1.0000
  S   S92       1.0  0.13668  0.66388  0.67598  1.0000
  Fe  Fe47      1.0  0.06759  0.71020  0.64076  1.0000
  S   S93       1.0  0.03222  0.69764  0.64655  1.0000
  Fe  Fe48      1.0  0.10586  0.74207  0.64783  1.0000
  S   S94       1.0  0.11578  0.77690  0.65970  1.0000
  S   S95       1.0  0.09118  0.68484  0.61977  1.0000
  S   S96       1.0  0.13073  0.71840  0.62758  1.0000
  C   C222      1.0  0.99821  0.73091  0.64042  1.0000
  C   C223      1.0  0.00424  0.70815  0.64134  1.0000
  H   H225      1.0  0.29843  0.65797  0.78538  1.0000
  H   H226      1.0  0.01088  0.74285  0.64175  1.0000
  C   C224      1.0  0.29984  0.81742  0.76035  1.0000
  C   C225      1.0  0.21704  0.50268  0.84260  1.0000
  C   C226      1.0  0.27159  0.77678  0.72716  1.0000
  C   C227      1.0  0.20733  0.49837  0.81676  1.0000
  C   C228      1.0  0.13253  0.77001  0.58052  1.0000
  H   H227      1.0  0.20146  0.51208  0.80343  1.0000
  C   C229      1.0  0.15624  0.64115  0.76700  1.0000
  C   C230      1.0  0.14051  0.65896  0.76267  1.0000
  C   C231      1.0  0.13506  0.66683  0.73520  1.0000
  C   C232      1.0  0.14476  0.65656  0.71140  1.0000
  C   C233      1.0  0.16051  0.63879  0.71574  1.0000
  C   C234      1.0  0.16638  0.63130  0.74321  1.0000
  H   H228      1.0  0.13247  0.66678  0.78075  1.0000
  H   H229      1.0  0.12297  0.68052  0.73243  1.0000
  H   H230      1.0  0.16819  0.63064  0.69765  1.0000
  H   H231      1.0  0.17837  0.61752  0.74593  1.0000
  C   C235      1.0  0.24189  0.95634  0.65130  1.0000
  C   C236      1.0  0.26221  0.95831  0.63728  1.0000
  C   C237      1.0  0.15332  0.62796  0.96336  1.0000
  H   H232      1.0  0.27164  0.94349  0.63066  1.0000
  C   C238      1.0  0.27702  0.56554  0.81057  1.0000
  C   C239      1.0  0.18503  0.80427  0.64476  1.0000
  C   C240      1.0  0.16705  0.81839  0.65293  1.0000
  C   C241      1.0  0.14610  0.80969  0.65813  1.0000
  C   C242      1.0  0.14282  0.78687  0.65494  1.0000
  C   C243      1.0  0.16091  0.77279  0.64716  1.0000
  C   C244      1.0  0.18185  0.78141  0.64231  1.0000
  H   H233      1.0  0.16920  0.83599  0.65505  1.0000
  H   H234      1.0  0.13229  0.82074  0.66437  1.0000
  H   H235      1.0  0.15879  0.75522  0.64484  1.0000
  H   H236      1.0  0.19560  0.77028  0.63609  1.0000
  C   C245      1.0  0.29933  0.65923  0.80806  1.0000
  C   C246      1.0  0.22855  0.97106  0.58384  1.0000
  C   C247      1.0  0.29903  0.78719  0.65733  1.0000
  C   C248      1.0  0.28689  0.64514  0.82526  1.0000
  H   H237      1.0  0.27149  0.93129  0.54693  1.0000
  H   H238      1.0  0.18749  0.76402  0.56518  1.0000
  H   H239      1.0  0.17852  0.66065  0.87794  1.0000
  C   C249      1.0  0.25907  0.55307  0.76895  1.0000
  H   H240      1.0  0.30070  0.77144  0.64544  1.0000
  H   H241      1.0  0.27635  0.77179  0.74840  1.0000
  H   H242      1.0  0.17123  0.67279  0.92756  1.0000
  C   C250      1.0  0.26020  0.79005  0.67284  1.0000
  C   C251      1.0  0.22585  0.94813  0.58490  1.0000
  H   H243      1.0  0.27933  0.83618  0.73032  1.0000
  H   H244      1.0  0.24059  0.90535  0.71060  1.0000
  C   C252      1.0  0.10762  0.70993  0.51574  1.0000
  C   C253      1.0  0.09915  0.68891  0.51307  1.0000
  C   C254      1.0  0.15277  0.75962  0.57239  1.0000
  H   H245      1.0  0.09546  0.67927  0.53178  1.0000
  C   C255      1.0  0.19724  0.59087  0.96434  1.0000
  C   C256      1.0  0.20624  0.61168  0.96093  1.0000
  H   H246      1.0  0.30434  0.79797  0.90787  1.0000
  H   H247      1.0  0.19373  0.58128  0.94596  1.0000
  C   C257      1.0  0.24135  0.93381  0.57149  1.0000
  C   C258      1.0  0.25602  0.84963  0.51346  1.0000
  C   C259      1.0  0.26476  0.87054  0.51612  1.0000
  N   N20       1.0  0.27462  0.91190  0.71071  1.0000
  C   C260      1.0  0.21052  0.62396  0.98513  1.0000
  C   C261      1.0  0.16425  0.65677  0.93104  1.0000
  H   H248      1.0  0.21416  0.97475  0.67029  1.0000
  H   H249      1.0  0.21213  0.94146  0.59667  1.0000
  H   H250      1.0  0.24910  0.92085  0.74043  1.0000
  H   H251      1.0  0.25994  0.51389  0.82095  1.0000
  H   H252      1.0  0.16309  0.63896  0.86408  1.0000
  C   C262      1.0  0.27770  0.93305  0.70117  1.0000
  H   H253      1.0  0.28449  0.55757  0.86353  1.0000
  H   H254      1.0  0.23229  0.48748  0.87942  1.0000
  H   H255      1.0  0.29484  0.80117  0.64249  1.0000
  C   C263      1.0  0.27005  0.56944  0.78286  1.0000
  H   H256      1.0  0.27637  0.89886  0.49316  1.0000
  C   C264      1.0  0.29531  0.82787  0.73399  1.0000
  H   H257      1.0  0.26706  0.53461  0.86591  1.0000
  H   H258      1.0  0.25552  0.79509  0.65160  1.0000
  C   C265      1.0  0.22460  0.48446  0.85947  1.0000
  N   N21       1.0  0.08620  0.63794  0.67466  1.0000
  C   C266      1.0  0.06873  0.65330  0.67459  1.0000
  C   C267      1.0  0.09669  0.63226  0.69928  1.0000
  C   C268      1.0  0.06141  0.66347  0.69960  1.0000
  C   C269      1.0  0.08962  0.64187  0.72475  1.0000
  C   C270      1.0  0.07198  0.65773  0.72481  1.0000
  C   C271      1.0  0.09466  0.62843  0.64809  1.0000
  H   H259      1.0  0.11121  0.62090  0.69916  1.0000
  H   H260      1.0  0.04789  0.67604  0.69919  1.0000
  H   H261      1.0  0.09837  0.63765  0.74408  1.0000
  H   H262      1.0  0.06677  0.66581  0.74426  1.0000
  H   H263      1.0  0.08224  0.63030  0.63107  1.0000
  C   C272      1.0  0.16139  0.64898  0.95871  1.0000
  N   N22       1.0  0.13112  0.79205  0.58721  1.0000
  C   C273      1.0  0.14945  0.80438  0.58544  1.0000
  C   C274      1.0  0.16998  0.79454  0.57738  1.0000
  C   C275      1.0  0.10973  0.80278  0.59533  1.0000
  H   H264      1.0  0.14842  0.82178  0.59111  1.0000
  H   H265      1.0  0.18466  0.80419  0.57711  1.0000
  H   H266      1.0  0.09810  0.79039  0.60338  1.0000
  H   H267      1.0  0.11176  0.81450  0.61290  1.0000
  C   C276      1.0  0.15106  0.62341  0.91300  1.0000
  C   C277      1.0  0.28048  0.54189  0.85309  1.0000
  H   H268      1.0  0.30354  0.66296  0.88913  1.0000
  C   C278      1.0  0.17162  0.77198  0.57093  1.0000
  H   H269      1.0  0.15192  0.62137  0.98469  1.0000
  N   N23       1.0  0.28196  0.78565  0.67939  1.0000
  H   H270      1.0  0.25603  0.89158  0.73869  1.0000
  H   H271      1.0  0.27265  0.58533  0.77259  1.0000
  H   H272      1.0  0.26505  0.94621  0.70473  1.0000
  C   C279      1.0  0.98729  0.69301  0.63975  1.0000
  N   N24       1.0  0.27316  0.54587  0.82404  1.0000
  C   C280      1.0  0.24939  0.78156  0.72076  1.0000
  H   H273      1.0  0.23667  0.78010  0.73693  1.0000
  H   H274      1.0  0.25237  0.83999  0.53218  1.0000
  H   H275      1.0  0.11801  0.76025  0.58177  1.0000
  H   H276      1.0  0.14881  0.66461  0.87429  1.0000
  H   H277      1.0  0.15375  0.74204  0.56748  1.0000
  H   H278      1.0  0.06053  0.65809  0.65507  1.0000
  H   H279      1.0  0.10222  0.81177  0.57698  1.0000
  H   H280      1.0  0.23954  0.91599  0.57215  1.0000
  H   H281      1.0  0.24678  0.52012  0.77228  1.0000
  H   H282      1.0  0.28518  0.57856  0.82135  1.0000
  C   C281      1.0  0.29690  0.93796  0.68610  1.0000
  C   C282      1.0  0.14804  0.61509  0.94040  1.0000
  C   C283      1.0  0.26162  0.96546  0.55678  1.0000
  C   C284      1.0  0.24361  0.78817  0.69342  1.0000
  H   H283      1.0  0.10967  0.63705  0.64120  1.0000
  H   H284      1.0  0.22638  0.79181  0.68810  1.0000
  H   H285      1.0  0.27882  0.63623  0.86810  1.0000
  H   H286      1.0  0.28724  0.81798  0.77675  1.0000
  C   C285      1.0  0.26953  0.88273  0.49143  1.0000
  H   H287      1.0  0.14720  0.61320  0.89525  1.0000
  N   N25       1.0  0.15935  0.64389  0.90864  1.0000
  C   C286      1.0  0.16251  0.65247  0.87987  1.0000
  C   C287      1.0  0.28818  0.64698  0.85455  1.0000
  H   H288      1.0  0.99162  0.67537  0.64036  1.0000
  H   H289      1.0  0.16626  0.65877  0.97640  1.0000
  C   C288      1.0  0.26295  0.52951  0.81028  1.0000
  H   H290      1.0  0.27573  0.97208  0.54584  1.0000
  C   C289      1.0  0.25936  0.94246  0.55731  1.0000
  C   C290      1.0  0.25551  0.53292  0.78269  1.0000
  H   H291      1.0  0.25313  0.55611  0.74770  1.0000
  C   C291      1.0  0.29010  0.89511  0.70505  1.0000
  H   H292      1.0  0.14225  0.59854  0.94381  1.0000
  C   C292      1.0  0.25412  0.90712  0.72590  1.0000
  C   C293      1.0  0.22988  0.97594  0.65940  1.0000
  C   C294      1.0  0.28773  0.77876  0.70602  1.0000
  H   H293      1.0  0.11901  0.73839  0.49285  1.0000
  H   H294      1.0  0.28751  0.87820  0.71196  1.0000
  S   S97       1.0  0.30701  0.84061  0.67885  1.0000
  C   C295      1.0  0.11243  0.72213  0.49109  1.0000
  H   H295      1.0  0.21739  0.64010  0.98277  1.0000
  H   H296      1.0  0.29915  0.95476  0.67842  1.0000
  H   H297      1.0  0.17316  0.48826  0.86799  1.0000
  C   C296      1.0  0.30945  0.89941  0.68996  1.0000
  H   H298      1.0  0.29532  0.53027  0.85330  1.0000
  H   H299      1.0  0.30961  0.80587  0.85665  1.0000
  C   C297      1.0  0.30224  0.66219  0.86643  1.0000
  H   H300      1.0  0.30497  0.77521  0.71126  1.0000
  Fe  Fe49      1.0  0.35865  0.18458  0.15197  1.0000
  S   S98       1.0  0.36369  0.21867  0.16842  1.0000
  S   S99       1.0  0.34718  0.15461  0.17826  1.0000
  Fe  Fe50      1.0  0.36917  0.19969  0.08974  1.0000
  S   S100      1.0  0.37412  0.23481  0.10288  1.0000
  S   S101      1.0  0.37594  0.18667  0.04504  1.0000
  Fe  Fe51      1.0  0.39372  0.21881  0.13890  1.0000
  S   S102      1.0  0.42709  0.23137  0.15331  1.0000
  Fe  Fe52      1.0  0.34393  0.23135  0.13097  1.0000
  H   H301      1.0  0.63170  0.21060  0.20026  1.0000
  S   S103      1.0  0.38977  0.18386  0.12482  1.0000
  S   S104      1.0  0.33799  0.19697  0.11539  1.0000
  Fe  Fe53      1.0  0.56505  0.20879  0.13433  1.0000
  S   S105      1.0  0.58941  0.18192  0.11754  1.0000
  S   S106      1.0  0.52886  0.19781  0.13341  1.0000
  Fe  Fe54      1.0  0.60309  0.24045  0.14247  1.0000
  S   S107      1.0  0.62837  0.21563  0.12583  1.0000
  S   S108      1.0  0.61573  0.27299  0.15892  1.0000
  Fe  Fe55      1.0  0.60379  0.20950  0.09192  1.0000
  S   S109      1.0  0.61835  0.20895  0.04703  1.0000
  Fe  Fe56      1.0  0.61181  0.19047  0.15325  1.0000
  H   H302      1.0  0.63206  0.22097  0.99106  1.0000
  S   S110      1.0  0.57908  0.23598  0.10708  1.0000
  S   S111      1.0  0.58693  0.21564  0.17153  1.0000
  C   C298      1.0  0.60494  0.20715  0.01402  1.0000
  H   H303      1.0  0.62716  0.16045  0.06563  1.0000
  C   C299      1.0  0.58467  0.19723  0.01143  1.0000
  C   C300      1.0  0.45586  0.20241  0.20935  1.0000
  H   H304      1.0  0.57562  0.19250  0.03018  1.0000
  H   H305      1.0  0.39046  0.17514  0.98899  1.0000
  H   H306      1.0  0.58875  0.13738  0.01377  1.0000
  C   C301      1.0  0.62757  0.16065  0.23400  1.0000
  H   H307      1.0  0.62029  0.15428  0.27806  1.0000
  H   H308      1.0  0.61182  0.16939  0.23011  1.0000
  H   H309      1.0  0.62240  0.23894  0.20549  1.0000
  C   C302      1.0  0.45521  0.22293  0.14451  1.0000
  C   C303      1.0  0.46098  0.20264  0.13159  1.0000
  C   C304      1.0  0.48350  0.19547  0.12813  1.0000
  C   C305      1.0  0.50073  0.20860  0.13690  1.0000
  C   C306      1.0  0.49495  0.22914  0.14920  1.0000
  C   C307      1.0  0.47241  0.23613  0.15313  1.0000
  H   H310      1.0  0.44808  0.19225  0.12472  1.0000
  H   H311      1.0  0.48764  0.17960  0.11849  1.0000
  H   H312      1.0  0.50785  0.23949  0.15615  1.0000
  H   H313      1.0  0.46830  0.25184  0.16321  1.0000
  H   H314      1.0  0.47139  0.20088  0.19654  1.0000
  C   C308      1.0  0.36708  0.19689  0.01131  1.0000
  C   C309      1.0  0.34988  0.21314  0.00818  1.0000
  H   H315      1.0  0.63960  0.22443  0.23162  1.0000
  H   H316      1.0  0.34178  0.22015  0.02673  1.0000
  H   H317      1.0  0.59837  0.16216  0.05806  1.0000
  C   C310      1.0  0.32040  0.16280  0.25809  1.0000
  H   H318      1.0  0.44945  0.21999  0.20710  1.0000
  C   C311      1.0  0.32369  0.13012  0.21713  1.0000
  H   H319      1.0  0.31775  0.28244  0.07852  1.0000
  H   H320      1.0  0.45986  0.19882  0.23175  1.0000
  C   C312      1.0  0.31467  0.29469  0.14651  1.0000
  C   C313      1.0  0.64000  0.28537  0.14581  1.0000
  C   C314      1.0  0.31214  0.12619  0.24273  1.0000
  H   H321      1.0  0.63677  0.31283  0.17454  1.0000
  C   C315      1.0  0.44588  0.16924  0.18378  1.0000
  C   C316      1.0  0.41772  0.19083  0.20770  1.0000
  C   C317      1.0  0.43044  0.15416  0.17553  1.0000
  C   C318      1.0  0.40191  0.17591  0.20016  1.0000
  C   C319      1.0  0.40837  0.15745  0.18403  1.0000
  H   H322      1.0  0.41253  0.20540  0.21975  1.0000
  H   H323      1.0  0.43552  0.14014  0.16242  1.0000
  H   H324      1.0  0.38468  0.17872  0.20642  1.0000
  H   H325      1.0  0.39613  0.14599  0.17766  1.0000
  S   S112      1.0  0.63720  0.16677  0.17631  1.0000
  H   H326      1.0  0.61288  0.13518  0.06166  1.0000
  H   H327      1.0  0.33233  0.29093  0.14721  1.0000
  H   H328      1.0  0.64210  0.08458  0.30809  1.0000
  N   N26       1.0  0.43940  0.18730  0.19964  1.0000
  C   C320      1.0  0.33334  0.15055  0.21150  1.0000
  C   C321      1.0  0.63739  0.16176  0.01259  1.0000
  H   H329      1.0  0.46301  0.16662  0.17701  1.0000
  C   C322      1.0  0.63659  0.22671  0.20872  1.0000
  H   H330      1.0  0.32503  0.11721  0.20147  1.0000
  C   C323      1.0  0.61413  0.15245  0.05361  1.0000
  C   C324      1.0  0.60381  0.14407  0.00540  1.0000
  H   H331      1.0  0.33890  0.18268  0.22851  1.0000
  N   N27       1.0  0.61875  0.15257  0.02318  1.0000
  C   C325      1.0  0.63244  0.15198  0.26127  1.0000
  H   H332      1.0  0.31716  0.32961  0.15521  1.0000
  C   C326      1.0  0.33158  0.16690  0.23225  1.0000
  H   H333      1.0  0.64059  0.06434  0.35112  1.0000
  H   H334      1.0  0.31932  0.17555  0.27397  1.0000
  C   C327      1.0  0.61639  0.21327  0.98933  1.0000
  H   H335      1.0  0.63292  0.03744  0.33914  1.0000
  C   C328      1.0  0.64278  0.15739  0.21174  1.0000
  Fe  Fe57      1.0  0.35015  0.18889  0.81991  1.0000
  S   S113      1.0  0.37358  0.21158  0.79813  1.0000
  S   S114      1.0  0.33088  0.16124  0.79919  1.0000
  Fe  Fe58      1.0  0.35633  0.21191  0.87825  1.0000
  S   S115      1.0  0.37968  0.23602  0.85929  1.0000
  S   S116      1.0  0.34309  0.21992  0.92276  1.0000
  Fe  Fe59      1.0  0.35562  0.23874  0.82348  1.0000
  H   H336      1.0  0.32382  0.16849  0.69490  1.0000
  Fe  Fe60      1.0  0.39565  0.20679  0.83629  1.0000
  S   S117      1.0  0.43283  0.19567  0.83733  1.0000
  S   S118      1.0  0.33143  0.21640  0.84331  1.0000
  S   S119      1.0  0.37311  0.18219  0.85693  1.0000
  Fe  Fe61      1.0  0.60936  0.24268  0.85315  1.0000
  S   S120      1.0  0.62280  0.20827  0.86420  1.0000
  C   C329      1.0  0.31999  0.28713  0.82001  1.0000
  Fe  Fe62      1.0  0.56460  0.22424  0.83479  1.0000
  S   S121      1.0  0.57669  0.18884  0.84358  1.0000
  S   S122      1.0  0.52896  0.23587  0.82253  1.0000
  Fe  Fe63      1.0  0.58967  0.20269  0.88395  1.0000
  S   S123      1.0  0.58005  0.18771  0.92678  1.0000
  Fe  Fe64      1.0  0.60904  0.19805  0.82247  1.0000
  C   C330      1.0  0.34277  0.21991  0.98098  1.0000
  S   S124      1.0  0.57693  0.23761  0.87551  1.0000
  S   S125      1.0  0.59615  0.23288  0.81114  1.0000
  H   H337      1.0  0.61751  0.21312  0.94368  1.0000
  H   H338      1.0  0.36997  0.28677  0.86266  1.0000
  H   H339      1.0  0.32086  0.31338  0.78877  1.0000
  N   N28       1.0  0.41093  0.16491  0.76994  1.0000
  H   H340      1.0  0.43601  0.18173  0.74707  1.0000
  S   S126      1.0  0.63297  0.26882  0.86719  1.0000
  C   C331      1.0  0.60817  0.20884  0.96240  1.0000
  C   C332      1.0  0.58860  0.19771  0.95984  1.0000
  H   H341      1.0  0.53219  0.17710  0.91078  1.0000
  H   H342      1.0  0.53161  0.18899  0.94543  1.0000
  H   H343      1.0  0.60806  0.16144  0.75306  1.0000
  C   C333      1.0  0.45935  0.20729  0.83285  1.0000
  C   C334      1.0  0.47859  0.19388  0.83868  1.0000
  C   C335      1.0  0.49995  0.20223  0.83569  1.0000
  C   C336      1.0  0.50246  0.22412  0.82641  1.0000
  C   C337      1.0  0.48322  0.23745  0.82031  1.0000
  C   C338      1.0  0.46185  0.22920  0.82365  1.0000
  H   H344      1.0  0.47698  0.17688  0.84570  1.0000
  H   H345      1.0  0.51448  0.19168  0.84039  1.0000
  H   H346      1.0  0.48487  0.25439  0.81303  1.0000
  H   H347      1.0  0.44735  0.23978  0.81894  1.0000
  C   C339      1.0  0.63023  0.14491  0.72267  1.0000
  H   H348      1.0  0.35644  0.26413  0.90276  1.0000
  H   H349      1.0  0.50811  0.17493  0.93346  1.0000
  C   C340      1.0  0.32896  0.32218  0.88749  1.0000
  C   C341      1.0  0.60718  0.14489  0.97616  1.0000
  H   H350      1.0  0.37162  0.14446  0.72876  1.0000
  C   C342      1.0  0.38138  0.14709  0.74735  1.0000
  H   H351      1.0  0.61690  0.13908  0.71026  1.0000
  C   C343      1.0  0.40554  0.15506  0.79510  1.0000
  H   H352      1.0  0.41462  0.15833  0.81403  1.0000
  C   C344      1.0  0.35297  0.21083  0.95653  1.0000
  C   C345      1.0  0.37036  0.19481  0.95966  1.0000
  H   H353      1.0  0.40258  0.16981  0.72664  1.0000
  H   H354      1.0  0.37833  0.18757  0.94116  1.0000
  C   C346      1.0  0.38804  0.14082  0.79689  1.0000
  N   N29       1.0  0.51255  0.20701  0.91470  1.0000
  C   C347      1.0  0.52657  0.22375  0.90986  1.0000
  C   C348      1.0  0.49076  0.20962  0.90736  1.0000
  C   C349      1.0  0.51891  0.24375  0.89722  1.0000
  C   C350      1.0  0.48248  0.22952  0.89505  1.0000
  C   C351      1.0  0.49673  0.24660  0.88977  1.0000
  C   C352      1.0  0.52141  0.18590  0.92668  1.0000
  H   H355      1.0  0.54388  0.22153  0.91545  1.0000
  H   H356      1.0  0.47970  0.19619  0.91048  1.0000
  H   H357      1.0  0.53024  0.25670  0.89248  1.0000
  H   H358      1.0  0.46533  0.23133  0.88862  1.0000
  H   H359      1.0  0.49079  0.26173  0.87909  1.0000
  C   C353      1.0  0.62601  0.15440  0.96518  1.0000
  H   H360      1.0  0.33624  0.18062  0.74186  1.0000
  C   C354      1.0  0.62512  0.15762  0.74704  1.0000
  C   C355      1.0  0.39885  0.16142  0.74636  1.0000
  C   C356      1.0  0.34664  0.31427  0.87062  1.0000
  H   H361      1.0  0.44270  0.17443  0.78276  1.0000
  H   H362      1.0  0.42277  0.19698  0.77584  1.0000
  H   H363      1.0  0.35200  0.32394  0.85257  1.0000
  S   S127      1.0  0.34250  0.27158  0.80441  1.0000
  C   C357      1.0  0.42895  0.18026  0.76870  1.0000
  N   N30       1.0  0.33154  0.28847  0.91519  1.0000
  C   C358      1.0  0.37610  0.13664  0.77277  1.0000
  H   H364      1.0  0.36218  0.12598  0.77405  1.0000
  H   H365      1.0  0.63299  0.28783  0.80956  1.0000
  C   C359      1.0  0.31949  0.15914  0.71361  1.0000
  H   H366      1.0  0.59481  0.13916  0.96200  1.0000
  C   C360      1.0  0.64207  0.16502  0.76381  1.0000
  H   H367      1.0  0.38339  0.13350  0.81700  1.0000
  C   C361      1.0  0.57672  0.19229  0.98449  1.0000
  C   C362      1.0  0.35671  0.29336  0.87626  1.0000
  H   H368      1.0  0.61099  0.10382  0.61762  1.0000
  H   H369      1.0  0.61520  0.11814  0.65002  1.0000
  C   C363      1.0  0.32145  0.30891  0.90969  1.0000
  H   H370      1.0  0.32035  0.33799  0.88254  1.0000
  C   C364      1.0  0.34888  0.28059  0.89877  1.0000
  C   C365      1.0  0.62352  0.11171  0.63050  1.0000
  S   S128      1.0  0.63686  0.18068  0.79540  1.0000
  C   C366      1.0  0.64131  0.16278  0.98347  1.0000
  H   H371      1.0  0.64337  0.24140  0.81569  1.0000
  C   C367      1.0  0.32136  0.15414  0.76483  1.0000
  C   C368      1.0  0.32657  0.16610  0.74031  1.0000
  H   H372      1.0  0.56160  0.18365  0.98285  1.0000
  H   H373      1.0  0.63156  0.15260  0.64813  1.0000
  H   H374      1.0  0.63978  0.10907  0.57829  1.0000
  N   N31       1.0  0.63394  0.12939  0.61443  1.0000
  C   C369      1.0  0.31278  0.30756  0.80776  1.0000
  C   C370      1.0  0.64150  0.12524  0.58761  1.0000
  H   H375      1.0  0.63637  0.09892  0.63713  1.0000
  C   C371      1.0  0.63692  0.14950  0.62654  1.0000
  H   H376      1.0  0.31477  0.26411  0.85422  1.0000
  H   H377      1.0  0.33691  0.26580  0.94945  1.0000
  C   C372      1.0  0.32301  0.27421  0.93764  1.0000
  H   H378      1.0  0.32911  0.23205  0.97896  1.0000
  H   H379      1.0  0.31321  0.26111  0.92827  1.0000
  H   H380      1.0  0.62824  0.15609  0.94251  1.0000
  H   H381      1.0  0.31245  0.28375  0.95302  1.0000
  C   C373      1.0  0.37722  0.18779  0.98685  1.0000
  Fe  Fe65      1.0  0.35546  0.75647  0.09315  1.0000
  S   S129      1.0  0.38062  0.73010  0.10755  1.0000
  S   S130      1.0  0.34036  0.75476  0.04919  1.0000
  Fe  Fe66      1.0  0.34693  0.77347  0.15517  1.0000
  S   S131      1.0  0.37202  0.74808  0.17249  1.0000
  C   C374      1.0  0.31118  0.82852  0.26724  1.0000
  Fe  Fe67      1.0  0.39383  0.75675  0.13497  1.0000
  S   S132      1.0  0.43013  0.76736  0.13421  1.0000
  Fe  Fe68      1.0  0.35662  0.72395  0.14329  1.0000
  S   S133      1.0  0.34551  0.68972  0.15724  1.0000
  S   S134      1.0  0.36912  0.78369  0.11893  1.0000
  S   S135      1.0  0.33107  0.74877  0.12764  1.0000
  Fe  Fe69      1.0  0.61513  0.73358  0.13047  1.0000
  C   C375      1.0  0.31449  0.65480  0.07953  1.0000
  N   N32       1.0  0.31775  0.73895  0.21882  1.0000
  Fe  Fe70      1.0  0.56570  0.74675  0.14213  1.0000
  S   S136      1.0  0.57080  0.78267  0.13241  1.0000
  S   S137      1.0  0.53157  0.73244  0.15139  1.0000
  Fe  Fe71      1.0  0.59092  0.77009  0.09495  1.0000
  S   S138      1.0  0.58458  0.78758  0.05232  1.0000
  Fe  Fe72      1.0  0.60219  0.77851  0.15813  1.0000
  S   S139      1.0  0.61193  0.80778  0.18597  1.0000
  S   S140      1.0  0.58463  0.73433  0.10347  1.0000
  S   S141      1.0  0.59600  0.74296  0.17030  1.0000
  C   C376      1.0  0.59180  0.77731  0.01811  1.0000
  C   C377      1.0  0.60394  0.75717  0.01426  1.0000
  C   C378      1.0  0.63279  0.86086  0.37203  1.0000
  H   H382      1.0  0.60921  0.74731  0.03242  1.0000
  H   H383      1.0  0.34418  0.64244  0.10034  1.0000
  H   H384      1.0  0.35415  0.75440  0.28123  1.0000
  C   C379      1.0  0.63233  0.83374  0.22482  1.0000
  H   H385      1.0  0.33079  0.84410  0.17769  1.0000
  C   C380      1.0  0.64373  0.79482  0.22662  1.0000
  C   C381      1.0  0.63063  0.81209  0.21432  1.0000
  H   H386      1.0  0.54777  0.76079  0.06839  1.0000
  H   H387      1.0  0.63150  0.67801  0.16299  1.0000
  H   H388      1.0  0.34367  0.70988  0.07027  1.0000
  N   N33       1.0  0.61582  0.82789  0.09524  1.0000
  C   C382      1.0  0.31753  0.80644  0.21467  1.0000
  C   C383      1.0  0.45809  0.75762  0.14110  1.0000
  C   C384      1.0  0.46371  0.73591  0.15030  1.0000
  C   C385      1.0  0.48615  0.72887  0.15435  1.0000
  C   C386      1.0  0.50344  0.74320  0.14880  1.0000
  C   C387      1.0  0.49781  0.76501  0.13998  1.0000
  C   C388      1.0  0.47534  0.77215  0.13632  1.0000
  H   H389      1.0  0.45077  0.72452  0.15435  1.0000
  H   H390      1.0  0.49017  0.71203  0.16147  1.0000
  H   H391      1.0  0.51076  0.77635  0.13577  1.0000
  H   H392      1.0  0.47130  0.78903  0.12942  1.0000
  C   C389      1.0  0.33252  0.82184  0.25729  1.0000
  C   C390      1.0  0.35187  0.76038  0.01524  1.0000
  C   C391      1.0  0.37102  0.77218  0.01156  1.0000
  C   C392      1.0  0.35076  0.73259  0.24599  1.0000
  H   H393      1.0  0.37957  0.77780  0.02981  1.0000
  C   C393      1.0  0.34379  0.74982  0.26396  1.0000
  C   C394      1.0  0.33546  0.69436  0.07258  1.0000
  C   C395      1.0  0.33571  0.81080  0.23128  1.0000
  H   H394      1.0  0.61508  0.85534  0.30487  1.0000
  H   H395      1.0  0.35224  0.80596  0.22393  1.0000
  C   C396      1.0  0.62335  0.83042  0.12201  1.0000
  N   N34       1.0  0.50454  0.72902  0.08329  1.0000
  C   C397      1.0  0.48742  0.74402  0.07738  1.0000
  C   C398      1.0  0.52597  0.73477  0.07976  1.0000
  C   C399      1.0  0.49159  0.76561  0.06827  1.0000
  C   C400      1.0  0.53075  0.75617  0.07062  1.0000
  C   C401      1.0  0.51343  0.77169  0.06497  1.0000
  C   C402      1.0  0.50011  0.70643  0.09285  1.0000
  H   H396      1.0  0.47039  0.73968  0.08072  1.0000
  H   H397      1.0  0.53950  0.72295  0.08488  1.0000
  H   H398      1.0  0.47795  0.77767  0.06463  1.0000
  C   C403      1.0  0.62901  0.81741  0.07529  1.0000
  H   H399      1.0  0.51699  0.78846  0.05840  1.0000
  H   H400      1.0  0.50262  0.69465  0.07517  1.0000
  H   H401      1.0  0.51139  0.70120  0.11036  1.0000
  H   H402      1.0  0.48297  0.70547  0.10133  1.0000
  H   H403      1.0  0.63294  0.87278  0.38901  1.0000
  H   H404      1.0  0.34675  0.82544  0.26969  1.0000
  C   C404      1.0  0.31919  0.67932  0.14968  1.0000
  N   N35       1.0  0.31428  0.69279  0.06340  1.0000
  H   H405      1.0  0.61263  0.83794  0.13815  1.0000
  C   C405      1.0  0.62248  0.86653  0.34661  1.0000
  H   H406      1.0  0.58883  0.85195  0.09777  1.0000
  C   C406      1.0  0.31465  0.65741  0.15763  1.0000
  H   H407      1.0  0.34069  0.86659  0.21653  1.0000
  H   H408      1.0  0.36655  0.72361  0.24919  1.0000
  H   H409      1.0  0.62233  0.84730  0.21564  1.0000
  H   H410      1.0  0.58146  0.82323  0.09724  1.0000
  H   H411      1.0  0.32703  0.64726  0.16881  1.0000
  S   S142      1.0  0.62239  0.76906  0.11955  1.0000
  H   H412      1.0  0.59046  0.83668  0.06544  1.0000
  C   C407      1.0  0.33601  0.65635  0.08923  1.0000
  H   H413      1.0  0.31339  0.72313  0.17934  1.0000
  H   H414      1.0  0.62280  0.81466  0.05432  1.0000
  H   H415      1.0  0.61452  0.88293  0.34368  1.0000
  H   H416      1.0  0.32905  0.88468  0.26125  1.0000
  S   S143      1.0  0.32027  0.79368  0.18089  1.0000
  H   H417      1.0  0.63384  0.81836  0.31187  1.0000
  C   C408      1.0  0.59304  0.83538  0.08858  1.0000
  C   C409      1.0  0.62278  0.85111  0.32489  1.0000
  C   C410      1.0  0.58524  0.78989  0.99411  1.0000
  H   H418      1.0  0.36308  0.67783  0.09397  1.0000
  H   H419      1.0  0.57590  0.80554  0.99677  1.0000
  C   C411      1.0  0.63350  0.83021  0.32894  1.0000
  C   C412      1.0  0.32347  0.76123  0.25949  1.0000
  C   C413      1.0  0.33735  0.72721  0.22353  1.0000
  H   H420      1.0  0.64269  0.77807  0.21901  1.0000
  H   H421      1.0  0.31203  0.71763  0.03138  1.0000
  C   C414      1.0  0.34089  0.75340  0.99116  1.0000
  C   C415      1.0  0.32325  0.87048  0.22054  1.0000
  H   H422      1.0  0.34294  0.71384  0.20960  1.0000
  C   C416      1.0  0.34662  0.67621  0.08568  1.0000
  H   H423      1.0  0.32598  0.74442  0.99365  1.0000
  H   H424      1.0  0.31796  0.77481  0.27315  1.0000
  C   C417      1.0  0.31682  0.88092  0.24573  1.0000
  H   H425      1.0  0.31642  0.86644  0.15834  1.0000
  C   C418      1.0  0.31473  0.85376  0.17530  1.0000
  N   N36       1.0  0.64411  0.82502  0.35364  1.0000
  C   C419      1.0  0.64358  0.83990  0.37522  1.0000
  H   H426      1.0  0.64321  0.79026  0.36049  1.0000
  Fe  Fe73      1.0  0.35083  0.77028  0.82300  1.0000
  S   S144      1.0  0.36462  0.73633  0.80946  1.0000
  S   S145      1.0  0.32509  0.79352  0.79969  1.0000
  Fe  Fe74      1.0  0.36972  0.76328  0.88349  1.0000
  S   S146      1.0  0.38409  0.72940  0.87324  1.0000
  S   S147      1.0  0.37773  0.77805  0.92609  1.0000
  Fe  Fe75      1.0  0.39585  0.74473  0.83267  1.0000
  S   S148      1.0  0.43104  0.73314  0.81789  1.0000
  Fe  Fe76      1.0  0.35196  0.72401  0.85146  1.0000
  S   S149      1.0  0.33386  0.69329  0.86567  1.0000
  S   S150      1.0  0.38273  0.77931  0.84362  1.0000
  S   S151      1.0  0.33694  0.75725  0.86427  1.0000
  Fe  Fe77      1.0  0.60154  0.75816  0.88198  1.0000
  S   S152      1.0  0.58004  0.73280  0.86350  1.0000
  S   S153      1.0  0.60984  0.75150  0.92873  1.0000
  Fe  Fe78      1.0  0.61110  0.77857  0.82181  1.0000
  S   S154      1.0  0.58957  0.75443  0.80080  1.0000
  C   C420      1.0  0.36905  0.66497  0.80249  1.0000
  Fe  Fe79      1.0  0.56509  0.76076  0.83692  1.0000
  S   S155      1.0  0.52755  0.77039  0.83758  1.0000
  Fe  Fe80      1.0  0.60629  0.72869  0.82973  1.0000
  S   S156      1.0  0.62031  0.69515  0.81381  1.0000
  S   S157      1.0  0.58589  0.78662  0.85668  1.0000
  S   S158      1.0  0.62857  0.75238  0.84926  1.0000
  C   C421      1.0  0.37175  0.66251  0.83163  1.0000
  C   C422      1.0  0.52088  0.72787  0.89454  1.0000
  H   H427      1.0  0.32764  0.92447  0.66836  1.0000
  C   C423      1.0  0.39097  0.66941  0.87545  1.0000
  C   C424      1.0  0.33987  0.82239  0.86257  1.0000
  H   H428      1.0  0.62047  0.81246  0.69643  1.0000
  H   H429      1.0  0.50997  0.72093  0.87937  1.0000
  H   H430      1.0  0.36641  0.82375  0.95147  1.0000
  C   C425      1.0  0.40139  0.68668  0.80043  1.0000
  C   C426      1.0  0.59072  0.78246  0.96662  1.0000
  C   C427      1.0  0.38393  0.67725  0.78686  1.0000
  C   C428      1.0  0.60295  0.76233  0.96278  1.0000
  H   H431      1.0  0.41300  0.69645  0.78858  1.0000
  N   N37       1.0  0.38865  0.67221  0.84486  1.0000
  H   H432      1.0  0.58561  0.79236  0.94843  1.0000
  C   C429      1.0  0.45774  0.74356  0.82434  1.0000
  C   C430      1.0  0.46038  0.76439  0.83622  1.0000
  C   C431      1.0  0.48178  0.77226  0.83980  1.0000
  C   C432      1.0  0.50098  0.75938  0.83203  1.0000
  C   C433      1.0  0.49837  0.73834  0.82069  1.0000
  C   C434      1.0  0.47694  0.73061  0.81668  1.0000
  H   H433      1.0  0.44592  0.77466  0.84214  1.0000
  H   H434      1.0  0.48347  0.78856  0.84854  1.0000
  H   H435      1.0  0.51285  0.72820  0.81448  1.0000
  H   H436      1.0  0.47524  0.71454  0.80731  1.0000
  N   N38       1.0  0.35205  0.82473  0.91041  1.0000
  C   C435      1.0  0.53843  0.71490  0.90616  1.0000
  C   C436      1.0  0.32044  0.80620  0.76571  1.0000
  C   C437      1.0  0.33650  0.80567  0.74418  1.0000
  C   C438      1.0  0.35516  0.82896  0.88227  1.0000
  H   H437      1.0  0.35246  0.79727  0.74784  1.0000
  C   C439      1.0  0.36794  0.77007  0.96010  1.0000
  C   C440      1.0  0.34897  0.75801  0.96376  1.0000
  H   H438      1.0  0.40264  0.68113  0.88417  1.0000
  H   H439      1.0  0.34031  0.75253  0.94551  1.0000
  H   H440      1.0  0.61130  0.79909  0.74487  1.0000
  N   N39       1.0  0.55256  0.72395  0.92459  1.0000
  S   S159      1.0  0.63471  0.80229  0.79902  1.0000
  C   C441      1.0  0.55007  0.74597  0.93124  1.0000
  H   H441      1.0  0.60790  0.89742  0.66188  1.0000
  C   C442      1.0  0.53279  0.75942  0.91994  1.0000
  C   C443      1.0  0.36816  0.83219  0.93061  1.0000
  C   C444      1.0  0.57137  0.71034  0.93568  1.0000
  H   H442      1.0  0.33181  0.80994  0.94190  1.0000
  H   H443      1.0  0.56166  0.75334  0.94500  1.0000
  H   H444      1.0  0.62068  0.86960  0.65969  1.0000
  H   H445      1.0  0.53121  0.77700  0.92468  1.0000
  C   C445      1.0  0.33209  0.81640  0.71798  1.0000
  H   H446      1.0  0.57760  0.71730  0.95550  1.0000
  H   H447      1.0  0.56672  0.69308  0.94029  1.0000
  H   H448      1.0  0.34483  0.81606  0.70173  1.0000
  H   H449      1.0  0.41707  0.69157  0.83997  1.0000
  H   H450      1.0  0.54100  0.69773  0.89982  1.0000
  C   C446      1.0  0.51799  0.75021  0.90175  1.0000
  C   C447      1.0  0.63904  0.73307  0.75834  1.0000
  C   C448      1.0  0.32131  0.81149  0.87184  1.0000
  C   C449      1.0  0.40357  0.68392  0.82961  1.0000
  H   H451      1.0  0.39700  0.65214  0.88058  1.0000
  H   H452      1.0  0.38186  0.67962  0.76432  1.0000
  H   H453      1.0  0.62689  0.72046  0.76018  1.0000
  C   C450      1.0  0.62623  0.80785  0.74109  1.0000
  C   C451      1.0  0.62384  0.88763  0.65963  1.0000
  C   C452      1.0  0.63154  0.81543  0.71354  1.0000
  H   H454      1.0  0.35525  0.65772  0.79228  1.0000
  H   H455      1.0  0.35980  0.65339  0.84377  1.0000
  H   H456      1.0  0.37474  0.67294  0.88623  1.0000
  H   H457      1.0  0.58526  0.70997  0.92007  1.0000
  H   H458      1.0  0.36605  0.85043  0.93340  1.0000
  H   H459      1.0  0.50478  0.76059  0.89239  1.0000
  H   H460      1.0  0.38528  0.82769  0.92308  1.0000
  C   C453      1.0  0.33392  0.81395  0.91969  1.0000
  H   H461      1.0  0.34258  0.82528  0.84016  1.0000
  H   H462      1.0  0.63141  0.89136  0.63873  1.0000
  H   H463      1.0  0.62546  0.86880  0.71075  1.0000
  H   H464      1.0  0.31528  0.79078  0.66645  1.0000
  H   H465      1.0  0.36975  0.83710  0.87487  1.0000
  C   C454      1.0  0.31469  0.67625  0.84930  1.0000
  C   C455      1.0  0.64130  0.74528  0.73337  1.0000
  H   H466      1.0  0.32156  0.88596  0.68530  1.0000
  H   H467      1.0  0.32219  0.68577  0.80652  1.0000
  C   C456      1.0  0.31833  0.80710  0.90056  1.0000
  H   H468      1.0  0.63084  0.74231  0.71555  1.0000
  C   C457      1.0  0.64014  0.81176  0.76367  1.0000
  C   C458      1.0  0.31285  0.67498  0.81999  1.0000
  H   H469      1.0  0.39347  0.78662  0.98158  1.0000
  N   N40       1.0  0.63863  0.89279  0.68261  1.0000
  C   C459      1.0  0.31283  0.92098  0.68042  1.0000
  H   H470      1.0  0.61901  0.73423  0.98417  1.0000
  C   C460      1.0  0.63708  0.88179  0.70791  1.0000
  C   C461      1.0  0.31149  0.82754  0.71259  1.0000
  C   C462      1.0  0.37884  0.77719  0.98414  1.0000
  H   H471      1.0  0.64336  0.65365  0.79952  1.0000
  C   C463      1.0  0.60951  0.74980  0.98680  1.0000
  Fe  Fe81      1.0  0.77005  0.35503  0.15910  1.0000
  S   S160      1.0  0.73379  0.36412  0.16634  1.0000
  S   S161      1.0  0.79339  0.35094  0.19737  1.0000
  Fe  Fe82      1.0  0.76491  0.36352  0.09411  1.0000
  S   S162      1.0  0.72889  0.37355  0.09848  1.0000
  S   S163      1.0  0.78246  0.36122  0.05100  1.0000
  Fe  Fe83      1.0  0.73903  0.39309  0.13625  1.0000
  S   S164      1.0  0.72550  0.42854  0.14708  1.0000
  Fe  Fe84      1.0  0.72730  0.34383  0.12786  1.0000
  S   S165      1.0  0.70588  0.31475  0.11723  1.0000
  S   S166      1.0  0.77527  0.38467  0.13025  1.0000
  S   S167      1.0  0.76344  0.33320  0.12227  1.0000
  Fe  Fe85      1.0  0.84925  0.26194  0.32049  1.0000
  S   S168      1.0  0.86630  0.22765  0.31774  1.0000
  S   S169      1.0  0.82930  0.27176  0.28047  1.0000
  Fe  Fe86      1.0  0.86164  0.26458  0.38364  1.0000
  S   S170      1.0  0.87894  0.23085  0.38386  1.0000
  S   S171      1.0  0.85728  0.28434  0.42444  1.0000
  Fe  Fe87      1.0  0.89415  0.24155  0.34249  1.0000
  S   S172      1.0  0.93037  0.23100  0.33060  1.0000
  Fe  Fe88      1.0  0.84973  0.22018  0.35923  1.0000
  S   S173      1.0  0.83148  0.19039  0.37654  1.0000
  S   S174      1.0  0.87807  0.27622  0.34304  1.0000
  S   S175      1.0  0.83159  0.25357  0.36116  1.0000
  Fe  Fe89      1.0  0.71142  0.06877  0.34763  1.0000
  S   S176      1.0  0.68270  0.09077  0.36416  1.0000
  S   S177      1.0  0.70680  0.03134  0.35659  1.0000
  Fe  Fe90      1.0  0.73759  0.11005  0.33218  1.0000
  S   S178      1.0  0.71035  0.13338  0.34764  1.0000
  S   S179      1.0  0.76667  0.12773  0.31257  1.0000
  Fe  Fe91      1.0  0.70846  0.11029  0.38521  1.0000
  S   S180      1.0  0.71126  0.12684  0.42824  1.0000
  Fe  Fe92      1.0  0.68732  0.11208  0.32492  1.0000
  H   H472      1.0  0.67444  0.02026  0.31423  1.0000
  S   S181      1.0  0.73695  0.08774  0.37059  1.0000
  S   S182      1.0  0.71458  0.08917  0.30731  1.0000
  C   C464      1.0  0.70382  0.11624  0.46209  1.0000
  H   H473      1.0  0.90948  0.23732  0.27545  1.0000
  S   S183      1.0  0.65730  0.12859  0.30160  1.0000
  H   H474      1.0  0.92687  0.27048  0.29295  1.0000
  N   N41       1.0  0.65645  0.23446  0.19449  1.0000
  H   H475      1.0  0.68227  0.09182  0.44711  1.0000
  C   C465      1.0  0.66811  0.13741  0.24484  1.0000
  C   C466      1.0  0.67795  0.05892  0.26200  1.0000
  H   H476      1.0  0.67504  0.14307  0.20055  1.0000
  H   H477      1.0  0.68378  0.12850  0.24867  1.0000
  C   C467      1.0  0.86201  0.27328  0.45899  1.0000
  C   C468      1.0  0.87100  0.25168  0.46340  1.0000
  C   C469      1.0  0.70428  0.98568  0.36131  1.0000
  H   H478      1.0  0.87619  0.24166  0.44554  1.0000
  C   C470      1.0  0.91249  0.27241  0.27953  1.0000
  C   C471      1.0  0.81381  0.17299  0.35809  1.0000
  C   C472      1.0  0.81019  0.17534  0.32911  1.0000
  C   C473      1.0  0.79576  0.16135  0.31553  1.0000
  C   C474      1.0  0.78435  0.14524  0.33079  1.0000
  C   C475      1.0  0.78760  0.14323  0.35988  1.0000
  C   C476      1.0  0.80252  0.15676  0.37332  1.0000
  H   H479      1.0  0.81874  0.18770  0.31706  1.0000
  H   H480      1.0  0.79344  0.16299  0.29300  1.0000
  H   H481      1.0  0.77907  0.13083  0.37189  1.0000
  H   H482      1.0  0.80522  0.15470  0.39571  1.0000
  C   C477      1.0  0.77023  0.36196  0.01698  1.0000
  C   C478      1.0  0.74745  0.36581  0.01329  1.0000
  C   C479      1.0  0.66332  0.07526  0.27319  1.0000
  H   H483      1.0  0.73682  0.36918  0.03140  1.0000
  H   H484      1.0  0.78829  0.20948  0.39733  1.0000
  C   C480      1.0  0.68009  0.30443  0.12841  1.0000
  C   C481      1.0  0.66678  0.31449  0.14948  1.0000
  C   C482      1.0  0.68833  0.22768  0.16448  1.0000
  H   H485      1.0  0.73973  0.30341  0.07191  1.0000
  H   H486      1.0  0.73367  0.40406  0.20235  1.0000
  C   C483      1.0  0.67306  0.28500  0.11588  1.0000
  H   H487      1.0  0.67186  0.32949  0.15925  1.0000
  C   C484      1.0  0.66309  0.14575  0.21748  1.0000
  H   H488      1.0  0.68313  0.27705  0.09952  1.0000
  C   C485      1.0  0.80289  0.32860  0.22038  1.0000
  C   C486      1.0  0.79750  0.30653  0.21654  1.0000
  C   C487      1.0  0.80561  0.28954  0.23519  1.0000
  C   C488      1.0  0.81910  0.29424  0.25816  1.0000
  C   C489      1.0  0.82454  0.31630  0.26200  1.0000
  C   C490      1.0  0.81654  0.33327  0.24324  1.0000
  H   H489      1.0  0.78711  0.30252  0.19914  1.0000
  H   H490      1.0  0.80128  0.27260  0.23182  1.0000
  H   H491      1.0  0.83486  0.32032  0.27946  1.0000
  H   H492      1.0  0.82089  0.35021  0.24656  1.0000
  C   C491      1.0  0.90255  0.25367  0.26950  1.0000
  C   C492      1.0  0.95710  0.24234  0.33298  1.0000
  C   C493      1.0  0.95993  0.26439  0.34054  1.0000
  C   C494      1.0  0.68133  0.26361  0.18551  1.0000
  H   H493      1.0  0.94558  0.27517  0.34548  1.0000
  C   C495      1.0  0.66225  0.25582  0.19840  1.0000
  C   C496      1.0  0.71147  0.00339  0.34439  1.0000
  C   C497      1.0  0.72127  0.99837  0.31816  1.0000
  C   C498      1.0  0.88487  0.29570  0.25559  1.0000
  H   H494      1.0  0.72698  0.01166  0.30486  1.0000
  C   C499      1.0  0.75838  0.45804  0.13299  1.0000
  C   C500      1.0  0.73664  0.45532  0.14237  1.0000
  H   H495      1.0  0.81484  0.42861  0.18102  1.0000
  H   H496      1.0  0.76878  0.44357  0.12740  1.0000
  C   C501      1.0  0.85558  0.28609  0.48264  1.0000
  C   C502      1.0  0.81263  0.25125  0.47593  1.0000
  C   C503      1.0  0.87342  0.23630  0.24303  1.0000
  C   C504      1.0  0.90345  0.29354  0.27271  1.0000
  H   H497      1.0  0.87742  0.31199  0.25043  1.0000
  H   H498      1.0  0.69661  0.98924  0.38160  1.0000
  H   H499      1.0  0.69816  0.21656  0.15094  1.0000
  C   C505      1.0  0.66936  0.22031  0.17812  1.0000
  N   N42       1.0  0.82916  0.21455  0.48350  1.0000
  H   H500      1.0  0.69916  0.31351  0.05855  1.0000
  H   H501      1.0  0.82790  0.22718  0.41388  1.0000
  N   N43       1.0  0.65755  0.05219  0.31406  1.0000
  C   C506      1.0  0.72351  0.47445  0.14968  1.0000
  C   C507      1.0  0.65270  0.14025  0.26697  1.0000
  C   C508      1.0  0.65320  0.27552  0.12449  1.0000
  H   H502      1.0  0.68556  0.28074  0.18803  1.0000
  H   H503      1.0  0.74000  0.33281  0.06456  1.0000
  H   H504      1.0  0.83919  0.19662  0.44639  1.0000
  H   H505      1.0  0.75717  0.38636  0.21263  1.0000
  C   C509      1.0  0.79824  0.43272  0.18887  1.0000
  N   N44       1.0  0.72769  0.31385  0.03166  1.0000
  H   H506      1.0  0.76044  0.31426  0.04862  1.0000
  H   H507      1.0  0.81147  0.26269  0.43265  1.0000
  C   C510      1.0  0.76883  0.45982  0.20020  1.0000
  H   H508      1.0  0.70669  0.47265  0.15702  1.0000
  C   C511      1.0  0.67128  0.03579  0.30279  1.0000
  H   H509      1.0  0.88077  0.22066  0.25245  1.0000
  C   C512      1.0  0.68903  0.09929  0.46550  1.0000
  H   H510      1.0  0.91072  0.30818  0.28090  1.0000
  C   C513      1.0  0.68193  0.03898  0.27682  1.0000
  N   N45       1.0  0.88416  0.25594  0.25302  1.0000
  H   H511      1.0  0.66011  0.09087  0.26193  1.0000
  C   C514      1.0  0.69427  0.24950  0.16818  1.0000
  H   H512      1.0  0.70864  0.25568  0.15728  1.0000
  H   H513      1.0  0.84869  0.30286  0.47951  1.0000
  H   H514      1.0  0.86087  0.27838  0.23271  1.0000
  H   H515      1.0  0.72370  0.13899  0.48398  1.0000
  C   C515      1.0  0.81561  0.24887  0.44689  1.0000
  H   H516      1.0  0.65170  0.26719  0.21079  1.0000
  H   H517      1.0  0.74421  0.40499  0.23783  1.0000
  C   C516      1.0  0.74275  0.31609  0.05526  1.0000
  N   N46       1.0  0.74533  0.18610  0.36644  1.0000
  C   C517      1.0  0.73739  0.17442  0.38900  1.0000
  C   C518      1.0  0.76341  0.19856  0.36930  1.0000
  C   C519      1.0  0.74748  0.17511  0.41528  1.0000
  C   C520      1.0  0.77367  0.19998  0.39543  1.0000
  C   C521      1.0  0.76573  0.18802  0.41848  1.0000
  C   C522      1.0  0.73519  0.18426  0.33873  1.0000
  H   H518      1.0  0.72327  0.16427  0.38689  1.0000
  C   C523      1.0  0.87556  0.27660  0.24561  1.0000
  H   H519      1.0  0.69335  0.02616  0.26848  1.0000
  H   H520      1.0  0.97427  0.21169  0.32055  1.0000
  H   H521      1.0  0.77395  0.18839  0.43861  1.0000
  H   H522      1.0  0.73850  0.19874  0.32488  1.0000
  H   H523      1.0  0.74200  0.16898  0.32815  1.0000
  H   H524      1.0  0.71694  0.18335  0.34077  1.0000
  H   H525      1.0  0.85557  0.23737  0.24915  1.0000
  N   N47       1.0  0.76331  0.42085  0.20644  1.0000
  C   C524      1.0  0.78442  0.41581  0.19701  1.0000
  C   C525      1.0  0.75538  0.44249  0.20787  1.0000
  C   C526      1.0  0.73562  0.31363  0.00451  1.0000
  C   C527      1.0  0.79038  0.45486  0.19060  1.0000
  C   C528      1.0  0.83158  0.21184  0.45498  1.0000
  C   C529      1.0  0.74891  0.40316  0.21526  1.0000
  H   H526      1.0  0.79064  0.39864  0.19549  1.0000
  H   H527      1.0  0.73836  0.44639  0.21428  1.0000
  C   C530      1.0  0.69055  0.31189  0.01487  1.0000
  H   H528      1.0  0.68627  0.06180  0.24198  1.0000
  H   H529      1.0  0.74127  0.16536  0.43282  1.0000
  H   H530      1.0  0.64878  0.16935  0.02657  1.0000
  C   C531      1.0  0.97614  0.22874  0.32660  1.0000
  H   H531      1.0  0.80603  0.26690  0.48439  1.0000
  H   H532      1.0  0.76229  0.47694  0.20066  1.0000
  C   C532      1.0  0.70548  0.31304  0.03702  1.0000
  H   H533      1.0  0.87490  0.23530  0.21973  1.0000
  H   H534      1.0  0.77041  0.20699  0.35118  1.0000
  H   H535      1.0  0.67294  0.31132  0.01928  1.0000
  H   H536      1.0  0.80074  0.46817  0.18390  1.0000
  C   C533      1.0  0.65320  0.07160  0.29941  1.0000
  C   C534      1.0  0.78373  0.35788  0.99298  1.0000
  C   C535      1.0  0.82501  0.22901  0.43633  1.0000
  H   H537      1.0  0.66487  0.20332  0.17513  1.0000
  H   H538      1.0  0.80139  0.35494  0.99554  1.0000
  H   H539      1.0  0.75315  0.31501  0.00016  1.0000
  C   C536      1.0  0.64685  0.30500  0.15809  1.0000
  H   H540      1.0  0.64818  0.26051  0.11472  1.0000
  H   H541      1.0  0.65900  0.04061  0.35656  1.0000
  C   C537      1.0  0.64688  0.04846  0.34152  1.0000
  C   C538      1.0  0.71229  0.12585  0.48633  1.0000
  C   C539      1.0  0.69848  0.31182  0.98710  1.0000
  Fe  Fe93      1.0  0.72241  0.35470  0.82769  1.0000
  S   S184      1.0  0.74501  0.33029  0.85068  1.0000
  S   S185      1.0  0.69181  0.34140  0.80752  1.0000
  Fe  Fe94      1.0  0.75309  0.39375  0.83615  1.0000
  S   S186      1.0  0.77767  0.37072  0.85904  1.0000
  S   S187      1.0  0.76582  0.42924  0.83460  1.0000
  Fe  Fe95      1.0  0.77211  0.34563  0.82483  1.0000
  S   S188      1.0  0.80075  0.32488  0.80337  1.0000
  Fe  Fe96      1.0  0.74829  0.35771  0.88230  1.0000
  S   S189      1.0  0.73871  0.35610  0.92936  1.0000
  S   S190      1.0  0.74943  0.36933  0.80072  1.0000
  S   S191      1.0  0.72391  0.38139  0.86037  1.0000
  Fe  Fe97      1.0  0.89700  0.25245  0.64307  1.0000
  S   S192      1.0  0.87465  0.27822  0.62087  1.0000
  S   S193      1.0  0.93278  0.26429  0.64408  1.0000
  Fe  Fe98      1.0  0.85815  0.22055  0.64799  1.0000
  S   S194      1.0  0.83477  0.24429  0.62542  1.0000
  S   S195      1.0  0.84553  0.18743  0.66369  1.0000
  Fe  Fe99      1.0  0.86315  0.24990  0.59521  1.0000
  S   S196      1.0  0.86524  0.24166  0.54802  1.0000
  Fe  Fe100     1.0  0.84844  0.27019  0.65370  1.0000
  S   S197      1.0  0.82270  0.29421  0.67575  1.0000
  S   S198      1.0  0.88598  0.22449  0.61671  1.0000
  S   S199      1.0  0.87125  0.24614  0.67726  1.0000
  Fe  Fe101     1.0  0.71968  0.07094  0.63953  1.0000
  S   S200      1.0  0.68414  0.07989  0.63011  1.0000
  S   S201      1.0  0.73373  0.03471  0.64476  1.0000
  Fe  Fe102     1.0  0.73290  0.11960  0.62936  1.0000
  S   S202      1.0  0.69770  0.13063  0.61869  1.0000
  S   S203      1.0  0.75583  0.14818  0.62044  1.0000
  Fe  Fe103     1.0  0.68779  0.11050  0.65668  1.0000
  H   H542      1.0  0.87932  0.22587  0.49391  1.0000
  Fe  Fe104     1.0  0.69720  0.09949  0.59331  1.0000
  S   S204      1.0  0.68126  0.09349  0.55081  1.0000
  S   S205      1.0  0.72302  0.10047  0.66863  1.0000
  S   S206      1.0  0.73263  0.08949  0.60155  1.0000
  N   N48       1.0  0.74887  0.42740  0.91065  1.0000
  C   C540      1.0  0.66927  0.14713  0.73097  1.0000
  H   H543      1.0  0.93670  0.19865  0.57035  1.0000
  H   H544      1.0  0.68633  0.14312  0.72514  1.0000
  H   H545      1.0  0.70239  0.05277  0.52887  1.0000
  C   C541      1.0  0.82127  0.17583  0.65047  1.0000
  C   C542      1.0  0.81348  0.15635  0.66299  1.0000
  C   C543      1.0  0.79357  0.14747  0.65412  1.0000
  C   C544      1.0  0.78132  0.15792  0.63243  1.0000
  C   C545      1.0  0.78925  0.17726  0.61979  1.0000
  C   C546      1.0  0.80905  0.18615  0.62870  1.0000
  H   H546      1.0  0.82280  0.14814  0.67979  1.0000
  H   H547      1.0  0.78774  0.13256  0.66403  1.0000
  H   H548      1.0  0.77996  0.18547  0.60298  1.0000
  H   H549      1.0  0.81477  0.20104  0.61874  1.0000
  C   C547      1.0  0.67466  0.32215  0.82467  1.0000
  C   C548      1.0  0.65839  0.31192  0.80918  1.0000
  H   H550      1.0  0.69199  0.02563  0.56229  1.0000
  C   C549      1.0  0.65204  0.14157  0.57199  1.0000
  H   H551      1.0  0.75414  0.99045  0.64250  1.0000
  C   C550      1.0  0.67736  0.31633  0.85310  1.0000
  H   H552      1.0  0.97341  0.28647  0.63691  1.0000
  C   C551      1.0  0.65232  0.13948  0.71443  1.0000
  H   H553      1.0  0.65559  0.17094  0.97512  1.0000
  C   C552      1.0  0.80567  0.31527  0.76801  1.0000
  C   C553      1.0  0.82539  0.30268  0.76176  1.0000
  C   C554      1.0  0.83065  0.29565  0.73397  1.0000
  C   C555      1.0  0.81630  0.30122  0.71176  1.0000
  C   C556      1.0  0.79644  0.31359  0.71805  1.0000
  C   C557      1.0  0.79114  0.32054  0.74588  1.0000
  H   H554      1.0  0.83684  0.29846  0.77857  1.0000
  H   H555      1.0  0.84604  0.28628  0.72969  1.0000
  H   H556      1.0  0.78513  0.31803  0.70118  1.0000
  H   H557      1.0  0.77591  0.33019  0.75012  1.0000
  C   C558      1.0  0.70600  0.11874  0.51362  1.0000
  C   C559      1.0  0.69073  0.10225  0.51699  1.0000
  H   H558      1.0  0.70159  0.03736  0.59441  1.0000
  H   H559      1.0  0.71263  0.12636  0.53201  1.0000
  H   H560      1.0  0.68126  0.24178  0.85462  1.0000
  H   H561      1.0  0.68708  0.31136  0.96967  1.0000
  C   C560      1.0  0.86561  0.25527  0.51451  1.0000
  C   C561      1.0  0.85734  0.27716  0.51028  1.0000
  H   H562      1.0  0.72154  0.29127  0.81764  1.0000
  H   H563      1.0  0.85166  0.28698  0.52814  1.0000
  H   H564      1.0  0.82779  0.34912  0.72114  1.0000
  C   C562      1.0  0.75171  0.36011  0.96227  1.0000
  C   C563      1.0  0.77458  0.35701  0.96578  1.0000
  C   C564      1.0  0.71916  0.05147  0.53674  1.0000
  H   H565      1.0  0.78515  0.35318  0.94774  1.0000
  C   C565      1.0  0.74523  0.03768  0.57048  1.0000
  C   C566      1.0  0.96112  0.25410  0.64559  1.0000
  H   H566      1.0  0.78039  0.41410  0.89716  1.0000
  H   H567      1.0  0.95478  0.21989  0.65432  1.0000
  H   H568      1.0  0.96210  0.27484  0.57852  1.0000
  C   C567      1.0  0.75687  0.06245  0.53341  1.0000
  C   C568      1.0  0.75519  0.45758  0.83419  1.0000
  C   C569      1.0  0.73263  0.46359  0.83163  1.0000
  H   H569      1.0  0.66625  0.29605  0.88780  1.0000
  H   H570      1.0  0.72092  0.45082  0.82918  1.0000
  C   C570      1.0  0.69929  0.00521  0.64343  1.0000
  C   C571      1.0  0.72213  0.00792  0.64350  1.0000
  C   C572      1.0  0.83657  0.19668  0.50299  1.0000
  H   H571      1.0  0.68797  0.01967  0.64452  1.0000
  C   C573      1.0  0.81797  0.36523  0.71983  1.0000
  N   N49       1.0  0.81422  0.37516  0.74766  1.0000
  C   C574      1.0  0.82546  0.36675  0.77060  1.0000
  C   C575      1.0  0.79976  0.39327  0.75032  1.0000
  C   C576      1.0  0.82218  0.37637  0.79710  1.0000
  C   C577      1.0  0.79625  0.40342  0.77648  1.0000
  C   C578      1.0  0.80759  0.39489  0.79996  1.0000
  H   H572      1.0  0.82703  0.37665  0.70585  1.0000
  H   H573      1.0  0.78754  0.47031  0.83926  1.0000
  H   H574      1.0  0.79077  0.39990  0.73220  1.0000
  H   H575      1.0  0.83048  0.36909  0.81540  1.0000
  C   C579      1.0  0.87279  0.24278  0.49095  1.0000
  C   C580      1.0  0.96738  0.23171  0.65061  1.0000
  H   H576      1.0  0.66375  0.17469  0.57248  1.0000
  H   H577      1.0  0.67331  0.98192  0.64277  1.0000
  C   C581      1.0  0.92795  0.23378  0.56730  1.0000
  N   N50       1.0  0.80903  0.21686  0.70628  1.0000
  C   C582      1.0  0.80722  0.23800  0.69541  1.0000
  C   C583      1.0  0.79379  0.20178  0.69981  1.0000
  C   C584      1.0  0.79031  0.24426  0.67666  1.0000
  C   C585      1.0  0.77674  0.20742  0.68101  1.0000
  C   C586      1.0  0.77512  0.22877  0.66923  1.0000
  C   C587      1.0  0.82698  0.21062  0.72574  1.0000
  H   H578      1.0  0.81909  0.25008  0.70088  1.0000
  H   H579      1.0  0.79524  0.18499  0.70834  1.0000
  H   H580      1.0  0.78928  0.26095  0.66768  1.0000
  H   H581      1.0  0.76528  0.19507  0.67500  1.0000
  H   H582      1.0  0.76224  0.23321  0.65420  1.0000
  H   H583      1.0  0.84237  0.21878  0.71940  1.0000
  H   H584      1.0  0.82216  0.21549  0.74754  1.0000
  H   H585      1.0  0.83119  0.19244  0.72515  1.0000
  C   C588      1.0  0.76816  0.41200  0.91458  1.0000
  H   H586      1.0  0.76353  0.39440  0.91433  1.0000
  C   C589      1.0  0.68288  0.26045  0.78767  1.0000
  H   H587      1.0  0.76950  0.07198  0.52322  1.0000
  H   H588      1.0  0.80484  0.40247  0.82041  1.0000
  H   H589      1.0  0.91083  0.23112  0.56248  1.0000
  H   H590      1.0  0.81789  0.23607  0.51667  1.0000
  H   H591      1.0  0.71282  0.01069  0.58262  1.0000
  C   C590      1.0  0.75202  0.44911  0.90365  1.0000
  C   C591      1.0  0.76188  0.04946  0.55729  1.0000
  C   C592      1.0  0.73541  0.06339  0.52294  1.0000
  H   H592      1.0  0.84964  0.18552  0.49323  1.0000
  C   C593      1.0  0.69922  0.27595  0.78974  1.0000
  H   H593      1.0  0.90249  0.26928  0.56170  1.0000
  N   N51       1.0  0.67711  0.24792  0.81060  1.0000
  H   H594      1.0  0.77597  0.41502  0.93513  1.0000
  H   H595      1.0  0.70320  0.28652  0.77190  1.0000
  H   H596      1.0  0.69841  0.46845  0.89973  1.0000
  C   C594      1.0  0.66403  0.30039  0.86578  1.0000
  H   H597      1.0  0.71059  0.26863  0.85923  1.0000
  H   H598      1.0  0.68969  0.32413  0.86533  1.0000
  C   C595      1.0  0.68688  0.25071  0.83606  1.0000
  H   H599      1.0  0.65607  0.31643  0.78723  1.0000
  C   C596      1.0  0.70675  0.02756  0.57552  1.0000
  C   C597      1.0  0.96462  0.21853  0.57784  1.0000
  H   H600      1.0  0.67747  0.16519  0.76819  1.0000
  C   C598      1.0  0.91945  0.27417  0.56674  1.0000
  H   H601      1.0  0.65835  0.13799  0.55090  1.0000
  H   H602      1.0  0.78461  0.41767  0.77870  1.0000
  H   H603      1.0  0.91837  0.28349  0.58686  1.0000
  C   C599      1.0  0.70948  0.43488  0.91089  1.0000
  C   C600      1.0  0.70339  0.26593  0.83883  1.0000
  N   N52       1.0  0.93502  0.25486  0.56981  1.0000
  C   C601      1.0  0.66416  0.15969  0.75547  1.0000
  C   C602      1.0  0.70954  0.27863  0.81550  1.0000
  H   H604      1.0  0.84392  0.20367  0.52215  1.0000
  C   C603      1.0  0.81946  0.23378  0.49405  1.0000
  N   N53       1.0  0.72419  0.03883  0.56019  1.0000
  H   H605      1.0  0.76857  0.45471  0.89998  1.0000
  C   C604      1.0  0.97180  0.24007  0.57962  1.0000
  H   H606      1.0  0.82237  0.18677  0.50951  1.0000
  H   H607      1.0  0.74912  0.02796  0.58936  1.0000
  S   S207      1.0  0.65755  0.12301  0.68353  1.0000
  C   C605      1.0  0.64530  0.29567  0.82176  1.0000
  C   C606      1.0  0.69101  0.98368  0.64249  1.0000
  H   H608      1.0  0.77839  0.04888  0.56596  1.0000
  C   C607      1.0  0.73645  0.98870  0.64233  1.0000
  C   C608      1.0  0.94257  0.21531  0.57153  1.0000
  C   C609      1.0  0.77005  0.47461  0.83731  1.0000
  H   H609      1.0  0.83655  0.35209  0.76877  1.0000
  H   H610      1.0  0.80192  0.36175  0.71010  1.0000
  H   H611      1.0  0.72544  0.40311  0.92073  1.0000
  C   C610      1.0  0.72796  0.42027  0.91480  1.0000
  H   H612      1.0  0.92501  0.28529  0.54952  1.0000
  C   C611      1.0  0.65906  0.23277  0.80861  1.0000
  C   C612      1.0  0.95664  0.25815  0.57576  1.0000
  H   H613      1.0  0.67439  0.25898  0.76785  1.0000
  C   C613      1.0  0.71254  0.45699  0.90335  1.0000
  H   H614      1.0  0.72746  0.31332  0.96030  1.0000
  H   H615      1.0  0.67049  0.07980  0.49508  1.0000
  C   C614      1.0  0.64811  0.28978  0.85017  1.0000
  H   H616      1.0  0.69293  0.42899  0.91343  1.0000
  C   C615      1.0  0.68236  0.09254  0.49279  1.0000
  C   C616      1.0  0.72115  0.31270  0.98183  1.0000
  H   H617      1.0  0.72057  0.36726  0.98375  1.0000
  H   H618      1.0  0.65029  0.18184  0.62158  1.0000
  C   C617      1.0  0.65509  0.16212  0.58413  1.0000
  H   H619      1.0  0.65704  0.22683  0.78674  1.0000
  C   C618      1.0  0.64753  0.16615  0.61160  1.0000
  C   C619      1.0  0.73393  0.46425  0.90006  1.0000
  H   H620      1.0  0.66217  0.21771  0.82206  1.0000
  H   H621      1.0  0.73123  0.07366  0.50459  1.0000
  H   H622      1.0  0.97606  0.20441  0.58184  1.0000
  C   C620      1.0  0.73829  0.36484  0.98614  1.0000
  Fe  Fe105     1.0  0.75301  0.60005  0.09268  1.0000
  S   S208      1.0  0.72776  0.57791  0.11173  1.0000
  S   S209      1.0  0.74593  0.60474  0.04522  1.0000
  Fe  Fe106     1.0  0.77224  0.60918  0.15275  1.0000
  S   S210      1.0  0.74828  0.58672  0.17397  1.0000
  S   S211      1.0  0.79603  0.63167  0.17633  1.0000
  Fe  Fe107     1.0  0.75534  0.56268  0.13799  1.0000
  S   S212      1.0  0.76577  0.52512  0.13695  1.0000
  Fe  Fe108     1.0  0.72293  0.60383  0.14518  1.0000
  S   S213      1.0  0.68913  0.61709  0.16120  1.0000
  S   S214      1.0  0.78105  0.58425  0.11804  1.0000
  S   S215      1.0  0.74643  0.62687  0.12508  1.0000
  Fe  Fe109     1.0  0.89597  0.70263  0.33669  1.0000
  S   S216      1.0  0.87460  0.67730  0.35792  1.0000
  S   S217      1.0  0.93324  0.69154  0.33611  1.0000
  Fe  Fe110     1.0  0.85500  0.73480  0.32788  1.0000
  S   S218      1.0  0.83213  0.71167  0.34908  1.0000
  S   S219      1.0  0.84020  0.76678  0.30782  1.0000
  Fe  Fe111     1.0  0.85882  0.70629  0.38169  1.0000
  S   S220      1.0  0.85237  0.71413  0.42857  1.0000
  Fe  Fe112     1.0  0.84978  0.68485  0.32289  1.0000
  S   S221      1.0  0.82813  0.65953  0.30059  1.0000
  S   S222      1.0  0.88083  0.73125  0.36160  1.0000
  S   S223      1.0  0.87200  0.70833  0.30050  1.0000
  Fe  Fe113     1.0  0.73648  0.85136  0.35106  1.0000
  S   S224      1.0  0.70409  0.83589  0.35942  1.0000
  S   S225      1.0  0.76744  0.83190  0.36677  1.0000
  Fe  Fe114     1.0  0.71306  0.89579  0.33159  1.0000
  S   S226      1.0  0.67917  0.88233  0.33822  1.0000
  S   S227      1.0  0.71999  0.93050  0.31316  1.0000
  Fe  Fe115     1.0  0.69322  0.86830  0.37926  1.0000
  S   S228      1.0  0.67407  0.87138  0.42110  1.0000
  Fe  Fe116     1.0  0.69310  0.85080  0.31753  1.0000
  H   H623      1.0  0.75596  0.66178  0.17307  1.0000
  S   S229      1.0  0.72608  0.88319  0.37337  1.0000
  S   S230      1.0  0.72643  0.86494  0.30845  1.0000
  C   C621      1.0  0.71644  0.95836  0.32598  1.0000
  H   H624      1.0  0.75499  0.49055  0.07643  1.0000
  C   C622      1.0  0.74572  0.59575  0.98844  1.0000
  H   H625      1.0  0.70109  0.95009  0.36563  1.0000
  C   C623      1.0  0.85848  0.71628  0.48571  1.0000
  C   C624      1.0  0.68582  0.86762  0.45533  1.0000
  H   H626      1.0  0.91385  0.66729  0.47899  1.0000
  C   C625      1.0  0.70720  0.85816  0.45913  1.0000
  H   H627      1.0  0.74050  0.55880  0.05663  1.0000
  H   H628      1.0  0.71718  0.85329  0.44094  1.0000
  C   C626      1.0  0.92098  0.66498  0.43437  1.0000
  C   C627      1.0  0.85831  0.70216  0.46232  1.0000
  H   H629      1.0  0.71736  0.50496  0.07495  1.0000
  C   C628      1.0  0.91238  0.69949  0.45837  1.0000
  H   H630      1.0  0.86108  0.66810  0.44912  1.0000
  C   C629      1.0  0.70264  0.67093  0.19235  1.0000
  C   C630      1.0  0.81883  0.78370  0.32409  1.0000
  C   C631      1.0  0.80729  0.80023  0.30800  1.0000
  C   C632      1.0  0.79050  0.81422  0.32030  1.0000
  C   C633      1.0  0.78565  0.81239  0.34915  1.0000
  C   C634      1.0  0.79717  0.79585  0.36518  1.0000
  C   C635      1.0  0.81337  0.78132  0.35266  1.0000
  H   H631      1.0  0.81159  0.80245  0.28598  1.0000
  H   H632      1.0  0.78195  0.82699  0.30774  1.0000
  H   H633      1.0  0.79372  0.79443  0.38755  1.0000
  H   H634      1.0  0.82216  0.76878  0.36535  1.0000
  C   C636      1.0  0.75380  0.49858  0.13908  1.0000
  C   C637      1.0  0.76918  0.92103  0.34233  1.0000
  C   C638      1.0  0.73193  0.49591  0.14786  1.0000
  H   H635      1.0  0.68807  0.68139  0.18722  1.0000
  H   H636      1.0  0.72157  0.51033  0.15375  1.0000
  C   C639      1.0  0.78171  0.60202  0.00720  1.0000
  C   C640      1.0  0.75903  0.59982  0.01177  1.0000
  N   N54       1.0  0.72226  0.67355  0.17834  1.0000
  H   H637      1.0  0.79217  0.60547  0.02476  1.0000
  C   C641      1.0  0.72390  0.69051  0.15609  1.0000
  C   C642      1.0  0.67629  0.64246  0.14857  1.0000
  H   H638      1.0  0.73122  0.97251  0.28871  1.0000
  H   H639      1.0  0.73746  0.70158  0.16068  1.0000
  C   C643      1.0  0.90963  0.73511  0.43264  1.0000
  H   H640      1.0  0.66802  0.78557  0.25828  1.0000
  C   C644      1.0  0.68612  0.65505  0.12735  1.0000
  H   H641      1.0  0.78698  0.88471  0.29163  1.0000
  N   N55       1.0  0.74545  0.52437  0.06705  1.0000
  C   C645      1.0  0.65672  0.68439  0.13198  1.0000
  C   C646      1.0  0.80492  0.63878  0.21121  1.0000
  C   C647      1.0  0.79677  0.62901  0.23599  1.0000
  C   C648      1.0  0.80407  0.63554  0.26283  1.0000
  C   C649      1.0  0.81982  0.65182  0.26568  1.0000
  C   C650      1.0  0.82816  0.66143  0.24087  1.0000
  C   C651      1.0  0.82069  0.65505  0.21405  1.0000
  H   H642      1.0  0.78503  0.61617  0.23457  1.0000
  H   H643      1.0  0.79758  0.62770  0.28161  1.0000
  H   H644      1.0  0.84066  0.67352  0.24224  1.0000
  H   H645      1.0  0.82745  0.66262  0.19524  1.0000
  C   C652      1.0  0.96017  0.70276  0.33623  1.0000
  H   H646      1.0  0.75221  0.92745  0.39313  1.0000
  H   H647      1.0  0.75325  0.63145  0.20809  1.0000
  C   C653      1.0  0.67642  0.67586  0.11919  1.0000
  H   H648      1.0  0.94920  0.73717  0.33232  1.0000
  H   H649      1.0  0.64864  0.64121  0.17760  1.0000
  S   S231      1.0  0.67807  0.82498  0.28836  1.0000
  H   H650      1.0  0.68479  0.65110  0.22227  1.0000
  H   H651      1.0  0.76127  0.93754  0.34432  1.0000
  H   H652      1.0  0.92077  0.70902  0.38923  1.0000
  H   H653      1.0  0.78427  0.70232  0.46185  1.0000
  H   H654      1.0  0.72728  0.68232  0.13550  1.0000
  H   H655      1.0  0.71093  0.53328  0.06443  1.0000
  H   H656      1.0  0.89178  0.73873  0.42833  1.0000
  H   H657      1.0  0.78653  0.87678  0.38155  1.0000
  H   H658      1.0  0.65653  0.88097  0.47679  1.0000
  H   H659      1.0  0.70124  0.64878  0.11724  1.0000
  H   H660      1.0  0.92332  0.64700  0.43461  1.0000
  H   H661      1.0  0.79438  0.49464  0.06411  1.0000
  C   C654      1.0  0.71426  0.64829  0.99461  1.0000
  H   H662      1.0  0.70498  0.64825  0.01436  1.0000
  C   C655      1.0  0.75221  0.54461  0.05806  1.0000
  H   H663      1.0  0.68425  0.68546  0.10280  1.0000
  C   C656      1.0  0.91943  0.69996  0.40902  1.0000
  C   C657      1.0  0.77397  0.91283  0.31535  1.0000
  H   H664      1.0  0.78141  0.92707  0.40116  1.0000
  C   C658      1.0  0.91580  0.67634  0.45924  1.0000
  C   C659      1.0  0.65839  0.81222  0.10904  1.0000
  H   H665      1.0  0.80699  0.53149  0.04810  1.0000
  C   C660      1.0  0.64474  0.82270  0.12930  1.0000
  C   C661      1.0  0.78260  0.50873  0.06195  1.0000
  C   C662      1.0  0.78360  0.89144  0.31244  1.0000
  H   H666      1.0  0.71744  0.62570  0.23270  1.0000
  N   N56       1.0  0.91432  0.71099  0.43347  1.0000
  C   C663      1.0  0.65642  0.65083  0.16119  1.0000
  C   C664      1.0  0.76789  0.91694  0.39374  1.0000
  H   H667      1.0  0.76953  0.92284  0.29688  1.0000
  H   H668      1.0  0.66562  0.79894  0.33790  1.0000
  C   C665      1.0  0.74039  0.65986  0.18426  1.0000
  H   H669      1.0  0.72814  0.59416  0.99159  1.0000
  C   C666      1.0  0.67309  0.87368  0.47939  1.0000
  C   C667      1.0  0.65812  0.79916  0.24900  1.0000
  H   H670      1.0  0.91366  0.74280  0.45296  1.0000
  C   C668      1.0  0.76028  0.50651  0.06886  1.0000
  N   N57       1.0  0.81174  0.73442  0.26436  1.0000
  C   C669      1.0  0.80973  0.71431  0.27751  1.0000
  C   C670      1.0  0.79767  0.75210  0.27120  1.0000
  C   C671      1.0  0.79303  0.71129  0.29760  1.0000
  C   C672      1.0  0.78103  0.74984  0.29165  1.0000
  C   C673      1.0  0.77870  0.72926  0.30487  1.0000
  C   C674      1.0  0.83009  0.73735  0.24439  1.0000
  H   H671      1.0  0.82138  0.70060  0.27287  1.0000
  H   H672      1.0  0.79989  0.76830  0.26173  1.0000
  H   H673      1.0  0.79177  0.69524  0.30804  1.0000
  H   H674      1.0  0.77048  0.76414  0.29777  1.0000
  H   H675      1.0  0.76613  0.72734  0.32109  1.0000
  H   H676      1.0  0.82618  0.75109  0.22915  1.0000
  H   H677      1.0  0.84512  0.74133  0.25616  1.0000
  H   H678      1.0  0.83382  0.72197  0.23214  1.0000
  C   C675      1.0  0.73900  0.64265  0.20414  1.0000
  C   C676      1.0  0.96337  0.72558  0.33413  1.0000
  C   C677      1.0  0.80192  0.70495  0.46604  1.0000
  H   H679      1.0  0.76516  0.90333  0.40928  1.0000
  C   C678      1.0  0.77440  0.54744  0.05101  1.0000
  C   C679      1.0  0.70067  0.65387  0.21236  1.0000
  H   H680      1.0  0.64784  0.85485  0.25472  1.0000
  C   C680      1.0  0.65989  0.82082  0.25942  1.0000
  H   H681      1.0  0.66074  0.80085  0.06610  1.0000
  H   H682      1.0  0.79583  0.86187  0.33450  1.0000
  H   H683      1.0  0.70826  0.70095  0.15397  1.0000
  H   H684      1.0  0.97689  0.67039  0.33977  1.0000
  C   C681      1.0  0.71895  0.63953  0.21807  1.0000
  H   H685      1.0  0.72120  0.52705  0.09941  1.0000
  C   C682      1.0  0.86141  0.67922  0.46682  1.0000
  N   N58       1.0  0.77345  0.90809  0.36573  1.0000
  C   C683      1.0  0.78328  0.88723  0.36309  1.0000
  H   H686      1.0  0.91949  0.74310  0.41576  1.0000
  C   C684      1.0  0.78852  0.87862  0.33644  1.0000
  C   C685      1.0  0.78968  0.52939  0.05309  1.0000
  H   H687      1.0  0.66704  0.80265  0.37512  1.0000
  C   C686      1.0  0.70681  0.96337  0.35229  1.0000
  C   C687      1.0  0.72257  0.52229  0.07686  1.0000
  H   H688      1.0  0.67480  0.80567  0.11466  1.0000
  H   H689      1.0  0.77971  0.56364  0.04445  1.0000
  C   C688      1.0  0.92286  0.67684  0.40908  1.0000
  H   H690      1.0  0.92672  0.66822  0.38949  1.0000
  C   C689      1.0  0.64668  0.67170  0.15298  1.0000
  H   H691      1.0  0.85590  0.73404  0.48258  1.0000
  C   C690      1.0  0.72368  0.97607  0.30907  1.0000
  H   H692      1.0  0.90764  0.70810  0.47765  1.0000
  C   C691      1.0  0.71554  0.85452  0.48657  1.0000
  H   H693      1.0  0.65187  0.83584  0.39492  1.0000
  C   C692      1.0  0.65549  0.80310  0.35706  1.0000
  C   C693      1.0  0.73716  0.64983  0.99482  1.0000
  C   C694      1.0  0.64681  0.83810  0.24710  1.0000
  H   H694      1.0  0.80742  0.71897  0.45264  1.0000
  H   H695      1.0  0.81215  0.69003  0.45932  1.0000
  C   C695      1.0  0.76694  0.47945  0.13173  1.0000
  S   S232      1.0  0.64623  0.71130  0.12147  1.0000
  H   H696      1.0  0.78390  0.48119  0.12497  1.0000
  H   H697      1.0  0.65031  0.82419  0.15085  1.0000
  C   C696      1.0  0.65052  0.80953  0.08183  1.0000
  H   H698      1.0  0.74574  0.65065  0.01472  1.0000
  Fe  Fe117     1.0  0.70644  0.86348  0.59099  1.0000
  S   S233      1.0  0.73193  0.88459  0.61010  1.0000
  S   S234      1.0  0.71424  0.85463  0.54468  1.0000
  Fe  Fe118     1.0  0.68469  0.85467  0.65038  1.0000
  S   S235      1.0  0.70892  0.87551  0.67211  1.0000
  C   C697      1.0  0.80436  0.73525  0.53427  1.0000
  Fe  Fe119     1.0  0.70410  0.90037  0.63611  1.0000
  S   S236      1.0  0.69359  0.93767  0.64103  1.0000
  Fe  Fe120     1.0  0.73455  0.85792  0.64385  1.0000
  S   S237      1.0  0.76757  0.84318  0.66007  1.0000
  S   S238      1.0  0.67820  0.88032  0.61549  1.0000
  S   S239      1.0  0.71062  0.83609  0.62383  1.0000
  Fe  Fe121     1.0  0.77138  0.59488  0.87938  1.0000
  S   S240      1.0  0.73570  0.58699  0.87916  1.0000
  S   S241      1.0  0.78927  0.59770  0.92154  1.0000
  Fe  Fe122     1.0  0.77333  0.60186  0.81399  1.0000
  S   S242      1.0  0.73722  0.59420  0.81092  1.0000
  S   S243      1.0  0.79003  0.60970  0.77081  1.0000
  Fe  Fe123     1.0  0.73135  0.61597  0.84891  1.0000
  S   S244      1.0  0.70938  0.64675  0.86052  1.0000
  Fe  Fe124     1.0  0.74501  0.56562  0.84145  1.0000
  S   S245      1.0  0.72941  0.53162  0.83694  1.0000
  S   S246      1.0  0.76698  0.62482  0.85049  1.0000
  S   S247      1.0  0.78129  0.57217  0.84296  1.0000
  Fe  Fe125     1.0  0.84699  0.73512  0.61966  1.0000
  S   S248      1.0  0.83622  0.69990  0.61987  1.0000
  S   S249      1.0  0.82066  0.76085  0.60378  1.0000
  Fe  Fe126     1.0  0.89611  0.71932  0.63144  1.0000
  S   S250      1.0  0.88775  0.68333  0.63220  1.0000
  S   S251      1.0  0.93039  0.73358  0.63815  1.0000
  Fe  Fe127     1.0  0.86707  0.69262  0.59364  1.0000
  S   S252      1.0  0.86657  0.67297  0.55250  1.0000
  Fe  Fe128     1.0  0.85737  0.69409  0.65831  1.0000
  S   S253      1.0  0.84657  0.68147  0.70268  1.0000
  S   S254      1.0  0.87693  0.72785  0.59187  1.0000
  S   S255      1.0  0.86678  0.73002  0.65923  1.0000
  C   C698      1.0  0.74002  0.50330  0.83553  1.0000
  C   C699      1.0  0.76257  0.49725  0.83806  1.0000
  H   H699      1.0  0.80822  0.60299  0.97625  1.0000
  H   H700      1.0  0.77426  0.51005  0.84053  1.0000
  H   H701      1.0  0.89368  0.67123  0.70684  1.0000
  C   C700      1.0  0.80671  0.62938  0.75277  1.0000
  C   C701      1.0  0.81500  0.64778  0.76608  1.0000
  C   C702      1.0  0.82710  0.66338  0.75043  1.0000
  C   C703      1.0  0.83102  0.66107  0.72118  1.0000
  C   C704      1.0  0.82272  0.64269  0.70789  1.0000
  C   C705      1.0  0.81090  0.62693  0.72360  1.0000
  H   H702      1.0  0.81210  0.64999  0.78844  1.0000
  H   H703      1.0  0.83347  0.67740  0.76113  1.0000
  H   H704      1.0  0.82568  0.64041  0.68555  1.0000
  H   H705      1.0  0.80487  0.61271  0.71298  1.0000
  C   C706      1.0  0.70531  0.96445  0.64142  1.0000
  H   H706      1.0  0.96004  0.69207  0.69619  1.0000
  H   H707      1.0  0.75405  0.84221  0.57677  1.0000
  C   C707      1.0  0.65945  0.82330  0.75807  1.0000
  H   H708      1.0  0.73946  0.95268  0.64051  1.0000
  C   C708      1.0  0.78047  0.81812  0.64694  1.0000
  C   C709      1.0  0.80043  0.80966  0.65881  1.0000
  C   C710      1.0  0.81234  0.79120  0.64696  1.0000
  C   C711      1.0  0.80449  0.78117  0.62288  1.0000
  C   C712      1.0  0.78421  0.78920  0.61157  1.0000
  C   C713      1.0  0.77217  0.80742  0.62365  1.0000
  H   H709      1.0  0.80697  0.81778  0.67688  1.0000
  H   H710      1.0  0.82798  0.78531  0.65580  1.0000
  H   H711      1.0  0.77794  0.78157  0.59299  1.0000
  H   H712      1.0  0.75675  0.81352  0.61447  1.0000
  C   C714      1.0  0.66492  0.83057  0.73046  1.0000
  N   N59       1.0  0.66734  0.75361  0.77953  1.0000
  C   C715      1.0  0.67235  0.65013  0.82570  1.0000
  C   C716      1.0  0.68454  0.65962  0.84689  1.0000
  C   C717      1.0  0.67686  0.68019  0.85797  1.0000
  C   C718      1.0  0.68003  0.75897  0.80444  1.0000
  H   H713      1.0  0.67775  0.63414  0.81727  1.0000
  H   H714      1.0  0.68604  0.68764  0.87449  1.0000
  C   C719      1.0  0.65682  0.76158  0.73162  1.0000
  H   H715      1.0  0.67987  0.83932  0.72667  1.0000
  C   C720      1.0  0.68158  0.87033  0.50686  1.0000
  C   C721      1.0  0.70284  0.86054  0.51066  1.0000
  H   H716      1.0  0.94534  0.74928  0.69288  1.0000
  C   C722      1.0  0.79075  0.60076  0.97959  1.0000
  S   S256      1.0  0.65619  0.83676  0.67273  1.0000
  C   C723      1.0  0.65103  0.88647  0.73011  1.0000
  C   C724      1.0  0.86437  0.68473  0.51789  1.0000
  C   C725      1.0  0.80265  0.82839  0.56960  1.0000
  H   H717      1.0  0.65023  0.72813  0.80074  1.0000
  H   H718      1.0  0.86150  0.71881  0.53097  1.0000
  C   C726      1.0  0.77734  0.59722  0.95617  1.0000
  N   N60       1.0  0.80490  0.70941  0.49603  1.0000
  H   H719      1.0  0.70769  0.49064  0.83022  1.0000
  H   H720      1.0  0.65840  0.77156  0.71253  1.0000
  C   C727      1.0  0.66968  0.76566  0.75512  1.0000
  C   C728      1.0  0.95872  0.72314  0.63717  1.0000
  N   N61       1.0  0.78864  0.84582  0.57754  1.0000
  H   H721      1.0  0.81069  0.72113  0.57538  1.0000
  C   C729      1.0  0.65276  0.66119  0.81576  1.0000
  H   H722      1.0  0.95210  0.68846  0.63613  1.0000
  H   H723      1.0  0.80258  0.75215  0.54198  1.0000
  C   C730      1.0  0.80933  0.69216  0.51450  1.0000
  C   C731      1.0  0.72516  0.48625  0.83228  1.0000
  H   H724      1.0  0.73991  0.63513  0.70372  1.0000
  H   H725      1.0  0.81587  0.68249  0.55778  1.0000
  C   C732      1.0  0.80226  0.73074  0.50558  1.0000
  H   H726      1.0  0.79819  0.81752  0.55280  1.0000
  C   C733      1.0  0.86167  0.70768  0.51325  1.0000
  H   H727      1.0  0.96787  0.72953  0.69865  1.0000
  H   H728      1.0  0.78203  0.87176  0.60713  1.0000
  C   C734      1.0  0.97567  0.73829  0.63857  1.0000
  C   C735      1.0  0.65094  0.82680  0.70791  1.0000
  H   H729      1.0  0.65151  0.70681  0.85721  1.0000
  H   H730      1.0  0.83302  0.80921  0.57843  1.0000
  H   H731      1.0  0.68237  0.74432  0.81878  1.0000
  N   N62       1.0  0.75015  0.64610  0.74368  1.0000
  C   C736      1.0  0.73354  0.63833  0.76030  1.0000
  C   C737      1.0  0.76244  0.66299  0.75278  1.0000
  C   C738      1.0  0.72873  0.64764  0.78665  1.0000
  C   C739      1.0  0.75835  0.67237  0.77931  1.0000
  C   C740      1.0  0.74133  0.66462  0.79631  1.0000
  H   H732      1.0  0.72422  0.62453  0.75346  1.0000
  H   H733      1.0  0.77597  0.66883  0.73992  1.0000
  H   H734      1.0  0.71570  0.64129  0.79986  1.0000
  H   H735      1.0  0.76860  0.68524  0.78679  1.0000
  H   H736      1.0  0.73806  0.67142  0.81713  1.0000
  N   N63       1.0  0.93557  0.71755  0.70652  1.0000
  C   C741      1.0  0.94275  0.69611  0.70102  1.0000
  C   C742      1.0  0.91371  0.72263  0.71233  1.0000
  C   C743      1.0  0.92781  0.67915  0.70087  1.0000
  C   C744      1.0  0.89842  0.70601  0.71293  1.0000
  C   C745      1.0  0.90552  0.68417  0.70698  1.0000
  C   C746      1.0  0.95127  0.73528  0.70682  1.0000
  H   H737      1.0  0.67916  0.92721  0.69770  1.0000
  H   H738      1.0  0.90794  0.73967  0.71621  1.0000
  H   H739      1.0  0.67100  0.77254  0.81624  1.0000
  H   H740      1.0  0.88106  0.71006  0.71750  1.0000
  H   H741      1.0  0.74493  0.65770  0.90245  1.0000
  H   H742      1.0  0.73650  0.48133  0.89373  1.0000
  C   C747      1.0  0.65319  0.90924  0.67908  1.0000
  H   H743      1.0  0.95304  0.74139  0.72860  1.0000
  C   C748      1.0  0.66732  0.91444  0.70087  1.0000
  H   H744      1.0  0.74421  0.59149  0.94326  1.0000
  H   H745      1.0  0.76292  0.86766  0.56104  1.0000
  H   H746      1.0  0.65418  0.91826  0.65919  1.0000
  C   C749      1.0  0.96479  0.70039  0.63729  1.0000
  C   C750      1.0  0.74909  0.64893  0.96935  1.0000
  C   C751      1.0  0.80898  0.71778  0.55315  1.0000
  C   C752      1.0  0.65727  0.69117  0.84813  1.0000
  H   H747      1.0  0.70755  0.64354  0.92399  1.0000
  C   C753      1.0  0.82242  0.82365  0.58394  1.0000
  H   H748      1.0  0.74882  0.62817  0.90879  1.0000
  H   H749      1.0  0.65017  0.87717  0.74981  1.0000
  C   C754      1.0  0.75511  0.63555  0.71650  1.0000
  H   H750      1.0  0.76189  0.61824  0.72020  1.0000
  H   H751      1.0  0.76707  0.84216  0.54246  1.0000
  H   H752      1.0  0.76766  0.64448  0.70407  1.0000
  N   N64       1.0  0.73841  0.64674  0.94436  1.0000
  C   C755      1.0  0.76724  0.84961  0.56375  1.0000
  C   C756      1.0  0.75097  0.64479  0.91785  1.0000
  C   C757      1.0  0.81331  0.85448  0.61463  1.0000
  H   H753      1.0  0.76901  0.64631  0.92081  1.0000
  H   H754      1.0  0.67153  0.87499  0.52508  1.0000
  C   C758      1.0  0.72816  0.96717  0.64119  1.0000
  H   H755      1.0  0.81667  0.86414  0.63309  1.0000
  C   C759      1.0  0.79368  0.85872  0.59983  1.0000
  C   C760      1.0  0.75478  0.59436  0.96089  1.0000
  H   H756      1.0  0.93343  0.66226  0.69582  1.0000
  C   C761      1.0  0.82773  0.83680  0.60662  1.0000
  H   H757      1.0  0.68107  0.77895  0.75394  1.0000
  C   C762      1.0  0.65227  0.73751  0.78134  1.0000
  H   H758      1.0  0.84253  0.83272  0.61867  1.0000
  H   H759      1.0  0.67038  0.82650  0.77524  1.0000
  C   C763      1.0  0.81157  0.69609  0.54330  1.0000
  H   H760      1.0  0.86627  0.65279  0.49778  1.0000
  H   H761      1.0  0.67748  0.90646  0.74330  1.0000
  H   H762      1.0  0.73195  0.84685  0.48915  1.0000
  H   H763      1.0  0.79868  0.74441  0.49097  1.0000
  C   C764      1.0  0.86433  0.67059  0.49446  1.0000
  H   H764      1.0  0.76699  0.64910  0.96985  1.0000
  H   H765      1.0  0.97131  0.75593  0.63851  1.0000
  C   C765      1.0  0.66633  0.90283  0.72644  1.0000
  C   C766      1.0  0.71592  0.64549  0.94389  1.0000
  H   H766      1.0  0.81176  0.67528  0.50697  1.0000
  H   H767      1.0  0.69665  0.76453  0.79835  1.0000
  C   C767      1.0  0.64506  0.68173  0.82696  1.0000
  C   C768      1.0  0.70350  0.64624  0.96899  1.0000
  H   H768      1.0  0.68571  0.64490  0.96858  1.0000
