data_image0
_chemical_formula_structural       H4CHFeCSH3SFeSCSC4H2CHSH4FeCHCHC2HCFeHSC2S3C2HFeC2HSHNHCFeCH2SNC7H7C2HCH2C4H2CH3C2HC2HCSH2SHNCH2C3HSH5CHCHFe2HSFeSH3S2HS2CH3C2HCHC6HCH2C3H4C3SCHCH3CH5CH3CHSCSH3FeSFeCHCHCHCH3FeCHC3HC7H4C2NCNCHNC3HC3SC3H2CH2CHCHCH2CHSHSHC2HFeSCH3CHCNSFeS2FeS2FeSFeHS2NHCFeSCS3FeS2FeS2FeSFeS3FeS2FeS2FeSFeS3HSHFeS2HC6H4C3H3NC2HC3H4C6H4C2SHCFeC6H2C3H2C6H5C2HCNSCSHCHCNH2NC4SHCSHNC5H2C2H4CNC6H8CH7CHCHSH3CFeCH3C4HC2HNC6H8NH3CH3CH3CHC2FeHCHCFeHCFeCFeH2NC2H3CH2NHCH2CHC2HC2HCH2C7HS3HCFeSFeS2FeS2FeSFeS3HFeS2FeS2FeSFeS3FeS2FeS2FeSFeS4FeS2FeS2HC6H4NH2C6H4C6H4C2H2SC4H2C7H5C2FeH2SCHC2H2C2H2CHCNHC4H3FeCHCHC2H2C2H2C4HCH2C2H2C2SH4C2NC6H8C2HSCHNC6H8NC3H4C4H5CNC3HCNHCH2NC2H3CHSC3HNCHC3H2C2HCFeHCHCH2CHSHCHCHC3H2SHCH3C2H2SH4C2SH2C5HCH2Fe2H2SFeSHFeSFeCHFeSFeSHFeSFeHSH2FeS2FeS2FeSFeS3FeS2FeS2FeS2FeS2FeSFeS3CH2C2H2C6H5C6H4C6H4C4H3C6H5NH2C3HC6H4CHNC6H8C2H2CNH2NCHC2HC3HSHNC6H9CHC2SC3H2C4NCHCSH2FeC2HCHFeHCHSCHSH3C3SH5C2H2CHCHC4SHCHCH3SHSC2HC2HC2NCHCH4C3H3CNCFeS2FeS2FeSFeS3FeS2FeS2FeS2FeS2FeSFeS3HFeS2FeS2FeSFeS2H2FeCSHCSC2SC3HCHC3FeHNHCH3FeH2C4SCHCH2C3H2SC5H3NCH2C6H4C7H4C6H4C6H4C5H3CH3C2HC7SH3SHSH2C2HCNC6H6NC6H3CH2CH3SH3CHCH2CHCHNCSC2FeH2NH3CHC2HSC2H3CHCHCH3C2HCNHFeH2C2SH2CH5N2HC4HCHCHCH2SC3H2CHCHCHCS2H3CFe2S2Fe2S3FeS2FeS2FeSFeS4FeS2FeS2FeHFeS3CH3CHC3H3C3SC2H2CHC6H4C6H4C4HCHNHCH2CH2CH3C6H5FeC2SHC2N2C6H8CH2NHCSCFeC2H2NSH2CHCH2CHCHC2HSHC5NC6H8SHCHSHC2HCH3C2HC2HC2SCH2CH2CH2NCH3FeHC3NC2HC3H3C2H3SH2CNC2SC2HCH2NH2CHCHC2HCFeS2FeS2FeSFeCS2FeSFeS2FeSFeSFeS2FeS2FeSFeS3H2FeSC6H4CH2C3H2CHC2HC6H5CH2C3HC6HCH2C6H4CHSHN2H2CH2CNH3SHCHC6HC3SH2CHC2SHSCNH2CSNC2H3CH4SH2SNC6H9CH3SC2H2C2HCH2NC6H9C2HC2NHC4SC7H3SCNCHCSCH2C4H2FeCHFeH2NCFeS2FeS2FeSFeS3HSFeS2Fe3S3HCFeS2FeS2FeSFeS2C2FeSH5C2H3CHC6H4C6H4SCHCHCH2SHC6H4CHCHC3H2C2HC2HSHC2HC2H5C3HCHCSH3NC6H8CH3CH2CNH2CHSHNCNC6H9C2H2C2SCNCNFeHC3H2CHCH2C3HC3HC4HCHC2HC3FeSFeC2HCHC4SCHFeS2FeS2FeSFeS5FeS2Fe2SFeS2FeS2FeS2FeSFeCS3NFeC2HC2H2CHNCSH4C3H2C3HCH2CHC6H4C6H4C6H2CHC6H4CHCFeH3C2H3C2HSC3SC3H4NC6H8NC6H8SH2SC2HCHC2H2CH3SC2S3CHCH3CHCNH3NCH4CH2C6HC2NCH2C3HCH5CH3CSCSC2HC3NSH2FeSCFeCFeHC2FeS2FeSCFeSFeHS2CH3CSHCH2CSH3SHSCH2CHFeHCH3CSC2HCH2C3HCH2CHC2FeH2NHC2H3NC3H2C3H3CH2SHFeC2H4C2HC2FeSNFeS2FeSFeS3CSHSCFeSFeNHSHCSHFeHC6H2SC2HCHCHC2H6C4H7C4HCH3SCNC2NH2C2HSC6H2FeH2SH2SHC2H5C2HC2HC2HCFeSHSC2HNHCFeH4CH2SC2S2HFeS2FeSHFeSFeS3FeS2FeH2FeCHSH3CH5FeCH2FeNHSCH2CH2CHC6HCH2CHC2HCHC6H2SCHC2H2NH2CHNCHC2FeCH4CNC3HC2H3NCHC2H2CHSCH3SH2CHSCHNCSHCSH3CSHSCFeSFeS2CFeS2FeSHFeSFeHS2CH3C3H3CFeC6H4FeCHC3SH5CHFeC9H2CHSHNSH2CHCNHSH3CFeHCHC2H2C3NHFeSCHCHCH4CHCHC2H3NC5H2SH4SCNHCHC
_chemical_formula_sum              "H1152 C1152 Fe192 S384 N96"
_cell_length_a       55.485
_cell_length_b       55.3995
_cell_length_c       84.5626
_cell_angle_alpha    89.6443
_cell_angle_beta     90.2274
_cell_angle_gamma    117.327

_space_group_name_H-M_alt    "P 1"
_space_group_IT_number       1

loop_
  _space_group_symop_operation_xyz
  'x, y, z'

loop_
  _atom_site_type_symbol
  _atom_site_label
  _atom_site_symmetry_multiplicity
  _atom_site_fract_x
  _atom_site_fract_y
  _atom_site_fract_z
  _atom_site_occupancy
  H   H1        1.0  0.51387  0.41732  0.09273  1.0000
  H   H2        1.0  0.37430  0.46446  0.09100  1.0000
  H   H3        1.0  0.48638  0.32126  0.02012  1.0000
  H   H4        1.0  0.39547  0.46853  0.03843  1.0000
  C   C1        1.0  0.46577  0.46901  0.03685  1.0000
  H   H5        1.0  0.39874  0.42529  0.04083  1.0000
  Fe  Fe1       1.0  0.48472  0.41263  0.04005  1.0000
  C   C2        1.0  0.46384  0.49338  0.03543  1.0000
  S   S1        1.0  0.44401  0.41325  0.04024  1.0000
  H   H6        1.0  0.48213  0.51237  0.03395  1.0000
  H   H7        1.0  0.48542  0.46934  0.03642  1.0000
  H   H8        1.0  0.50812  0.25867  0.02719  1.0000
  S   S2        1.0  0.30174  0.50285  0.02558  1.0000
  Fe  Fe2       1.0  0.51867  0.38938  0.02341  1.0000
  S   S3        1.0  0.48681  0.37291  0.04236  1.0000
  C   C3        1.0  0.52136  0.41005  0.10252  1.0000
  S   S4        1.0  0.51653  0.43410  0.05849  1.0000
  C   C4        1.0  0.43854  0.49341  0.03598  1.0000
  C   C5        1.0  0.41506  0.46876  0.03797  1.0000
  C   C6        1.0  0.41698  0.44431  0.03935  1.0000
  C   C7        1.0  0.44235  0.44435  0.03882  1.0000
  H   H9        1.0  0.41517  0.32920  0.01801  1.0000
  H   H10       1.0  0.41249  0.46893  0.07376  1.0000
  C   C8        1.0  0.39041  0.48441  0.08797  1.0000
  H   H11       1.0  0.51780  0.43730  0.11944  1.0000
  S   S5        1.0  0.51367  0.42720  0.01952  1.0000
  H   H12       1.0  0.44877  0.51456  0.06689  1.0000
  H   H13       1.0  0.32994  0.51104  0.23304  1.0000
  H   H14       1.0  0.51414  0.23682  0.01435  1.0000
  H   H15       1.0  0.41412  0.37329  0.01755  1.0000
  Fe  Fe3       1.0  0.52109  0.39594  0.05935  1.0000
  C   C9        1.0  0.38994  0.50775  0.09375  1.0000
  H   H16       1.0  0.37356  0.50619  0.10136  1.0000
  C   C10       1.0  0.41177  0.48688  0.07831  1.0000
  H   H17       1.0  0.46694  0.27162  0.01507  1.0000
  C   C11       1.0  0.43218  0.51277  0.07437  1.0000
  C   C12       1.0  0.27968  0.51710  0.02087  1.0000
  H   H18       1.0  0.51053  0.49258  0.50944  1.0000
  C   C13       1.0  0.27633  0.51674  0.50838  1.0000
  Fe  Fe4       1.0  0.46969  0.39976  0.46400  1.0000
  H   H19       1.0  0.49401  0.20103  0.49432  1.0000
  S   S6        1.0  0.42846  0.39918  0.46227  1.0000
  C   C14       1.0  0.47317  0.30374  0.50480  1.0000
  C   C15       1.0  0.48749  0.24901  0.47205  1.0000
  S   S7        1.0  0.51885  0.38907  0.35656  1.0000
  S   S8        1.0  0.48401  0.37363  0.45030  1.0000
  S   S9        1.0  0.48204  0.38932  0.48747  1.0000
  C   C16       1.0  0.46368  0.44408  0.50065  1.0000
  C   C17       1.0  0.46004  0.20997  0.49492  1.0000
  H   H20       1.0  0.22582  0.51588  0.45472  1.0000
  Fe  Fe5       1.0  0.52105  0.42687  0.48298  1.0000
  C   C18       1.0  0.45022  0.47869  0.50404  1.0000
  C   C19       1.0  0.23589  0.50469  0.45954  1.0000
  H   H21       1.0  0.46345  0.49813  0.46730  1.0000
  S   S10       1.0  0.41854  0.50683  0.47597  1.0000
  H   H22       1.0  0.20746  0.48713  0.47858  1.0000
  N   N1        1.0  0.46299  0.24572  0.47757  1.0000
  H   H23       1.0  0.46648  0.28164  0.46599  1.0000
  C   C20       1.0  0.43680  0.42401  0.50224  1.0000
  Fe  Fe6       1.0  0.50029  0.36733  0.47365  1.0000
  C   C21       1.0  0.22758  0.45766  0.49345  1.0000
  H   H24       1.0  0.36090  0.49681  0.34266  1.0000
  H   H25       1.0  0.44935  0.19529  0.50416  1.0000
  S   S11       1.0  0.33994  0.49750  0.46845  1.0000
  N   N2        1.0  0.23876  0.47491  0.47944  1.0000
  C   C22       1.0  0.51469  0.39937  0.40385  1.0000
  C   C23       1.0  0.42535  0.42964  0.46362  1.0000
  C   C24       1.0  0.39955  0.42834  0.46530  1.0000
  C   C25       1.0  0.39677  0.45208  0.46801  1.0000
  C   C26       1.0  0.41986  0.47733  0.46902  1.0000
  C   C27       1.0  0.44549  0.47870  0.46659  1.0000
  C   C28       1.0  0.44823  0.45506  0.46392  1.0000
  H   H26       1.0  0.38169  0.40879  0.46498  1.0000
  H   H27       1.0  0.37692  0.45069  0.46996  1.0000
  H   H28       1.0  0.27244  0.46634  0.47772  1.0000
  H   H29       1.0  0.46813  0.45654  0.46243  1.0000
  H   H30       1.0  0.39536  0.41634  0.50528  1.0000
  H   H31       1.0  0.49986  0.51188  0.49627  1.0000
  H   H32       1.0  0.49920  0.39703  0.41234  1.0000
  C   C29       1.0  0.45080  0.26214  0.47099  1.0000
  C   C30       1.0  0.37288  0.50697  0.33230  1.0000
  H   H33       1.0  0.49859  0.26457  0.46332  1.0000
  C   C31       1.0  0.27242  0.49260  0.45895  1.0000
  H   H34       1.0  0.49905  0.29661  0.34266  1.0000
  H   H35       1.0  0.48670  0.38408  0.38424  1.0000
  C   C32       1.0  0.42314  0.45915  0.50578  1.0000
  C   C33       1.0  0.49679  0.30902  0.49643  1.0000
  C   C34       1.0  0.26180  0.47672  0.47253  1.0000
  C   C35       1.0  0.50768  0.39223  0.38792  1.0000
  H   H36       1.0  0.29071  0.49412  0.45349  1.0000
  H   H37       1.0  0.21398  0.43647  0.48982  1.0000
  C   C36       1.0  0.22557  0.48831  0.47300  1.0000
  H   H38       1.0  0.21606  0.46524  0.50093  1.0000
  H   H39       1.0  0.40736  0.46540  0.50706  1.0000
  H   H40       1.0  0.43609  0.25071  0.46155  1.0000
  C   C37       1.0  0.51676  0.31704  0.34176  1.0000
  C   C38       1.0  0.25951  0.50682  0.45251  1.0000
  H   H41       1.0  0.34532  0.50021  0.28743  1.0000
  C   C39       1.0  0.44920  0.22640  0.48879  1.0000
  C   C40       1.0  0.51080  0.29410  0.50009  1.0000
  H   H42       1.0  0.46206  0.31496  0.50202  1.0000
  C   C41       1.0  0.48512  0.21334  0.48949  1.0000
  S   S12       1.0  0.50803  0.43849  0.46032  1.0000
  H   H43       1.0  0.44021  0.26762  0.48037  1.0000
  H   H44       1.0  0.51150  0.33878  0.36875  1.0000
  S   S13       1.0  0.50785  0.33133  0.47995  1.0000
  H   H45       1.0  0.43005  0.22410  0.49342  1.0000
  N   N3        1.0  0.47000  0.47100  0.50123  1.0000
  C   C42       1.0  0.50088  0.27339  0.51159  1.0000
  H   H46       1.0  0.33828  0.49615  0.31725  1.0000
  H   H47       1.0  0.51922  0.36922  0.50615  1.0000
  C   C43       1.0  0.49822  0.49148  0.49881  1.0000
  C   C44       1.0  0.49900  0.23299  0.47801  1.0000
  C   C45       1.0  0.36024  0.50677  0.31793  1.0000
  H   H48       1.0  0.24414  0.45789  0.50103  1.0000
  S   S14       1.0  0.30129  0.50523  0.50652  1.0000
  H   H49       1.0  0.51874  0.23598  0.47398  1.0000
  H   H50       1.0  0.50708  0.48591  0.48851  1.0000
  H   H51       1.0  0.43170  0.40274  0.50083  1.0000
  H   H52       1.0  0.45497  0.49999  0.50408  1.0000
  H   H53       1.0  0.47937  0.43810  0.49838  1.0000
  C   C46       1.0  0.41641  0.43165  0.50472  1.0000
  H   H54       1.0  0.50942  0.33256  0.34024  1.0000
  C   C47       1.0  0.50348  0.15976  0.59369  1.0000
  H   H55       1.0  0.37543  0.06240  0.53545  1.0000
  Fe  Fe7       1.0  0.12503  0.50492  0.55077  1.0000
  Fe  Fe8       1.0  0.48153  0.16047  0.55063  1.0000
  H   H56       1.0  0.49152  0.18160  0.74619  1.0000
  S   S15       1.0  0.46303  0.11819  0.56176  1.0000
  Fe  Fe9       1.0  0.48473  0.21497  0.53902  1.0000
  S   S16       1.0  0.46178  0.23879  0.53247  1.0000
  H   H57       1.0  0.17335  0.51118  0.62808  1.0000
  H   H58       1.0  0.02669  0.48481  0.51837  1.0000
  H   H59       1.0  0.49569  0.17749  0.63680  1.0000
  S   S17       1.0  0.47743  0.17617  0.52672  1.0000
  S   S18       1.0  0.48415  0.19732  0.56332  1.0000
  H   H60       1.0  0.50894  0.22823  0.59157  1.0000
  S   S19       1.0  0.08494  0.46771  0.55635  1.0000
  S   S20       1.0  0.52071  0.24049  0.64872  1.0000
  C   C48       1.0  0.51471  0.23483  0.61670  1.0000
  H   H61       1.0  0.22183  0.49678  0.61383  1.0000
  H   H62       1.0  0.49393  0.23069  0.61879  1.0000
  H   H63       1.0  0.22174  0.50557  0.53170  1.0000
  C   C49       1.0  0.05255  0.47752  0.53477  1.0000
  C   C50       1.0  0.05398  0.46044  0.54658  1.0000
  H   H64       1.0  0.07076  0.49530  0.53116  1.0000
  C   C51       1.0  0.50761  0.19941  0.75159  1.0000
  H   H65       1.0  0.45548  0.15870  0.61893  1.0000
  C   C52       1.0  0.43715  0.08789  0.55363  1.0000
  C   C53       1.0  0.43758  0.06313  0.55678  1.0000
  C   C54       1.0  0.41606  0.03827  0.55194  1.0000
  C   C55       1.0  0.39330  0.03779  0.54447  1.0000
  C   C56       1.0  0.39296  0.06255  0.54120  1.0000
  C   C57       1.0  0.41492  0.08752  0.54556  1.0000
  H   H66       1.0  0.45465  0.06321  0.56305  1.0000
  C   C58       1.0  0.47796  0.15528  0.59908  1.0000
  H   H67       1.0  0.51149  0.26156  0.51386  1.0000
  H   H68       1.0  0.41413  0.10638  0.54326  1.0000
  C   C59       1.0  0.46303  0.28270  0.51621  1.0000
  C   C60       1.0  0.21819  0.51487  0.61400  1.0000
  C   C61       1.0  0.49754  0.17192  0.62473  1.0000
  H   H69       1.0  0.51818  0.32302  0.65983  1.0000
  H   H70       1.0  0.03100  0.42391  0.56014  1.0000
  H   H71       1.0  0.03472  0.47300  0.58101  1.0000
  H   H72       1.0  0.46066  0.14712  0.59111  1.0000
  C   C62       1.0  0.47665  0.26717  0.51950  1.0000
  C   C63       1.0  0.25812  0.50749  0.52117  1.0000
  C   C64       1.0  0.47506  0.16159  0.61468  1.0000
  S   S21       1.0  0.16603  0.50540  0.55293  1.0000
  C   C65       1.0  0.03007  0.43733  0.55108  1.0000
  H   H73       1.0  0.50556  0.15484  0.58155  1.0000
  C   C66       1.0  0.23601  0.51345  0.52201  1.0000
  H   H74       1.0  0.26071  0.49506  0.53027  1.0000
  H   H75       1.0  0.19976  0.51037  0.60682  1.0000
  H   H76       1.0  0.44424  0.27803  0.52228  1.0000
  C   C67       1.0  0.02751  0.47153  0.52755  1.0000
  H   H77       1.0  0.51929  0.29114  0.66282  1.0000
  H   H78       1.0  0.02533  0.49682  0.55875  1.0000
  H   H79       1.0  0.52181  0.39719  0.51769  1.0000
  H   H80       1.0  0.38489  0.02490  0.58152  1.0000
  H   H81       1.0  0.41679  0.01946  0.55433  1.0000
  C   C68       1.0  0.46711  0.08617  0.93486  1.0000
  H   H82       1.0  0.22370  0.50400  0.99814  1.0000
  H   H83       1.0  0.50216  0.06521  0.95949  1.0000
  H   H84       1.0  0.44617  0.42509  0.98808  1.0000
  C   C69       1.0  0.48636  0.06375  0.95140  1.0000
  H   H85       1.0  0.03718  0.43709  0.99570  1.0000
  S   S22       1.0  0.09118  0.47367  0.98548  1.0000
  C   C70       1.0  0.44676  0.34134  0.00048  1.0000
  S   S23       1.0  0.47359  0.18516  0.95899  1.0000
  H   H86       1.0  0.50451  0.10724  0.94779  1.0000
  H   H87       1.0  0.47901  0.35977  0.98347  1.0000
  H   H88       1.0  0.46761  0.10465  0.93010  1.0000
  Fe  Fe10      1.0  0.49662  0.16589  0.97117  1.0000
  S   S24       1.0  0.48512  0.12300  0.97993  1.0000
  Fe  Fe11      1.0  0.49546  0.22086  0.97539  1.0000
  C   C71       1.0  0.42814  0.37033  0.00985  1.0000
  H   H89       1.0  0.04182  0.42061  0.95812  1.0000
  C   C72       1.0  0.49008  0.27622  0.99384  1.0000
  H   H90       1.0  0.07437  0.49855  0.96000  1.0000
  C   C73       1.0  0.09457  0.47040  0.92619  1.0000
  H   H91       1.0  0.13742  0.49178  0.92108  1.0000
  C   C74       1.0  0.06093  0.41872  0.95817  1.0000
  H   H92       1.0  0.51251  0.27220  0.77563  1.0000
  H   H93       1.0  0.42824  0.05966  0.92459  1.0000
  H   H94       1.0  0.42382  0.02506  0.98136  1.0000
  Fe  Fe12      1.0  0.51087  0.20611  0.94359  1.0000
  C   C75       1.0  0.05898  0.46868  0.97862  1.0000
  H   H95       1.0  0.47815  0.40402  0.98378  1.0000
  C   C76       1.0  0.05641  0.48296  0.96558  1.0000
  C   C77       1.0  0.51943  0.32296  0.98603  1.0000
  C   C78       1.0  0.47481  0.22928  0.88935  1.0000
  H   H96       1.0  0.48901  0.19037  0.77459  1.0000
  C   C79       1.0  0.07476  0.45147  0.93619  1.0000
  C   C80       1.0  0.40756  0.04587  0.96662  1.0000
  C   C81       1.0  0.42681  0.04452  0.97682  1.0000
  C   C82       1.0  0.45001  0.06844  0.98118  1.0000
  C   C83       1.0  0.45426  0.09392  0.97537  1.0000
  C   C84       1.0  0.43465  0.09538  0.96552  1.0000
  C   C85       1.0  0.41135  0.07144  0.96123  1.0000
  H   H97       1.0  0.15024  0.47156  0.94375  1.0000
  H   H98       1.0  0.46491  0.06712  0.98894  1.0000
  H   H99       1.0  0.43758  0.11487  0.96104  1.0000
  H   H100      1.0  0.39644  0.07270  0.95344  1.0000
  C   C86       1.0  0.46374  0.38741  0.99097  1.0000
  C   C87       1.0  0.44509  0.06098  0.93173  1.0000
  N   N4        1.0  0.46471  0.03911  0.94823  1.0000
  C   C88       1.0  0.44419  0.03754  0.93858  1.0000
  N   N5        1.0  0.08199  0.44010  0.94858  1.0000
  C   C89       1.0  0.51143  0.33268  0.99930  1.0000
  H   H101      1.0  0.42708  0.41635  0.00615  1.0000
  N   N6        1.0  0.44549  0.39097  0.00026  1.0000
  C   C90       1.0  0.12902  0.46593  0.94156  1.0000
  C   C91       1.0  0.48651  0.24976  0.90060  1.0000
  C   C92       1.0  0.50236  0.26092  0.86923  1.0000
  H   H102      1.0  0.46054  0.20887  0.89305  1.0000
  C   C93       1.0  0.03053  0.47659  0.95947  1.0000
  C   C94       1.0  0.46440  0.36248  0.99078  1.0000
  C   C95       1.0  0.49264  0.31404  0.00983  1.0000
  S   S25       1.0  0.47621  0.24073  0.99092  1.0000
  C   C96       1.0  0.12182  0.47742  0.92884  1.0000
  C   C97       1.0  0.10872  0.44726  0.95142  1.0000
  C   C98       1.0  0.48263  0.23487  0.87354  1.0000
  H   H103      1.0  0.05664  0.39843  0.95355  1.0000
  H   H104      1.0  0.11448  0.43863  0.96141  1.0000
  C   C99       1.0  0.50912  0.29487  0.98342  1.0000
  H   H105      1.0  0.02878  0.48754  0.94925  1.0000
  H   H106      1.0  0.51841  0.30598  0.78124  1.0000
  C   C100      1.0  0.48790  0.08762  0.94475  1.0000
  H   H107      1.0  0.51523  0.19886  0.88399  1.0000
  C   C101      1.0  0.03538  0.44836  0.98566  1.0000
  H   H108      1.0  0.08883  0.47946  0.91641  1.0000
  C   C102      1.0  0.48173  0.28594  0.00698  1.0000
  H   H109      1.0  0.46337  0.43234  0.00704  1.0000
  H   H110      1.0  0.06748  0.42020  0.97074  1.0000
  C   C103      1.0  0.44550  0.41745  0.00032  1.0000
  H   H111      1.0  0.05357  0.44596  0.93402  1.0000
  S   S26       1.0  0.16907  0.50364  0.97506  1.0000
  H   H112      1.0  0.47417  0.21887  0.86479  1.0000
  S   S27       1.0  0.51507  0.19952  0.98891  1.0000
  H   H113      1.0  0.51560  0.28766  0.97323  1.0000
  C   C104      1.0  0.50616  0.27556  0.89588  1.0000
  C   C105      1.0  0.50625  0.20430  0.76769  1.0000
  H   H114      1.0  0.48132  0.24520  0.91300  1.0000
  Fe  Fe13      1.0  0.13132  0.50905  0.97812  1.0000
  S   S28       1.0  0.50593  0.20355  0.91686  1.0000
  C   C106      1.0  0.42859  0.34529  0.01016  1.0000
  H   H115      1.0  0.25481  0.48444  0.00524  1.0000
  H   H116      1.0  0.44746  0.32208  0.00064  1.0000
  H   H117      1.0  0.50894  0.26485  0.85701  1.0000
  C   C107      1.0  0.24027  0.51455  0.00631  1.0000
  H   H118      1.0  0.51576  0.29111  0.90478  1.0000
  C   C108      1.0  0.25796  0.50355  0.01033  1.0000
  N   N7        1.0  0.51397  0.28079  0.88039  1.0000
  S   S29       1.0  0.48523  0.92927  0.03681  1.0000
  Fe  Fe14      1.0  0.18944  0.76928  0.02352  1.0000
  S   S30       1.0  0.21880  0.76040  0.03736  1.0000
  S   S31       1.0  0.21263  0.69044  0.02349  1.0000
  Fe  Fe15      1.0  0.14010  0.71802  0.03647  1.0000
  S   S32       1.0  0.16708  0.70687  0.05166  1.0000
  S   S33       1.0  0.09737  0.68307  0.03370  1.0000
  Fe  Fe16      1.0  0.18949  0.75119  0.05742  1.0000
  S   S34       1.0  0.21148  0.77226  0.07973  1.0000
  Fe  Fe17      1.0  0.19357  0.71717  0.03020  1.0000
  H   H119      1.0  0.29957  0.55203  0.03584  1.0000
  S   S35       1.0  0.16073  0.76218  0.04392  1.0000
  S   S36       1.0  0.43781  0.52501  0.03481  1.0000
  N   N8        1.0  0.14280  0.62523  0.02741  1.0000
  H   H120      1.0  0.22946  0.78334  0.25668  1.0000
  C   C109      1.0  0.32328  0.70308  0.21303  1.0000
  Fe  Fe18      1.0  0.38461  0.56772  0.05850  1.0000
  S   S37       1.0  0.40005  0.59335  0.08054  1.0000
  C   C110      1.0  0.13860  0.60395  0.01774  1.0000
  S   S38       1.0  0.37732  0.53762  0.01620  1.0000
  S   S39       1.0  0.41932  0.57962  0.04165  1.0000
  S   S40       1.0  0.35804  0.57310  0.04015  1.0000
  Fe  Fe19      1.0  0.37070  0.59898  0.16914  1.0000
  S   S41       1.0  0.39199  0.59957  0.19203  1.0000
  S   S42       1.0  0.35681  0.56497  0.15112  1.0000
  Fe  Fe20      1.0  0.36846  0.65146  0.17678  1.0000
  S   S43       1.0  0.38955  0.65694  0.20008  1.0000
  S   S44       1.0  0.35984  0.68438  0.16695  1.0000
  Fe  Fe21      1.0  0.41676  0.64431  0.18697  1.0000
  S   S45       1.0  0.46200  0.66674  0.18930  1.0000
  Fe  Fe22      1.0  0.36305  0.61230  0.20335  1.0000
  S   S46       1.0  0.34041  0.59734  0.22640  1.0000
  S   S47       1.0  0.39800  0.64255  0.16333  1.0000
  S   S48       1.0  0.33931  0.60772  0.18093  1.0000
  Fe  Fe23      1.0  0.26995  0.77435  0.17291  1.0000
  S   S49       1.0  0.26994  0.75527  0.19634  1.0000
  S   S50       1.0  0.30795  0.80995  0.16471  1.0000
  Fe  Fe24      1.0  0.21102  0.73699  0.16630  1.0000
  S   S51       1.0  0.20514  0.71501  0.18953  1.0000
  S   S52       1.0  0.17685  0.72218  0.14853  1.0000
  Fe  Fe25      1.0  0.23047  0.75616  0.20002  1.0000
  S   S53       1.0  0.22380  0.77098  0.22356  1.0000
  Fe  Fe26      1.0  0.24498  0.71594  0.18400  1.0000
  S   S54       1.0  0.24886  0.67814  0.18911  1.0000
  S   S55       1.0  0.23220  0.77834  0.17734  1.0000
  S   S56       1.0  0.24917  0.73480  0.16000  1.0000
  H   H121      1.0  0.45874  0.87911  0.25752  1.0000
  S   S57       1.0  0.45325  0.80251  0.19841  1.0000
  H   H122      1.0  0.28894  0.86452  0.05267  1.0000
  Fe  Fe27      1.0  0.44097  0.81002  0.17435  1.0000
  S   S58       1.0  0.40448  0.78062  0.16104  1.0000
  S   S59       1.0  0.48040  0.81983  0.16261  1.0000
  H   H123      1.0  0.45342  0.80943  0.23275  1.0000
  C   C111      1.0  0.33379  0.80042  0.16453  1.0000
  C   C112      1.0  0.33231  0.78008  0.15428  1.0000
  C   C113      1.0  0.35425  0.77423  0.15313  1.0000
  C   C114      1.0  0.37728  0.78819  0.16252  1.0000
  C   C115      1.0  0.37841  0.80804  0.17305  1.0000
  C   C116      1.0  0.35677  0.81433  0.17395  1.0000
  H   H124      1.0  0.31452  0.76941  0.14695  1.0000
  H   H125      1.0  0.35340  0.75896  0.14491  1.0000
  H   H126      1.0  0.39574  0.81836  0.18066  1.0000
  H   H127      1.0  0.35781  0.82999  0.18193  1.0000
  C   C117      1.0  0.22567  0.75245  0.24006  1.0000
  C   C118      1.0  0.22266  0.72614  0.23829  1.0000
  C   C119      1.0  0.25892  0.82696  0.01489  1.0000
  H   H128      1.0  0.49846  0.77337  0.26001  1.0000
  H   H129      1.0  0.28199  0.54336  0.19096  1.0000
  H   H130      1.0  0.22174  0.71798  0.22659  1.0000
  N   N9        1.0  0.32756  0.53325  0.21310  1.0000
  C   C120      1.0  0.47646  0.70224  0.19122  1.0000
  C   C121      1.0  0.31292  0.53413  0.18170  1.0000
  H   H131      1.0  0.34634  0.52602  0.17610  1.0000
  C   C122      1.0  0.28644  0.84595  0.01352  1.0000
  C   C123      1.0  0.47344  0.74475  0.19108  1.0000
  C   C124      1.0  0.46081  0.71615  0.19029  1.0000
  H   H132      1.0  0.04491  0.63710  0.03313  1.0000
  H   H133      1.0  0.39495  0.60354  0.23112  1.0000
  H   H134      1.0  0.46140  0.75541  0.19005  1.0000
  H   H135      1.0  0.43913  0.70495  0.18860  1.0000
  C   C125      1.0  0.32822  0.68162  0.17231  1.0000
  C   C126      1.0  0.30953  0.65906  0.18075  1.0000
  C   C127      1.0  0.28486  0.65785  0.18557  1.0000
  C   C128      1.0  0.27904  0.67938  0.18214  1.0000
  C   C129      1.0  0.29761  0.70186  0.17357  1.0000
  C   C130      1.0  0.32214  0.70287  0.16861  1.0000
  H   H136      1.0  0.31414  0.64267  0.18374  1.0000
  H   H137      1.0  0.27051  0.64046  0.19223  1.0000
  H   H138      1.0  0.29334  0.71867  0.17100  1.0000
  H   H139      1.0  0.33676  0.72040  0.16226  1.0000
  C   C131      1.0  0.35878  0.59757  0.24352  1.0000
  C   C132      1.0  0.38501  0.60013  0.24249  1.0000
  S   S60       1.0  0.50921  0.86082  0.19246  1.0000
  H   H140      1.0  0.14952  0.59220  0.01970  1.0000
  C   C133      1.0  0.47761  0.93911  0.01842  1.0000
  Fe  Fe28      1.0  0.49388  0.81643  0.18715  1.0000
  C   C134      1.0  0.38653  0.58509  0.09982  1.0000
  C   C135      1.0  0.39932  0.60398  0.11189  1.0000
  C   C136      1.0  0.39020  0.59804  0.12757  1.0000
  C   C137      1.0  0.36822  0.57308  0.13137  1.0000
  C   C138      1.0  0.35548  0.55402  0.11930  1.0000
  C   C139      1.0  0.36451  0.56004  0.10353  1.0000
  H   H141      1.0  0.41656  0.62325  0.10912  1.0000
  H   H142      1.0  0.40058  0.61259  0.13675  1.0000
  C   C140      1.0  0.06480  0.68007  0.03799  1.0000
  C   C141      1.0  0.06085  0.70229  0.04243  1.0000
  C   C142      1.0  0.04208  0.65441  0.03654  1.0000
  H   H143      1.0  0.07811  0.72213  0.04357  1.0000
  H   H144      1.0  0.13204  0.65671  0.03265  1.0000
  C   C143      1.0  0.18609  0.73655  0.12948  1.0000
  C   C144      1.0  0.21131  0.75895  0.12686  1.0000
  C   C145      1.0  0.21868  0.76973  0.11154  1.0000
  C   C146      1.0  0.20116  0.75791  0.09870  1.0000
  C   C147      1.0  0.17604  0.73527  0.10126  1.0000
  C   C148      1.0  0.16843  0.72478  0.11667  1.0000
  H   H145      1.0  0.22502  0.76820  0.13667  1.0000
  H   H146      1.0  0.23809  0.78733  0.10964  1.0000
  H   H147      1.0  0.16233  0.72614  0.09145  1.0000
  H   H148      1.0  0.14884  0.70747  0.11865  1.0000
  H   H149      1.0  0.16334  0.72500  0.21436  1.0000
  C   C149      1.0  0.33705  0.74825  0.20279  1.0000
  C   C150      1.0  0.36218  0.74985  0.19877  1.0000
  H   H150      1.0  0.35449  0.54537  0.09428  1.0000
  C   C151      1.0  0.34182  0.52876  0.20131  1.0000
  N   N10       1.0  0.15697  0.71180  0.25367  1.0000
  S   S61       1.0  0.45097  0.85323  0.17922  1.0000
  C   C152      1.0  0.45645  0.84591  0.24335  1.0000
  S   S62       1.0  0.36882  0.52282  0.05437  1.0000
  H   H151      1.0  0.45881  0.56232  0.06261  1.0000
  C   C153      1.0  0.26547  0.55238  0.02368  1.0000
  H   H152      1.0  0.35909  0.52531  0.20411  1.0000
  C   C154      1.0  0.30602  0.53801  0.20952  1.0000
  N   N11       1.0  0.43100  0.53553  0.07958  1.0000
  H   H153      1.0  0.44958  0.78586  0.25834  1.0000
  H   H154      1.0  0.49617  0.72779  0.15755  1.0000
  N   N12       1.0  0.36742  0.72834  0.20142  1.0000
  C   C155      1.0  0.47320  0.74969  0.15307  1.0000
  C   C156      1.0  0.33523  0.53224  0.22961  1.0000
  C   C157      1.0  0.15338  0.68566  0.25361  1.0000
  C   C158      1.0  0.45651  0.85865  0.25768  1.0000
  S   S63       1.0  0.50599  0.89662  0.15051  1.0000
  H   H155      1.0  0.17147  0.82439  0.05113  1.0000
  C   C159      1.0  0.15328  0.67290  0.23935  1.0000
  S   S64       1.0  0.46149  0.86417  0.22543  1.0000
  H   H156      1.0  0.03149  0.71612  0.04859  1.0000
  N   N13       1.0  0.21339  0.84399  0.04453  1.0000
  C   C160      1.0  0.22021  0.82982  0.05545  1.0000
  C   C161      1.0  0.23315  0.86509  0.03629  1.0000
  C   C162      1.0  0.24743  0.83706  0.05862  1.0000
  C   C163      1.0  0.26060  0.87310  0.03930  1.0000
  C   C164      1.0  0.26773  0.85892  0.05052  1.0000
  H   H157      1.0  0.22776  0.87552  0.02712  1.0000
  H   H158      1.0  0.20461  0.81271  0.06176  1.0000
  C   C165      1.0  0.47737  0.72670  0.15298  1.0000
  C   C166      1.0  0.39817  0.59757  0.25618  1.0000
  H   H159      1.0  0.17951  0.62908  0.03766  1.0000
  H   H160      1.0  0.15146  0.65255  0.23940  1.0000
  H   H161      1.0  0.44493  0.57799  0.07562  1.0000
  H   H162      1.0  0.43750  0.66650  0.02382  1.0000
  C   C167      1.0  0.45126  0.93558  0.01570  1.0000
  N   N14       1.0  0.22486  0.69149  0.12568  1.0000
  C   C168      1.0  0.20012  0.68049  0.13300  1.0000
  C   C169      1.0  0.24546  0.68704  0.13165  1.0000
  C   C170      1.0  0.19555  0.66478  0.14671  1.0000
  C   C171      1.0  0.24142  0.67096  0.14518  1.0000
  C   C172      1.0  0.21633  0.65992  0.15279  1.0000
  C   C173      1.0  0.23000  0.70951  0.11196  1.0000
  H   H163      1.0  0.18386  0.68428  0.12846  1.0000
  H   H164      1.0  0.26529  0.69628  0.12611  1.0000
  H   H165      1.0  0.17619  0.65700  0.15276  1.0000
  H   H166      1.0  0.25782  0.66764  0.15002  1.0000
  H   H167      1.0  0.21320  0.64807  0.16356  1.0000
  H   H168      1.0  0.24159  0.70508  0.10273  1.0000
  H   H169      1.0  0.21081  0.70712  0.10642  1.0000
  H   H170      1.0  0.24167  0.73102  0.11573  1.0000
  C   C174      1.0  0.45136  0.80614  0.25820  1.0000
  H   H171      1.0  0.46977  0.64759  0.02683  1.0000
  H   H172      1.0  0.40942  0.74256  0.20585  1.0000
  H   H173      1.0  0.21774  0.64371  0.01346  1.0000
  H   H174      1.0  0.21466  0.68867  0.25021  1.0000
  H   H175      1.0  0.30768  0.53511  0.16941  1.0000
  H   H176      1.0  0.41830  0.59915  0.25527  1.0000
  H   H177      1.0  0.15068  0.61758  0.05098  1.0000
  C   C175      1.0  0.18476  0.83581  0.04108  1.0000
  H   H178      1.0  0.48891  0.76878  0.15759  1.0000
  C   C176      1.0  0.50170  0.75936  0.19276  1.0000
  H   H179      1.0  0.26839  0.57123  0.02902  1.0000
  S   S65       1.0  0.16610  0.72643  0.01471  1.0000
  H   H180      1.0  0.35254  0.68808  0.21066  1.0000
  H   H181      1.0  0.16888  0.65276  0.04481  1.0000
  H   H182      1.0  0.35738  0.54534  0.23119  1.0000
  C   C177      1.0  0.34851  0.70527  0.20866  1.0000
  Fe  Fe29      1.0  0.40246  0.53509  0.03643  1.0000
  C   C178      1.0  0.24391  0.53903  0.01305  1.0000
  H   H183      1.0  0.47007  0.56850  0.08302  1.0000
  H   H184      1.0  0.39310  0.71036  0.19573  1.0000
  H   H185      1.0  0.40004  0.74055  0.18512  1.0000
  C   C179      1.0  0.34612  0.59313  0.25835  1.0000
  C   C180      1.0  0.45848  0.67845  0.02018  1.0000
  C   C181      1.0  0.45688  0.70208  0.14754  1.0000
  C   C182      1.0  0.21867  0.70957  0.25166  1.0000
  H   H186      1.0  0.30792  0.68441  0.21824  1.0000
  C   C183      1.0  0.15978  0.71346  0.22529  1.0000
  C   C184      1.0  0.33469  0.52905  0.18547  1.0000
  H   H187      1.0  0.18147  0.85384  0.03878  1.0000
  N   N15       1.0  0.41897  0.85532  0.13859  1.0000
  C   C185      1.0  0.39183  0.84107  0.13538  1.0000
  C   C186      1.0  0.42860  0.87811  0.14778  1.0000
  C   C187      1.0  0.37364  0.84999  0.14105  1.0000
  C   C188      1.0  0.41089  0.88726  0.15394  1.0000
  C   C189      1.0  0.38322  0.87304  0.15054  1.0000
  C   C190      1.0  0.43761  0.84517  0.13303  1.0000
  H   H188      1.0  0.38399  0.82241  0.12863  1.0000
  H   H189      1.0  0.45008  0.88914  0.15058  1.0000
  H   H190      1.0  0.35205  0.83850  0.13866  1.0000
  H   H191      1.0  0.41855  0.90505  0.16146  1.0000
  H   H192      1.0  0.36907  0.87949  0.15547  1.0000
  H   H193      1.0  0.43036  0.83366  0.12184  1.0000
  H   H194      1.0  0.45807  0.86221  0.13063  1.0000
  H   H195      1.0  0.43953  0.83167  0.14216  1.0000
  N   N16       1.0  0.50299  0.68213  0.01657  1.0000
  H   H196      1.0  0.29509  0.54224  0.21883  1.0000
  H   H197      1.0  0.25262  0.82552  0.06721  1.0000
  H   H198      1.0  0.40563  0.73363  0.12604  1.0000
  C   C191      1.0  0.45352  0.81945  0.24367  1.0000
  H   H199      1.0  0.51146  0.64829  0.01753  1.0000
  H   H200      1.0  0.41028  0.55131  0.09409  1.0000
  H   H201      1.0  0.33264  0.76502  0.20010  1.0000
  C   C192      1.0  0.15661  0.68699  0.22512  1.0000
  H   H202      1.0  0.39417  0.73026  0.14632  1.0000
  H   H203      1.0  0.43155  0.86957  0.01721  1.0000
  H   H204      1.0  0.37739  0.76822  0.19330  1.0000
  C   C193      1.0  0.28336  0.54163  0.02748  1.0000
  H   H205      1.0  0.25301  0.81020  0.02305  1.0000
  C   C194      1.0  0.31747  0.72465  0.20995  1.0000
  C   C195      1.0  0.39387  0.73063  0.19691  1.0000
  Fe  Fe30      1.0  0.49149  0.86285  0.16879  1.0000
  H   H206      1.0  0.29757  0.72274  0.21274  1.0000
  C   C196      1.0  0.16125  0.63134  0.04094  1.0000
  H   H207      1.0  0.47851  0.87625  0.01975  1.0000
  C   C197      1.0  0.45234  0.56244  0.07504  1.0000
  Fe  Fe31      1.0  0.46739  0.84694  0.20239  1.0000
  H   H208      1.0  0.38688  0.70056  0.13518  1.0000
  C   C198      1.0  0.03438  0.69881  0.04525  1.0000
  Fe  Fe32      1.0  0.39142  0.58089  0.02306  1.0000
  C   C199      1.0  0.15976  0.72558  0.23975  1.0000
  Fe  Fe33      1.0  0.34476  0.52936  0.03435  1.0000
  H   H209      1.0  0.32486  0.54011  0.23780  1.0000
  H   H210      1.0  0.17833  0.82257  0.03047  1.0000
  N   N17       1.0  0.42831  0.72335  0.14261  1.0000
  C   C200      1.0  0.44830  0.74758  0.14792  1.0000
  C   C201      1.0  0.43248  0.70087  0.14211  1.0000
  H   H211      1.0  0.43653  0.92849  0.02518  1.0000
  H   H212      1.0  0.45970  0.68393  0.14784  1.0000
  H   H213      1.0  0.30141  0.84354  0.02068  1.0000
  C   C202      1.0  0.40255  0.72188  0.13716  1.0000
  H   H214      1.0  0.44489  0.76533  0.14831  1.0000
  H   H215      1.0  0.41675  0.68173  0.13774  1.0000
  N   N18       1.0  0.51476  0.81603  0.25582  1.0000
  H   H216      1.0  0.15737  0.67768  0.21400  1.0000
  C   C203      1.0  0.29850  0.53870  0.19378  1.0000
  H   H217      1.0  0.27624  0.88956  0.03255  1.0000
  H   H218      1.0  0.51792  0.79581  0.23504  1.0000
  C   C204      1.0  0.12910  0.64010  0.02488  1.0000
  H   H219      1.0  0.33846  0.53465  0.12215  1.0000
  C   C205      1.0  0.52206  0.67080  0.01856  1.0000
  C   C206      1.0  0.41067  0.53329  0.08951  1.0000
  H   H220      1.0  0.16326  0.74653  0.23976  1.0000
  C   C207      1.0  0.22704  0.76294  0.25528  1.0000
  C   C208      1.0  0.47684  0.66777  0.02178  1.0000
  H   H221      1.0  0.52097  0.87970  0.25694  1.0000
  C   C209      1.0  0.50457  0.71694  0.19311  1.0000
  H   H222      1.0  0.32580  0.59108  0.25922  1.0000
  H   H223      1.0  0.50937  0.92220  0.12041  1.0000
  C   C210      1.0  0.51649  0.83956  0.26201  1.0000
  C   C211      1.0  0.51650  0.90717  0.11888  1.0000
  C   C212      1.0  0.52098  0.86159  0.25214  1.0000
  C   C213      1.0  0.46712  0.70408  0.01335  1.0000
  C   C214      1.0  0.51876  0.81422  0.24000  1.0000
  C   C215      1.0  0.51645  0.89107  0.13178  1.0000
  C   C216      1.0  0.51711  0.74534  0.19392  1.0000
  H   H224      1.0  0.51675  0.70631  0.19382  1.0000
  S   S66       1.0  0.51869  0.79511  0.19293  1.0000
  S   S67       1.0  0.39325  0.55421  0.45697  1.0000
  S   S68       1.0  0.34055  0.55713  0.47263  1.0000
  H   H225      1.0  0.31098  0.77886  0.28005  1.0000
  C   C217      1.0  0.40295  0.53487  0.30616  1.0000
  Fe  Fe34      1.0  0.38486  0.57392  0.47779  1.0000
  S   S69       1.0  0.40861  0.61823  0.48375  1.0000
  Fe  Fe35      1.0  0.19133  0.74253  0.44845  1.0000
  S   S70       1.0  0.16020  0.75388  0.45798  1.0000
  S   S71       1.0  0.20964  0.75974  0.42456  1.0000
  Fe  Fe36      1.0  0.19370  0.71538  0.47963  1.0000
  S   S72       1.0  0.16361  0.72570  0.49163  1.0000
  S   S73       1.0  0.21329  0.69166  0.49088  1.0000
  Fe  Fe37      1.0  0.14003  0.71196  0.46880  1.0000
  S   S74       1.0  0.09735  0.67640  0.46736  1.0000
  Fe  Fe38      1.0  0.18675  0.76657  0.47979  1.0000
  S   S75       1.0  0.20116  0.80939  0.48912  1.0000
  S   S76       1.0  0.16946  0.69975  0.45741  1.0000
  S   S77       1.0  0.21862  0.75718  0.46962  1.0000
  H   H226      1.0  0.39161  0.66796  0.28866  1.0000
  Fe  Fe39      1.0  0.37529  0.57358  0.34629  1.0000
  S   S78       1.0  0.41317  0.60051  0.33301  1.0000
  S   S79       1.0  0.38021  0.54541  0.36395  1.0000
  Fe  Fe40      1.0  0.34340  0.59895  0.33048  1.0000
  S   S80       1.0  0.37882  0.62845  0.31631  1.0000
  S   S81       1.0  0.30305  0.59865  0.32769  1.0000
  Fe  Fe41      1.0  0.38647  0.59298  0.31173  1.0000
  S   S82       1.0  0.40192  0.58857  0.28780  1.0000
  Fe  Fe42      1.0  0.40224  0.63354  0.33871  1.0000
  S   S83       1.0  0.43558  0.67314  0.34707  1.0000
  S   S84       1.0  0.34925  0.56250  0.32436  1.0000
  S   S85       1.0  0.36614  0.60736  0.35348  1.0000
  Fe  Fe43      1.0  0.25975  0.76590  0.32461  1.0000
  S   S86       1.0  0.27090  0.74661  0.30473  1.0000
  S   S87       1.0  0.27487  0.81098  0.32423  1.0000
  Fe  Fe44      1.0  0.22763  0.71302  0.34208  1.0000
  S   S88       1.0  0.23563  0.68873  0.32349  1.0000
  S   S89       1.0  0.20445  0.69083  0.36397  1.0000
  Fe  Fe45      1.0  0.27813  0.72233  0.32360  1.0000
  S   S90       1.0  0.31638  0.71800  0.32239  1.0000
  Fe  Fe46      1.0  0.22770  0.71478  0.30593  1.0000
  S   S91       1.0  0.20682  0.69682  0.28291  1.0000
  S   S92       1.0  0.27106  0.74467  0.34362  1.0000
  S   S93       1.0  0.21540  0.73601  0.32441  1.0000
  S   S94       1.0  0.46515  0.86396  0.32222  1.0000
  Fe  Fe47      1.0  0.42052  0.79734  0.34494  1.0000
  S   S95       1.0  0.40715  0.80786  0.32205  1.0000
  S   S96       1.0  0.39202  0.75844  0.35702  1.0000
  Fe  Fe48      1.0  0.42327  0.84960  0.33208  1.0000
  S   S97       1.0  0.40239  0.87587  0.33019  1.0000
  S   S98       1.0  0.43261  0.83800  0.35581  1.0000
  H   H227      1.0  0.50500  0.95193  0.35720  1.0000
  C   C218      1.0  0.31012  0.82864  0.32694  1.0000
  C   C219      1.0  0.32315  0.85706  0.32640  1.0000
  C   C220      1.0  0.35147  0.87145  0.32777  1.0000
  C   C221      1.0  0.36683  0.85748  0.32978  1.0000
  C   C222      1.0  0.35374  0.82908  0.33068  1.0000
  C   C223      1.0  0.32545  0.81465  0.32906  1.0000
  H   H228      1.0  0.31135  0.86794  0.32479  1.0000
  H   H229      1.0  0.36146  0.89342  0.32712  1.0000
  H   H230      1.0  0.36528  0.81812  0.33256  1.0000
  H   H231      1.0  0.31558  0.79271  0.32939  1.0000
  N   N19       1.0  0.31667  0.85570  0.49493  1.0000
  H   H232      1.0  0.32997  0.71994  0.35577  1.0000
  H   H233      1.0  0.22376  0.75443  0.28037  1.0000
  C   C224      1.0  0.42350  0.69624  0.35205  1.0000
  C   C225      1.0  0.39566  0.68770  0.35337  1.0000
  C   C226      1.0  0.38612  0.70678  0.35598  1.0000
  C   C227      1.0  0.40436  0.73447  0.35672  1.0000
  C   C228      1.0  0.43225  0.74281  0.35627  1.0000
  C   C229      1.0  0.44184  0.72367  0.35405  1.0000
  H   H234      1.0  0.38146  0.66646  0.35219  1.0000
  H   H235      1.0  0.36455  0.70017  0.35679  1.0000
  H   H236      1.0  0.44645  0.76398  0.35772  1.0000
  H   H237      1.0  0.46344  0.73026  0.35340  1.0000
  C   C230      1.0  0.30667  0.63171  0.32560  1.0000
  C   C231      1.0  0.33184  0.65417  0.32816  1.0000
  C   C232      1.0  0.33467  0.68053  0.32668  1.0000
  C   C233      1.0  0.31234  0.68464  0.32280  1.0000
  C   C234      1.0  0.28719  0.66222  0.31995  1.0000
  C   C235      1.0  0.28433  0.63576  0.32144  1.0000
  H   H238      1.0  0.34900  0.65124  0.33162  1.0000
  H   H239      1.0  0.35408  0.69772  0.32896  1.0000
  H   H240      1.0  0.26996  0.66515  0.31657  1.0000
  H   H241      1.0  0.26483  0.61842  0.31933  1.0000
  C   C236      1.0  0.48200  0.92332  0.50554  1.0000
  C   C237      1.0  0.34910  0.84397  0.29047  1.0000
  H   H242      1.0  0.46839  0.84216  0.38103  1.0000
  H   H243      1.0  0.46315  0.84615  0.40977  1.0000
  S   S99       1.0  0.51181  0.87472  0.35929  1.0000
  C   C238      1.0  0.47015  0.92072  0.49061  1.0000
  C   C239      1.0  0.44510  0.92104  0.48906  1.0000
  C   C240      1.0  0.21846  0.71953  0.26683  1.0000
  C   C241      1.0  0.47870  0.91526  0.38554  1.0000
  H   H244      1.0  0.48026  0.91849  0.48026  1.0000
  H   H245      1.0  0.43606  0.91914  0.47748  1.0000
  C   C242      1.0  0.11817  0.60092  0.49067  1.0000
  C   C243      1.0  0.20972  0.73999  0.40833  1.0000
  C   C244      1.0  0.19650  0.71159  0.40886  1.0000
  C   C245      1.0  0.19531  0.69666  0.39522  1.0000
  C   C246      1.0  0.20728  0.71003  0.38103  1.0000
  C   C247      1.0  0.22087  0.73840  0.38059  1.0000
  C   C248      1.0  0.22211  0.75330  0.39422  1.0000
  H   H246      1.0  0.18688  0.70120  0.41969  1.0000
  H   H247      1.0  0.18483  0.67468  0.39561  1.0000
  H   H248      1.0  0.23012  0.74888  0.36971  1.0000
  H   H249      1.0  0.23228  0.77529  0.39374  1.0000
  H   H250      1.0  0.50402  0.78337  0.48212  1.0000
  C   C249      1.0  0.50896  0.87503  0.38008  1.0000
  C   C250      1.0  0.24091  0.85217  0.50518  1.0000
  Fe  Fe49      1.0  0.34820  0.53409  0.45325  1.0000
  H   H251      1.0  0.28370  0.80073  0.29006  1.0000
  H   H252      1.0  0.49116  0.60688  0.48636  1.0000
  S   S100      1.0  0.40088  0.92506  0.50014  1.0000
  C   C251      1.0  0.51402  0.79803  0.47275  1.0000
  H   H253      1.0  0.29924  0.83651  0.29251  1.0000
  C   C252      1.0  0.32879  0.79742  0.28329  1.0000
  C   C253      1.0  0.36479  0.54220  0.38253  1.0000
  H   H254      1.0  0.09859  0.59678  0.49555  1.0000
  H   H255      1.0  0.33519  0.83283  0.50488  1.0000
  C   C254      1.0  0.44338  0.62930  0.48687  1.0000
  C   C255      1.0  0.45498  0.61196  0.48429  1.0000
  H   H256      1.0  0.43806  0.54771  0.32134  1.0000
  H   H257      1.0  0.34120  0.89866  0.49345  1.0000
  C   C256      1.0  0.45925  0.65525  0.49309  1.0000
  H   H258      1.0  0.44283  0.59189  0.47949  1.0000
  C   C257      1.0  0.30885  0.75405  0.38072  1.0000
  N   N20       1.0  0.29120  0.70316  0.36708  1.0000
  H   H259      1.0  0.25364  0.69225  0.37891  1.0000
  C   C258      1.0  0.04169  0.65050  0.46638  1.0000
  C   C259      1.0  0.31667  0.72339  0.36383  1.0000
  C   C260      1.0  0.45544  0.90190  0.39485  1.0000
  C   C261      1.0  0.25042  0.53844  0.49745  1.0000
  H   H260      1.0  0.13600  0.72094  0.27168  1.0000
  H   H261      1.0  0.34957  0.58779  0.28345  1.0000
  H   H262      1.0  0.34601  0.76509  0.36782  1.0000
  Fe  Fe50      1.0  0.44963  0.82088  0.31390  1.0000
  C   C262      1.0  0.48639  0.66351  0.49726  1.0000
  H   H263      1.0  0.34738  0.86222  0.29321  1.0000
  C   C263      1.0  0.19347  0.66710  0.50492  1.0000
  H   H264      1.0  0.39681  0.82170  0.28850  1.0000
  C   C264      1.0  0.06208  0.69950  0.46517  1.0000
  C   C265      1.0  0.06507  0.67581  0.46632  1.0000
  H   H265      1.0  0.39235  0.86328  0.29470  1.0000
  H   H266      1.0  0.07985  0.71912  0.46514  1.0000
  C   C266      1.0  0.50116  0.93082  0.35982  1.0000
  C   C267      1.0  0.45460  0.84543  0.27224  1.0000
  H   H267      1.0  0.41175  0.88002  0.39469  1.0000
  H   H268      1.0  0.26996  0.67656  0.34845  1.0000
  C   C268      1.0  0.20237  0.64885  0.51081  1.0000
  C   C269      1.0  0.52147  0.98872  0.50669  1.0000
  C   C270      1.0  0.27620  0.83688  0.47904  1.0000
  C   C271      1.0  0.35401  0.79744  0.28400  1.0000
  H   H269      1.0  0.31566  0.77399  0.38590  1.0000
  C   C272      1.0  0.13183  0.62327  0.48070  1.0000
  H   H270      1.0  0.25749  0.81950  0.47543  1.0000
  H   H271      1.0  0.45557  0.85579  0.28321  1.0000
  C   C273      1.0  0.33317  0.54836  0.39973  1.0000
  C   C274      1.0  0.48230  0.62043  0.48822  1.0000
  H   H272      1.0  0.24736  0.55015  0.48808  1.0000
  H   H273      1.0  0.41492  0.54635  0.29611  1.0000
  C   C275      1.0  0.03592  0.69777  0.46411  1.0000
  C   C276      1.0  0.40103  0.52160  0.33352  1.0000
  S   S101      1.0  0.46214  0.80727  0.33619  1.0000
  H   H274      1.0  0.18732  0.57837  0.48757  1.0000
  H   H275      1.0  0.03381  0.71620  0.46324  1.0000
  H   H276      1.0  0.16496  0.71694  0.27847  1.0000
  H   H277      1.0  0.26927  0.73709  0.39155  1.0000
  C   C277      1.0  0.38549  0.59313  0.27100  1.0000
  C   C278      1.0  0.28286  0.73336  0.38390  1.0000
  N   N21       1.0  0.12666  0.71144  0.41424  1.0000
  C   C279      1.0  0.12492  0.69434  0.40218  1.0000
  C   C280      1.0  0.14289  0.73884  0.41279  1.0000
  C   C281      1.0  0.13916  0.70463  0.38806  1.0000
  C   C282      1.0  0.15724  0.74983  0.39880  1.0000
  C   C283      1.0  0.15531  0.73258  0.38637  1.0000
  C   C284      1.0  0.11211  0.69997  0.42904  1.0000
  H   H278      1.0  0.11281  0.67255  0.40355  1.0000
  H   H279      1.0  0.14544  0.75235  0.42259  1.0000
  H   H280      1.0  0.13845  0.69103  0.37868  1.0000
  H   H281      1.0  0.17086  0.77143  0.39794  1.0000
  H   H282      1.0  0.16719  0.74075  0.37570  1.0000
  H   H283      1.0  0.09086  0.68453  0.42671  1.0000
  H   H284      1.0  0.12249  0.69018  0.43580  1.0000
  H   H285      1.0  0.11106  0.71570  0.43671  1.0000
  C   C285      1.0  0.28129  0.67672  0.35934  1.0000
  C   C286      1.0  0.51173  0.99844  0.48026  1.0000
  H   H286      1.0  0.15414  0.55140  0.49168  1.0000
  S   S102      1.0  0.51452  0.92565  0.50765  1.0000
  C   C287      1.0  0.42995  0.89076  0.38765  1.0000
  H   H287      1.0  0.18961  0.61771  0.47549  1.0000
  N   N22       1.0  0.39447  0.61116  0.41011  1.0000
  C   C288      1.0  0.39404  0.63186  0.40140  1.0000
  C   C289      1.0  0.40772  0.59731  0.40458  1.0000
  C   C290      1.0  0.40705  0.63912  0.38671  1.0000
  C   C291      1.0  0.42048  0.60369  0.38981  1.0000
  C   C292      1.0  0.42021  0.62480  0.38088  1.0000
  C   C293      1.0  0.38057  0.60398  0.42544  1.0000
  H   H288      1.0  0.38351  0.64282  0.40577  1.0000
  H   H289      1.0  0.40806  0.58086  0.41143  1.0000
  H   H290      1.0  0.40670  0.65551  0.37976  1.0000
  H   H291      1.0  0.43004  0.59196  0.38518  1.0000
  H   H292      1.0  0.42996  0.62992  0.36937  1.0000
  H   H293      1.0  0.35870  0.59828  0.42390  1.0000
  H   H294      1.0  0.38151  0.58618  0.43099  1.0000
  H   H295      1.0  0.38998  0.62129  0.43378  1.0000
  N   N23       1.0  0.39692  0.72474  0.30650  1.0000
  C   C294      1.0  0.38654  0.70204  0.29722  1.0000
  C   C295      1.0  0.40003  0.68614  0.29590  1.0000
  C   C296      1.0  0.38329  0.74190  0.30740  1.0000
  H   H296      1.0  0.36754  0.69589  0.29094  1.0000
  H   H297      1.0  0.41090  0.52269  0.34480  1.0000
  H   H298      1.0  0.39540  0.76129  0.30100  1.0000
  H   H299      1.0  0.36259  0.73183  0.30221  1.0000
  C   C297      1.0  0.50313  0.98996  0.49570  1.0000
  C   C298      1.0  0.30004  0.82011  0.28536  1.0000
  C   C299      1.0  0.43179  0.92389  0.50242  1.0000
  C   C300      1.0  0.49787  0.64601  0.49501  1.0000
  H   H300      1.0  0.17286  0.57561  0.50681  1.0000
  H   H301      1.0  0.49898  0.91971  0.34856  1.0000
  H   H302      1.0  0.26759  0.66000  0.36725  1.0000
  H   H303      1.0  0.50288  0.83827  0.44643  1.0000
  H   H304      1.0  0.26857  0.86549  0.46532  1.0000
  C   C301      1.0  0.32297  0.88118  0.48943  1.0000
  N   N24       1.0  0.32655  0.82043  0.28666  1.0000
  C   C302      1.0  0.41622  0.53570  0.32040  1.0000
  C   C303      1.0  0.27421  0.70796  0.37681  1.0000
  C   C304      1.0  0.45173  0.90661  0.36237  1.0000
  H   H305      1.0  0.45038  0.66879  0.49497  1.0000
  C   C305      1.0  0.28238  0.86278  0.47342  1.0000
  N   N25       1.0  0.15556  0.59032  0.48914  1.0000
  H   H306      1.0  0.28644  0.54002  0.48678  1.0000
  C   C306      1.0  0.13044  0.58462  0.49484  1.0000
  H   H307      1.0  0.45731  0.89978  0.40752  1.0000
  H   H308      1.0  0.49844  0.68348  0.50214  1.0000
  N   N26       1.0  0.47665  0.91694  0.36948  1.0000
  C   C307      1.0  0.29346  0.83373  0.49004  1.0000
  C   C308      1.0  0.30591  0.88513  0.47862  1.0000
  H   H309      1.0  0.29557  0.82253  0.27281  1.0000
  H   H310      1.0  0.51919  0.93127  0.36590  1.0000
  H   H311      1.0  0.35208  0.53480  0.29171  1.0000
  C   C309      1.0  0.34515  0.55101  0.38481  1.0000
  H   H312      1.0  0.48215  0.98346  0.49904  1.0000
  S   S103      1.0  0.37923  0.54091  0.49498  1.0000
  C   C310      1.0  0.16922  0.61236  0.47948  1.0000
  C   C311      1.0  0.48206  0.85959  0.40405  1.0000
  C   C312      1.0  0.16809  0.57316  0.49398  1.0000
  H   H313      1.0  0.45005  0.90817  0.34965  1.0000
  N   N27       1.0  0.37529  0.52048  0.30507  1.0000
  C   C313      1.0  0.33397  0.85204  0.50685  1.0000
  H   H314      1.0  0.23542  0.86480  0.49771  1.0000
  C   C314      1.0  0.42399  0.69333  0.30437  1.0000
  C   C315      1.0  0.48490  0.85743  0.38771  1.0000
  C   C316      1.0  0.22390  0.74664  0.26868  1.0000
  H   H315      1.0  0.31077  0.90542  0.47449  1.0000
  H   H316      1.0  0.33876  0.55934  0.37502  1.0000
  C   C317      1.0  0.15692  0.72481  0.26872  1.0000
  C   C318      1.0  0.22708  0.82377  0.50353  1.0000
  H   H317      1.0  0.45276  0.72199  0.32061  1.0000
  C   C319      1.0  0.42060  0.73217  0.31464  1.0000
  Fe  Fe51      1.0  0.47351  0.84906  0.34548  1.0000
  H   H318      1.0  0.42873  0.75014  0.32202  1.0000
  C   C320      1.0  0.43441  0.71652  0.31377  1.0000
  H   H319      1.0  0.29830  0.67240  0.35600  1.0000
  C   C321      1.0  0.32588  0.74909  0.37060  1.0000
  H   H320      1.0  0.49752  0.99878  0.47152  1.0000
  H   H321      1.0  0.40833  0.88468  0.36552  1.0000
  C   C322      1.0  0.45245  0.81928  0.27252  1.0000
  H   H322      1.0  0.43419  0.68067  0.30391  1.0000
  S   S104      1.0  0.49756  0.88246  0.43316  1.0000
  H   H323      1.0  0.12292  0.63660  0.47775  1.0000
  C   C323      1.0  0.37464  0.84474  0.29126  1.0000
  H   H324      1.0  0.35562  0.77905  0.28155  1.0000
  C   C324      1.0  0.51376  0.82917  0.45274  1.0000
  H   H325      1.0  0.28784  0.81367  0.49488  1.0000
  C   C325      1.0  0.37708  0.82133  0.28795  1.0000
  C   C326      1.0  0.50328  0.87923  0.41296  1.0000
  C   C327      1.0  0.42802  0.89334  0.37132  1.0000
  H   H326      1.0  0.47928  0.80435  0.46736  1.0000
  H   H327      1.0  0.04376  0.63205  0.46722  1.0000
  S   S105      1.0  0.45347  0.80332  0.29045  1.0000
  H   H328      1.0  0.38082  0.74619  0.31999  1.0000
  C   C328      1.0  0.35954  0.59123  0.27208  1.0000
  H   H329      1.0  0.12011  0.56785  0.50304  1.0000
  H   H330      1.0  0.16888  0.64705  0.46791  1.0000
  H   H331      1.0  0.22185  0.65076  0.50719  1.0000
  C   C329      1.0  0.15754  0.62906  0.47508  1.0000
  C   C330      1.0  0.50022  0.80984  0.46453  1.0000
  H   H332      1.0  0.16123  0.67844  0.50521  1.0000
  H   H333      1.0  0.49842  0.92364  0.39123  1.0000
  S   S106      1.0  0.20193  0.53273  0.50912  1.0000
  H   H334      1.0  0.31767  0.55482  0.40136  1.0000
  H   H335      1.0  0.49664  0.79243  0.27650  1.0000
  H   H336      1.0  0.35508  0.86889  0.50642  1.0000
  H   H337      1.0  0.15174  0.67493  0.26466  1.0000
  C   C331      1.0  0.34117  0.53746  0.41253  1.0000
  C   C332      1.0  0.16835  0.66461  0.50971  1.0000
  S   S107      1.0  0.32581  0.53478  0.43105  1.0000
  H   H338      1.0  0.38768  0.52402  0.39356  1.0000
  H   H339      1.0  0.37566  0.52849  0.28022  1.0000
  C   C333      1.0  0.36104  0.52893  0.41032  1.0000
  C   C334      1.0  0.27271  0.53280  0.49671  1.0000
  C   C335      1.0  0.23172  0.52847  0.50996  1.0000
  C   C336      1.0  0.37256  0.53097  0.39528  1.0000
  C   C337      1.0  0.50957  0.79300  0.26632  1.0000
  H   H340      1.0  0.51326  0.84099  0.27456  1.0000
  C   C338      1.0  0.36136  0.52089  0.29037  1.0000
  H   H341      1.0  0.36717  0.52032  0.42012  1.0000
  H   H342      1.0  0.17035  0.74709  0.26810  1.0000
  Fe  Fe52      1.0  0.33507  0.52230  0.48816  1.0000
  Fe  Fe53      1.0  0.38487  0.51944  0.47381  1.0000
  H   H343      1.0  0.26800  0.51958  0.44213  1.0000
  H   H344      1.0  0.22369  0.78571  0.51214  1.0000
  S   S108      1.0  0.13713  0.54211  0.56581  1.0000
  Fe  Fe54      1.0  0.17746  0.53156  0.53098  1.0000
  S   S109      1.0  0.19269  0.57058  0.54441  1.0000
  H   H345      1.0  0.13943  0.59559  0.57831  1.0000
  Fe  Fe55      1.0  0.17857  0.54453  0.56622  1.0000
  S   S110      1.0  0.20899  0.55850  0.58638  1.0000
  Fe  Fe56      1.0  0.15022  0.56483  0.54283  1.0000
  C   C339      1.0  0.31002  0.76309  0.72003  1.0000
  H   H346      1.0  0.41779  0.59441  0.51583  1.0000
  Fe  Fe57      1.0  0.36439  0.96580  0.54073  1.0000
  S   S111      1.0  0.40354  0.96320  0.54115  1.0000
  Fe  Fe58      1.0  0.32939  0.90345  0.54025  1.0000
  S   S112      1.0  0.36647  0.89713  0.54070  1.0000
  H   H347      1.0  0.45235  0.57811  0.51724  1.0000
  Fe  Fe59      1.0  0.38222  0.92978  0.55896  1.0000
  S   S113      1.0  0.40300  0.92338  0.58038  1.0000
  Fe  Fe60      1.0  0.38341  0.93068  0.52293  1.0000
  H   H348      1.0  0.17252  0.63742  0.75809  1.0000
  S   S114      1.0  0.34417  0.93429  0.55984  1.0000
  H   H349      1.0  0.40777  0.76434  0.70140  1.0000
  H   H350      1.0  0.17510  0.65814  0.55601  1.0000
  Fe  Fe61      1.0  0.35614  0.88941  0.66607  1.0000
  S   S115      1.0  0.38091  0.89497  0.68820  1.0000
  S   S116      1.0  0.35640  0.92064  0.64873  1.0000
  Fe  Fe62      1.0  0.32197  0.82939  0.67148  1.0000
  S   S117      1.0  0.34332  0.82882  0.69386  1.0000
  S   S118      1.0  0.28601  0.79273  0.66223  1.0000
  Fe  Fe63      1.0  0.34139  0.86716  0.69984  1.0000
  S   S119      1.0  0.32589  0.87114  0.72387  1.0000
  Fe  Fe64      1.0  0.38109  0.85609  0.68067  1.0000
  S   S120      1.0  0.41728  0.84880  0.68472  1.0000
  S   S121      1.0  0.31650  0.86525  0.67847  1.0000
  S   S122      1.0  0.35986  0.85306  0.65751  1.0000
  Fe  Fe65      1.0  0.44269  0.73380  0.65794  1.0000
  S   S123      1.0  0.42791  0.70850  0.67982  1.0000
  S   S124      1.0  0.41773  0.75132  0.64652  1.0000
  Fe  Fe66      1.0  0.43985  0.68005  0.66757  1.0000
  S   S125      1.0  0.41480  0.63474  0.66712  1.0000
  S   S126      1.0  0.45083  0.70342  0.64476  1.0000
  Fe  Fe67      1.0  0.22599  0.60836  0.67323  1.0000
  S   S127      1.0  0.23746  0.64830  0.68532  1.0000
  S   S128      1.0  0.19063  0.58882  0.65607  1.0000
  Fe  Fe68      1.0  0.27150  0.60159  0.68919  1.0000
  S   S129      1.0  0.28709  0.64057  0.70252  1.0000
  S   S130      1.0  0.29190  0.57499  0.68837  1.0000
  Fe  Fe69      1.0  0.24325  0.62825  0.70728  1.0000
  S   S131      1.0  0.23120  0.63931  0.73065  1.0000
  Fe  Fe70      1.0  0.28021  0.65735  0.67979  1.0000
  S   S132      1.0  0.31455  0.69593  0.67099  1.0000
  S   S133      1.0  0.22781  0.58728  0.69577  1.0000
  S   S134      1.0  0.26850  0.61936  0.66601  1.0000
  C   C340      1.0  0.23776  0.62711  0.74867  1.0000
  H   H351      1.0  0.17076  0.60402  0.73833  1.0000
  H   H352      1.0  0.13677  0.62289  0.56868  1.0000
  C   C341      1.0  0.31177  0.78493  0.72899  1.0000
  C   C342      1.0  0.24019  0.60308  0.74943  1.0000
  H   H353      1.0  0.40807  0.63200  0.51737  1.0000
  H   H354      1.0  0.24017  0.59265  0.73865  1.0000
  C   C343      1.0  0.38140  0.61943  0.67440  1.0000
  C   C344      1.0  0.36771  0.63454  0.67815  1.0000
  C   C345      1.0  0.34016  0.62109  0.68256  1.0000
  C   C346      1.0  0.32653  0.59262  0.68352  1.0000
  C   C347      1.0  0.34045  0.57774  0.68007  1.0000
  C   C348      1.0  0.36769  0.59107  0.67543  1.0000
  H   H355      1.0  0.37799  0.65639  0.67706  1.0000
  H   H356      1.0  0.32939  0.63266  0.68501  1.0000
  H   H357      1.0  0.33007  0.55579  0.68082  1.0000
  H   H358      1.0  0.37814  0.57931  0.67253  1.0000
  H   H359      1.0  0.43214  0.97724  0.62548  1.0000
  C   C349      1.0  0.41656  0.82109  0.67436  1.0000
  C   C350      1.0  0.39891  0.80969  0.66159  1.0000
  C   C351      1.0  0.39931  0.78820  0.65310  1.0000
  C   C352      1.0  0.41707  0.77777  0.65751  1.0000
  C   C353      1.0  0.43424  0.78868  0.67052  1.0000
  C   C354      1.0  0.43418  0.81051  0.67883  1.0000
  H   H360      1.0  0.38541  0.81782  0.65803  1.0000
  H   H361      1.0  0.38593  0.77977  0.64307  1.0000
  H   H362      1.0  0.44793  0.78070  0.67403  1.0000
  H   H363      1.0  0.44790  0.81933  0.68868  1.0000
  C   C355      1.0  0.29382  0.76556  0.66316  1.0000
  C   C356      1.0  0.32071  0.77069  0.66534  1.0000
  C   C357      1.0  0.32694  0.74910  0.66726  1.0000
  C   C358      1.0  0.30622  0.72234  0.66746  1.0000
  C   C359      1.0  0.27930  0.71711  0.66512  1.0000
  C   C360      1.0  0.27311  0.73876  0.66281  1.0000
  H   H364      1.0  0.33677  0.79134  0.66559  1.0000
  H   H365      1.0  0.34783  0.75329  0.66888  1.0000
  H   H366      1.0  0.26327  0.69645  0.66498  1.0000
  H   H367      1.0  0.25226  0.73477  0.66113  1.0000
  C   C361      1.0  0.18577  0.62765  0.52100  1.0000
  C   C362      1.0  0.23565  0.53888  0.65573  1.0000
  C   C363      1.0  0.34320  0.86716  0.74039  1.0000
  C   C364      1.0  0.36839  0.86748  0.73872  1.0000
  H   H368      1.0  0.32470  0.79157  0.73938  1.0000
  H   H369      1.0  0.44324  0.98026  0.59681  1.0000
  H   H370      1.0  0.37752  0.87013  0.72713  1.0000
  C   C365      1.0  0.38804  0.92011  0.59909  1.0000
  C   C366      1.0  0.39901  0.91278  0.61213  1.0000
  C   C367      1.0  0.38857  0.91167  0.62737  1.0000
  C   C368      1.0  0.36744  0.91839  0.62964  1.0000
  C   C369      1.0  0.35598  0.92500  0.61658  1.0000
  C   C370      1.0  0.36613  0.92569  0.60132  1.0000
  H   H371      1.0  0.41594  0.90839  0.61048  1.0000
  H   H372      1.0  0.39758  0.90666  0.63743  1.0000
  H   H373      1.0  0.33957  0.93014  0.61831  1.0000
  H   H374      1.0  0.35754  0.93137  0.59142  1.0000
  H   H375      1.0  0.48638  0.69155  0.62591  1.0000
  N   N28       1.0  0.39994  0.70458  0.71686  1.0000
  H   H376      1.0  0.39902  0.67450  0.73314  1.0000
  H   H377      1.0  0.25711  0.53463  0.63575  1.0000
  C   C371      1.0  0.21912  0.62493  0.57028  1.0000
  C   C372      1.0  0.14961  0.61807  0.57696  1.0000
  C   C373      1.0  0.41205  0.99134  0.59007  1.0000
  H   H378      1.0  0.42491  0.70830  0.73694  1.0000
  C   C374      1.0  0.20333  0.56866  0.60515  1.0000
  C   C375      1.0  0.17735  0.56274  0.61048  1.0000
  C   C376      1.0  0.17377  0.56974  0.62598  1.0000
  C   C377      1.0  0.19608  0.58268  0.63621  1.0000
  C   C378      1.0  0.22202  0.58898  0.63069  1.0000
  C   C379      1.0  0.22561  0.58198  0.61526  1.0000
  H   H379      1.0  0.15999  0.55224  0.60283  1.0000
  H   H380      1.0  0.15360  0.56468  0.63018  1.0000
  H   H381      1.0  0.23931  0.59889  0.63834  1.0000
  H   H382      1.0  0.24576  0.58666  0.61121  1.0000
  C   C380      1.0  0.48399  0.63553  0.53915  1.0000
  H   H383      1.0  0.41658  0.99184  0.57757  1.0000
  N   N29       1.0  0.31288  0.85192  0.61297  1.0000
  C   C381      1.0  0.33694  0.85355  0.60784  1.0000
  C   C382      1.0  0.29585  0.85563  0.60259  1.0000
  C   C383      1.0  0.34410  0.85819  0.59183  1.0000
  C   C384      1.0  0.30240  0.86033  0.58651  1.0000
  C   C385      1.0  0.32665  0.86155  0.58114  1.0000
  C   C386      1.0  0.30603  0.84739  0.62983  1.0000
  H   H384      1.0  0.35094  0.85170  0.61617  1.0000
  H   H385      1.0  0.27707  0.85498  0.60669  1.0000
  H   H386      1.0  0.36345  0.86005  0.58783  1.0000
  H   H387      1.0  0.28887  0.86312  0.57820  1.0000
  H   H388      1.0  0.33202  0.86540  0.56872  1.0000
  H   H389      1.0  0.28392  0.83946  0.63190  1.0000
  H   H390      1.0  0.31161  0.83202  0.63485  1.0000
  H   H391      1.0  0.31706  0.86672  0.63643  1.0000
  C   C387      1.0  0.16036  0.62483  0.52546  1.0000
  C   C388      1.0  0.26831  0.84814  0.52654  1.0000
  H   H392      1.0  0.16897  0.52360  0.65558  1.0000
  H   H393      1.0  0.25923  0.80703  0.53277  1.0000
  C   C389      1.0  0.42744  0.98506  0.60094  1.0000
  N   N30       1.0  0.28156  0.79111  0.71086  1.0000
  H   H394      1.0  0.40196  0.86594  0.75080  1.0000
  H   H395      1.0  0.18463  0.59928  0.58436  1.0000
  N   N31       1.0  0.44096  0.62996  0.52951  1.0000
  C   C390      1.0  0.44345  0.92615  0.51738  1.0000
  H   H396      1.0  0.22148  0.67455  0.54550  1.0000
  C   C391      1.0  0.50281  0.70040  0.61753  1.0000
  C   C392      1.0  0.22958  0.64611  0.55926  1.0000
  H   H397      1.0  0.29177  0.73799  0.69961  1.0000
  C   C393      1.0  0.17185  0.61850  0.76212  1.0000
  C   C394      1.0  0.42118  0.98332  0.61700  1.0000
  C   C395      1.0  0.26181  0.86435  0.51642  1.0000
  H   H398      1.0  0.43055  0.66236  0.52731  1.0000
  S   S135      1.0  0.48023  0.74951  0.71171  1.0000
  H   H399      1.0  0.26613  0.76281  0.69193  1.0000
  N   N32       1.0  0.35363  0.68193  0.63857  1.0000
  C   C396      1.0  0.37750  0.68099  0.63589  1.0000
  C   C397      1.0  0.33090  0.65893  0.64291  1.0000
  C   C398      1.0  0.37885  0.65644  0.63718  1.0000
  C   C399      1.0  0.33151  0.63401  0.64425  1.0000
  C   C400      1.0  0.35564  0.63281  0.64127  1.0000
  C   C401      1.0  0.35288  0.70802  0.63771  1.0000
  H   H400      1.0  0.39571  0.69935  0.63289  1.0000
  H   H401      1.0  0.31225  0.65989  0.64555  1.0000
  H   H402      1.0  0.39790  0.65575  0.63545  1.0000
  H   H403      1.0  0.31368  0.61591  0.64806  1.0000
  H   H404      1.0  0.35668  0.61382  0.64276  1.0000
  H   H405      1.0  0.35993  0.71888  0.64913  1.0000
  H   H406      1.0  0.36633  0.72117  0.62819  1.0000
  H   H407      1.0  0.33204  0.70529  0.63545  1.0000
  H   H408      1.0  0.24614  0.79651  0.71086  1.0000
  C   C402      1.0  0.18817  0.52527  0.65141  1.0000
  H   H409      1.0  0.49551  0.60510  0.53189  1.0000
  C   C403      1.0  0.38219  0.86507  0.75214  1.0000
  C   C404      1.0  0.17076  0.59962  0.75087  1.0000
  S   S136      1.0  0.34536  0.93522  0.52113  1.0000
  C   C405      1.0  0.27901  0.76916  0.70233  1.0000
  C   C406      1.0  0.50800  0.75426  0.59012  1.0000
  C   C407      1.0  0.26691  0.80613  0.70582  1.0000
  H   H410      1.0  0.48055  0.67236  0.59903  1.0000
  H   H411      1.0  0.40708  0.63316  0.53872  1.0000
  C   C408      1.0  0.19272  0.61597  0.57595  1.0000
  C   C409      1.0  0.39998  0.98831  0.62204  1.0000
  C   C410      1.0  0.29337  0.75497  0.70667  1.0000
  C   C411      1.0  0.33152  0.86363  0.75547  1.0000
  N   N33       1.0  0.17715  0.62769  0.57074  1.0000
  C   C412      1.0  0.18749  0.64893  0.56024  1.0000
  H   H412      1.0  0.49685  0.68136  0.74075  1.0000
  C   C413      1.0  0.29701  0.79855  0.72432  1.0000
  S   S137      1.0  0.48247  0.69917  0.67714  1.0000
  H   H413      1.0  0.34721  0.68296  0.69129  1.0000
  H   H414      1.0  0.19267  0.61354  0.52534  1.0000
  Fe  Fe71      1.0  0.47135  0.72985  0.68763  1.0000
  C   C414      1.0  0.36492  0.69693  0.69784  1.0000
  C   C415      1.0  0.46420  0.64443  0.53802  1.0000
  H   H415      1.0  0.23110  0.61507  0.57421  1.0000
  C   C416      1.0  0.49306  0.70995  0.75643  1.0000
  H   H416      1.0  0.32152  0.75246  0.72341  1.0000
  Fe  Fe72      1.0  0.49260  0.72497  0.65507  1.0000
  H   H417      1.0  0.48035  0.76177  0.74443  1.0000
  C   C417      1.0  0.41372  0.69372  0.72738  1.0000
  H   H418      1.0  0.42847  0.68969  0.72045  1.0000
  S   S138      1.0  0.48533  0.75759  0.66646  1.0000
  C   C418      1.0  0.48349  0.74392  0.74359  1.0000
  H   H419      1.0  0.42910  0.74594  0.72052  1.0000
  S   S139      1.0  0.29220  0.86237  0.54203  1.0000
  H   H420      1.0  0.47753  0.92771  0.53052  1.0000
  H   H421      1.0  0.43321  0.92822  0.52776  1.0000
  H   H422      1.0  0.26564  0.80659  0.69269  1.0000
  C   C419      1.0  0.37737  0.68705  0.70869  1.0000
  C   C420      1.0  0.41079  0.73204  0.71438  1.0000
  C   C421      1.0  0.37585  0.72487  0.69522  1.0000
  S   S140      1.0  0.13848  0.59785  0.53757  1.0000
  H   H423      1.0  0.49171  0.73975  0.59745  1.0000
  H   H424      1.0  0.24980  0.65286  0.55450  1.0000
  H   H425      1.0  0.36913  0.66524  0.71031  1.0000
  H   H426      1.0  0.46781  0.66320  0.54384  1.0000
  H   H427      1.0  0.49398  0.73040  0.56891  1.0000
  C   C422      1.0  0.39888  0.74260  0.70356  1.0000
  C   C423      1.0  0.49963  0.68938  0.60230  1.0000
  H   H428      1.0  0.31194  0.86321  0.75680  1.0000
  H   H429      1.0  0.15036  0.62755  0.58860  1.0000
  C   C424      1.0  0.15195  0.64367  0.52006  1.0000
  H   H430      1.0  0.39443  0.98613  0.63447  1.0000
  C   C425      1.0  0.23764  0.53190  0.64008  1.0000
  H   H431      1.0  0.36673  0.73272  0.68656  1.0000
  C   C426      1.0  0.21376  0.65834  0.55426  1.0000
  C   C427      1.0  0.37525  0.00257  0.58353  1.0000
  C   C428      1.0  0.48359  0.73286  0.72873  1.0000
  C   C429      1.0  0.48790  0.70996  0.72773  1.0000
  S   S141      1.0  0.13540  0.52772  0.52770  1.0000
  H   H432      1.0  0.51440  0.98130  0.51854  1.0000
  C   C430      1.0  0.49298  0.69876  0.74155  1.0000
  H   H433      1.0  0.27765  0.82769  0.70971  1.0000
  C   C431      1.0  0.42062  0.63983  0.52825  1.0000
  H   H434      1.0  0.32553  0.85148  0.51882  1.0000
  H   H435      1.0  0.29841  0.81543  0.73135  1.0000
  H   H436      1.0  0.48796  0.70128  0.71631  1.0000
  S   S142      1.0  0.36418  0.00673  0.54017  1.0000
  H   H437      1.0  0.35399  0.99550  0.58751  1.0000
  S   S143      1.0  0.51483  0.68703  0.57195  1.0000
  C   C432      1.0  0.38511  0.99473  0.61086  1.0000
  C   C433      1.0  0.46850  0.92580  0.51893  1.0000
  H   H438      1.0  0.13235  0.64168  0.52352  1.0000
  C   C434      1.0  0.25448  0.81974  0.52490  1.0000
  C   C435      1.0  0.47984  0.61163  0.53159  1.0000
  H   H439      1.0  0.17222  0.56189  0.74718  1.0000
  C   C436      1.0  0.43622  0.60591  0.52259  1.0000
  C   C437      1.0  0.52082  0.70033  0.59129  1.0000
  N   N34       1.0  0.39099  0.99576  0.59508  1.0000
  C   C438      1.0  0.45567  0.59651  0.52340  1.0000
  H   H440      1.0  0.50256  0.64731  0.54571  1.0000
  C   C439      1.0  0.50924  0.74905  0.57411  1.0000
  H   H441      1.0  0.25332  0.54699  0.66343  1.0000
  H   H442      1.0  0.36843  0.99820  0.61486  1.0000
  H   H443      1.0  0.37406  0.99258  0.57200  1.0000
  H   H444      1.0  0.20898  0.54143  0.67336  1.0000
  C   C440      1.0  0.48794  0.73236  0.75742  1.0000
  C   C441      1.0  0.21074  0.53560  0.66137  1.0000
  C   C442      1.0  0.23427  0.80760  0.51327  1.0000
  H   H445      1.0  0.23591  0.65901  0.76224  1.0000
  H   H446      1.0  0.27209  0.88622  0.51768  1.0000
  H   H447      1.0  0.23527  0.53220  0.60803  1.0000
  C   C443      1.0  0.17170  0.57601  0.75583  1.0000
  N   N35       1.0  0.21544  0.52201  0.63034  1.0000
  C   C444      1.0  0.19086  0.51849  0.63584  1.0000
  Fe  Fe73      1.0  0.36846  0.85006  0.80754  1.0000
  S   S144      1.0  0.34317  0.86748  0.81860  1.0000
  S   S145      1.0  0.38927  0.86049  0.78385  1.0000
  Fe  Fe74      1.0  0.36521  0.81584  0.83628  1.0000
  S   S146      1.0  0.33982  0.83012  0.84986  1.0000
  S   S147      1.0  0.37317  0.78305  0.84705  1.0000
  Fe  Fe75      1.0  0.31742  0.82475  0.82711  1.0000
  S   S148      1.0  0.27223  0.80686  0.82812  1.0000
  Fe  Fe76      1.0  0.36757  0.87143  0.84059  1.0000
  S   S149      1.0  0.38514  0.90880  0.85597  1.0000
  S   S150      1.0  0.34043  0.80691  0.81411  1.0000
  S   S151      1.0  0.39532  0.85772  0.82881  1.0000
  Fe  Fe77      1.0  0.47709  0.74326  0.81820  1.0000
  S   S152      1.0  0.45253  0.71355  0.79956  1.0000
  S   S153      1.0  0.47967  0.78470  0.81983  1.0000
  Fe  Fe78      1.0  0.44004  0.68336  0.81940  1.0000
  S   S154      1.0  0.39697  0.65055  0.81976  1.0000
  S   S155      1.0  0.46144  0.71379  0.83842  1.0000
  Fe  Fe79      1.0  0.22266  0.65447  0.82940  1.0000
  S   S156      1.0  0.23314  0.65191  0.85467  1.0000
  S   S157      1.0  0.20337  0.67991  0.82103  1.0000
  Fe  Fe80      1.0  0.23663  0.61061  0.81874  1.0000
  S   S158      1.0  0.24798  0.60318  0.84338  1.0000
  S   S159      1.0  0.23788  0.58827  0.79670  1.0000
  Fe  Fe81      1.0  0.21115  0.60673  0.85155  1.0000
  S   S160      1.0  0.17902  0.58456  0.87011  1.0000
  Fe  Fe82      1.0  0.26896  0.64878  0.84474  1.0000
  S   S161      1.0  0.31016  0.67398  0.85526  1.0000
  S   S162      1.0  0.19776  0.60960  0.82680  1.0000
  S   S163      1.0  0.26067  0.65595  0.81965  1.0000
  H   H448      1.0  0.37037  0.92076  0.77002  1.0000
  Fe  Fe83      1.0  0.35866  0.92007  0.94567  1.0000
  S   S164      1.0  0.33578  0.93482  0.96157  1.0000
  S   S165      1.0  0.33632  0.89179  0.92551  1.0000
  Fe  Fe84      1.0  0.40871  0.94378  0.96694  1.0000
  S   S166      1.0  0.38962  0.95968  0.98463  1.0000
  S   S167      1.0  0.45203  0.95105  0.96882  1.0000
  Fe  Fe85      1.0  0.35209  0.91944  0.98145  1.0000
  S   S168      1.0  0.13773  0.53347  0.95584  1.0000
  Fe  Fe86      1.0  0.37536  0.97366  0.96321  1.0000
  S   S169      1.0  0.37290  0.90262  0.96548  1.0000
  S   S170      1.0  0.39655  0.95984  0.94556  1.0000
  H   H449      1.0  0.31464  0.62607  0.00608  1.0000
  H   H450      1.0  0.23664  0.76677  0.99143  1.0000
  Fe  Fe87      1.0  0.16153  0.56939  0.97135  1.0000
  C   C445      1.0  0.38729  0.71662  0.80153  1.0000
  S   S171      1.0  0.15710  0.60735  0.96784  1.0000
  H   H451      1.0  0.17694  0.68933  0.99789  1.0000
  C   C446      1.0  0.19075  0.54249  0.91413  1.0000
  S   S172      1.0  0.20133  0.56926  0.96777  1.0000
  C   C447      1.0  0.30881  0.60745  0.99953  1.0000
  C   C448      1.0  0.46277  0.01423  0.95556  1.0000
  S   S173      1.0  0.47406  0.67276  0.81593  1.0000
  C   C449      1.0  0.52083  0.73107  0.90349  1.0000
  C   C450      1.0  0.45133  0.65184  0.86158  1.0000
  C   C451      1.0  0.51178  0.70753  0.01017  1.0000
  H   H452      1.0  0.31593  0.70799  0.81852  1.0000
  C   C452      1.0  0.20892  0.54886  0.90143  1.0000
  H   H453      1.0  0.19833  0.64876  0.79124  1.0000
  C   C453      1.0  0.19188  0.62795  0.99303  1.0000
  C   C454      1.0  0.17424  0.63153  0.98252  1.0000
  C   C455      1.0  0.33297  0.55519  0.99450  1.0000
  Fe  Fe88      1.0  0.17702  0.53137  0.95399  1.0000
  H   H454      1.0  0.19588  0.61069  0.99184  1.0000
  N   N36       1.0  0.35743  0.73274  0.81246  1.0000
  H   H455      1.0  0.19228  0.60320  0.94351  1.0000
  C   C456      1.0  0.16148  0.61693  0.92544  1.0000
  H   H456      1.0  0.16525  0.63312  0.93424  1.0000
  H   H457      1.0  0.35556  0.61840  0.85578  1.0000
  H   H458      1.0  0.21667  0.78654  0.97218  1.0000
  Fe  Fe89      1.0  0.49692  0.70629  0.83325  1.0000
  H   H459      1.0  0.37050  0.77536  0.81049  1.0000
  H   H460      1.0  0.27185  0.60612  0.99038  1.0000
  C   C457      1.0  0.48482  0.64133  0.98376  1.0000
  C   C458      1.0  0.46997  0.65531  0.98012  1.0000
  C   C459      1.0  0.44370  0.64618  0.98616  1.0000
  C   C460      1.0  0.37064  0.86175  0.76722  1.0000
  S   S174      1.0  0.51441  0.73812  0.81417  1.0000
  C   C461      1.0  0.20064  0.60966  0.93177  1.0000
  H   H461      1.0  0.47868  0.67315  0.97267  1.0000
  C   C462      1.0  0.43241  0.62328  0.99604  1.0000
  H   H462      1.0  0.41267  0.78482  0.79627  1.0000
  H   H463      1.0  0.22571  0.54404  0.90220  1.0000
  C   C463      1.0  0.48890  0.95307  0.99104  1.0000
  C   C464      1.0  0.46224  0.94853  0.98820  1.0000
  C   C465      1.0  0.23552  0.61721  0.91261  1.0000
  H   H464      1.0  0.14783  0.59701  0.93096  1.0000
  H   H465      1.0  0.35312  0.56696  0.98883  1.0000
  S   S175      1.0  0.32968  0.89115  0.00193  1.0000
  C   C466      1.0  0.37466  0.75861  0.80762  1.0000
  C   C467      1.0  0.18367  0.56751  0.88659  1.0000
  C   C468      1.0  0.16519  0.56055  0.89916  1.0000
  C   C469      1.0  0.16898  0.54857  0.91299  1.0000
  C   C470      1.0  0.50122  0.72936  0.89239  1.0000
  H   H466      1.0  0.31775  0.85357  0.95288  1.0000
  H   H467      1.0  0.30963  0.87301  0.96703  1.0000
  H   H468      1.0  0.14812  0.56493  0.89828  1.0000
  N   N37       1.0  0.48791  0.88598  0.99536  1.0000
  C   C471      1.0  0.44355  0.94017  0.00061  1.0000
  H   H469      1.0  0.28683  0.53936  0.97801  1.0000
  H   H470      1.0  0.44600  0.89186  0.96811  1.0000
  C   C472      1.0  0.37337  0.65807  0.82942  1.0000
  C   C473      1.0  0.38153  0.67854  0.84080  1.0000
  C   C474      1.0  0.36198  0.68301  0.84900  1.0000
  C   C475      1.0  0.33438  0.66746  0.84556  1.0000
  C   C476      1.0  0.32629  0.64708  0.83414  1.0000
  C   C477      1.0  0.34574  0.64224  0.82619  1.0000
  H   H471      1.0  0.40278  0.69063  0.84347  1.0000
  H   H472      1.0  0.36822  0.69858  0.85796  1.0000
  H   H473      1.0  0.30503  0.63502  0.83136  1.0000
  H   H474      1.0  0.33933  0.62629  0.81743  1.0000
  C   C478      1.0  0.32457  0.59373  0.00041  1.0000
  C   C479      1.0  0.37159  0.90420  0.87532  1.0000
  C   C480      1.0  0.34624  0.88252  0.87885  1.0000
  C   C481      1.0  0.33574  0.87904  0.89426  1.0000
  C   C482      1.0  0.35043  0.89722  0.90631  1.0000
  C   C483      1.0  0.37570  0.91907  0.90280  1.0000
  C   C484      1.0  0.38618  0.92260  0.88732  1.0000
  H   H475      1.0  0.33440  0.86881  0.86962  1.0000
  H   H476      1.0  0.31604  0.86236  0.89684  1.0000
  H   H477      1.0  0.38714  0.93325  0.91198  1.0000
  H   H478      1.0  0.40573  0.93950  0.88468  1.0000
  C   C485      1.0  0.40380  0.78436  0.84067  1.0000
  C   C486      1.0  0.40689  0.76070  0.84108  1.0000
  C   C487      1.0  0.43005  0.76061  0.83460  1.0000
  C   C488      1.0  0.45061  0.78442  0.82812  1.0000
  C   C489      1.0  0.44788  0.80829  0.82812  1.0000
  C   C490      1.0  0.42438  0.80819  0.83424  1.0000
  H   H479      1.0  0.39088  0.74219  0.84586  1.0000
  H   H480      1.0  0.43160  0.74196  0.83434  1.0000
  H   H481      1.0  0.46373  0.82679  0.82314  1.0000
  H   H482      1.0  0.42235  0.82661  0.83404  1.0000
  C   C491      1.0  0.25418  0.77168  0.82515  1.0000
  C   C492      1.0  0.26725  0.75526  0.82434  1.0000
  C   C493      1.0  0.25188  0.72692  0.82278  1.0000
  C   C494      1.0  0.22352  0.71517  0.82204  1.0000
  C   C495      1.0  0.21065  0.73170  0.82257  1.0000
  C   C496      1.0  0.22591  0.75983  0.82423  1.0000
  H   H483      1.0  0.28906  0.76426  0.82526  1.0000
  H   H484      1.0  0.26190  0.71418  0.82231  1.0000
  H   H485      1.0  0.18875  0.72269  0.82194  1.0000
  H   H486      1.0  0.21574  0.77245  0.82483  1.0000
  C   C497      1.0  0.17346  0.57143  0.77194  1.0000
  C   C498      1.0  0.49396  0.79456  0.87763  1.0000
  C   C499      1.0  0.16922  0.65394  0.98419  1.0000
  C   C500      1.0  0.42344  0.92572  0.81315  1.0000
  C   C501      1.0  0.34507  0.86065  0.76885  1.0000
  H   H487      1.0  0.42634  0.90897  0.80773  1.0000
  H   H488      1.0  0.28663  0.78883  0.99542  1.0000
  H   H489      1.0  0.45993  0.99885  0.94638  1.0000
  C   C502      1.0  0.33345  0.72749  0.82196  1.0000
  H   H490      1.0  0.29002  0.86088  0.94922  1.0000
  H   H491      1.0  0.25376  0.61606  0.90913  1.0000
  H   H492      1.0  0.50345  0.95963  0.98148  1.0000
  C   C503      1.0  0.22480  0.60909  0.92774  1.0000
  C   C504      1.0  0.29352  0.55883  0.98376  1.0000
  H   H493      1.0  0.21991  0.56691  0.87809  1.0000
  C   C505      1.0  0.40521  0.64286  0.86671  1.0000
  C   C506      1.0  0.20421  0.64663  0.00529  1.0000
  C   C507      1.0  0.45256  0.88696  0.97926  1.0000
  C   C508      1.0  0.38408  0.93469  0.81466  1.0000
  C   C509      1.0  0.22210  0.62590  0.90176  1.0000
  C   C510      1.0  0.37417  0.92498  0.78256  1.0000
  C   C511      1.0  0.18117  0.67232  0.99662  1.0000
  S   S176      1.0  0.37936  0.01611  0.95967  1.0000
  H   H494      1.0  0.09407  0.60874  0.99177  1.0000
  H   H495      1.0  0.32733  0.74387  0.82050  1.0000
  H   H496      1.0  0.41495  0.87723  0.99119  1.0000
  S   S177      1.0  0.22307  0.55454  0.00815  1.0000
  H   H497      1.0  0.15556  0.65677  0.97609  1.0000
  S   S178      1.0  0.50107  0.69654  0.77345  1.0000
  H   H498      1.0  0.33936  0.93178  0.78617  1.0000
  H   H499      1.0  0.47524  0.79628  0.87792  1.0000
  C   C512      1.0  0.24029  0.60462  0.77832  1.0000
  C   C513      1.0  0.17435  0.59066  0.78287  1.0000
  H   H500      1.0  0.38766  0.93831  0.82727  1.0000
  C   C514      1.0  0.36684  0.60691  0.85262  1.0000
  N   N38       1.0  0.28340  0.77375  0.86918  1.0000
  C   C515      1.0  0.25973  0.75272  0.86401  1.0000
  C   C516      1.0  0.30662  0.77088  0.87012  1.0000
  C   C517      1.0  0.25868  0.72779  0.86004  1.0000
  C   C518      1.0  0.30646  0.74646  0.86582  1.0000
  C   C519      1.0  0.28230  0.72482  0.86078  1.0000
  C   C520      1.0  0.28375  0.79964  0.87319  1.0000
  H   H501      1.0  0.24162  0.75536  0.86256  1.0000
  H   H502      1.0  0.23990  0.71128  0.85574  1.0000
  H   H503      1.0  0.32504  0.74445  0.86617  1.0000
  H   H504      1.0  0.28205  0.70595  0.85721  1.0000
  H   H505      1.0  0.26666  0.79624  0.88119  1.0000
  H   H506      1.0  0.28174  0.80978  0.86222  1.0000
  N   N39       1.0  0.28311  0.83072  0.96720  1.0000
  C   C521      1.0  0.25562  0.81873  0.96494  1.0000
  C   C522      1.0  0.29427  0.82020  0.97796  1.0000
  C   C523      1.0  0.23855  0.79538  0.97348  1.0000
  C   C524      1.0  0.27781  0.79675  0.98661  1.0000
  C   C525      1.0  0.24977  0.78434  0.98436  1.0000
  C   C526      1.0  0.30087  0.85570  0.95867  1.0000
  H   H507      1.0  0.24667  0.82761  0.95683  1.0000
  H   H508      1.0  0.31596  0.83047  0.98023  1.0000
  H   H509      1.0  0.51696  0.95130  0.00816  1.0000
  C   C527      1.0  0.49398  0.71884  0.00839  1.0000
  H   H510      1.0  0.41989  0.92104  0.82601  1.0000
  H   H511      1.0  0.33802  0.72630  0.83468  1.0000
  C   C528      1.0  0.19775  0.62581  0.90611  1.0000
  H   H512      1.0  0.48682  0.71999  0.86841  1.0000
  H   H513      1.0  0.45611  0.62777  0.84312  1.0000
  H   H514      1.0  0.49147  0.78691  0.85269  1.0000
  S   S179      1.0  0.15219  0.54546  0.99390  1.0000
  H   H515      1.0  0.49287  0.89811  0.97109  1.0000
  H   H516      1.0  0.32561  0.78759  0.87395  1.0000
  H   H517      1.0  0.30289  0.81377  0.87922  1.0000
  C   C529      1.0  0.20564  0.56173  0.88776  1.0000
  H   H518      1.0  0.17700  0.58747  0.79528  1.0000
  C   C530      1.0  0.44187  0.63189  0.84994  1.0000
  H   H519      1.0  0.39102  0.64743  0.87324  1.0000
  H   H520      1.0  0.50108  0.73890  0.00314  1.0000
  C   C531      1.0  0.47911  0.89064  0.98106  1.0000
  H   H521      1.0  0.25842  0.56294  0.97601  1.0000
  C   C532      1.0  0.49657  0.94831  0.00613  1.0000
  H   H522      1.0  0.28131  0.88809  0.98583  1.0000
  N   N40       1.0  0.40049  0.92775  0.80576  1.0000
  C   C533      1.0  0.44697  0.60888  0.99936  1.0000
  S   S180      1.0  0.40110  0.61419  0.00517  1.0000
  C   C534      1.0  0.27744  0.57216  0.98248  1.0000
  C   C535      1.0  0.28499  0.59644  0.99059  1.0000
  Fe  Fe90      1.0  0.48827  0.70537  0.79721  1.0000
  H   H523      1.0  0.23836  0.63935  0.78821  1.0000
  H   H524      1.0  0.43824  0.59100  0.00684  1.0000
  N   N41       1.0  0.18722  0.61749  0.92093  1.0000
  H   H525      1.0  0.48591  0.73531  0.89574  1.0000
  H   H526      1.0  0.48824  0.74127  0.76882  1.0000
  H   H527      1.0  0.32283  0.53442  0.98942  1.0000
  C   C536      1.0  0.40506  0.74298  0.79665  1.0000
  H   H528      1.0  0.43241  0.65727  0.98351  1.0000
  C   C537      1.0  0.41399  0.61756  0.84699  1.0000
  C   C538      1.0  0.27519  0.87099  0.99385  1.0000
  H   H529      1.0  0.42290  0.93642  0.99853  1.0000
  S   S181      1.0  0.19536  0.52659  0.93120  1.0000
  C   C539      1.0  0.39615  0.92354  0.78985  1.0000
  C   C540      1.0  0.10734  0.61306  0.00195  1.0000
  H   H530      1.0  0.33597  0.85801  0.78044  1.0000
  H   H531      1.0  0.48439  0.60676  0.99586  1.0000
  H   H532      1.0  0.35890  0.58791  0.85972  1.0000
  C   C541      1.0  0.36341  0.71187  0.80943  1.0000
  H   H533      1.0  0.15064  0.61978  0.91508  1.0000
  C   C542      1.0  0.39865  0.76411  0.79961  1.0000
  H   H534      1.0  0.47289  0.66293  0.86402  1.0000
  C   C543      1.0  0.50173  0.72071  0.87686  1.0000
  H   H535      1.0  0.44028  0.67326  0.87894  1.0000
  H   H536      1.0  0.16755  0.62553  0.80107  1.0000
  H   H537      1.0  0.44224  0.94513  0.81164  1.0000
  C   C544      1.0  0.23916  0.62930  0.77749  1.0000
  C   C545      1.0  0.24755  0.85210  0.99537  1.0000
  H   H538      1.0  0.39212  0.69998  0.79950  1.0000
  C   C546      1.0  0.47105  0.87829  0.00819  1.0000
  N   N42       1.0  0.31661  0.56958  0.99275  1.0000
  H   H539      1.0  0.17555  0.55382  0.77592  1.0000
  Fe  Fe91      1.0  0.19049  0.54204  0.98914  1.0000
  H   H540      1.0  0.34983  0.69144  0.81332  1.0000
  H   H541      1.0  0.36259  0.60164  0.83988  1.0000
  C   C547      1.0  0.43298  0.65754  0.86998  1.0000
  C   C548      1.0  0.17647  0.63465  0.78944  1.0000
  S   S182      1.0  0.51859  0.65370  0.97759  1.0000
  H   H542      1.0  0.42403  0.74721  0.79087  1.0000
  H   H543      1.0  0.23252  0.85465  0.98835  1.0000
  C   C549      1.0  0.29476  0.86792  0.00294  1.0000
  H   H544      1.0  0.18686  0.63134  0.89730  1.0000
  H   H545      1.0  0.33599  0.55264  0.00725  1.0000
  H   H546      1.0  0.23470  0.60167  0.93615  1.0000
  H   H547      1.0  0.22970  0.63128  0.88977  1.0000
  H   H548      1.0  0.15482  0.54371  0.92264  1.0000
  N   N43       1.0  0.17340  0.61377  0.77791  1.0000
  N   N44       1.0  0.39607  0.62315  0.85533  1.0000
  H   H549      1.0  0.40681  0.60242  0.83771  1.0000
  C   C550      1.0  0.23930  0.82988  0.00582  1.0000
  C   C551      1.0  0.36186  0.93627  0.80777  1.0000
  C   C552      1.0  0.44438  0.87442  0.00682  1.0000
  C   C553      1.0  0.47308  0.61781  0.99313  1.0000
  H   H550      1.0  0.40933  0.91833  0.78273  1.0000
  C   C554      1.0  0.35680  0.93115  0.79164  1.0000
  H   H551      1.0  0.34842  0.94092  0.81499  1.0000
  C   C555      1.0  0.43512  0.87879  0.99224  1.0000
  H   H552      1.0  0.16615  0.64671  0.78545  1.0000
  C   C556      1.0  0.19854  0.66861  0.00728  1.0000
  H   H553      1.0  0.34289  0.60210  0.00757  1.0000
  H   H554      1.0  0.44522  0.00544  0.96378  1.0000
  S   S183      1.0  0.20446  0.80615  0.00713  1.0000
  C   C557      1.0  0.24130  0.59180  0.76423  1.0000
  C   C558      1.0  0.50327  0.78928  0.86335  1.0000
  C   C559      1.0  0.23775  0.64040  0.76274  1.0000
  H   H555      1.0  0.11836  0.58131  0.99686  1.0000
  H   H556      1.0  0.24226  0.57274  0.76477  1.0000
  C   C560      1.0  0.12088  0.59758  0.00484  1.0000
  H   H557      1.0  0.51772  0.87643  0.00565  1.0000
  C   C561      1.0  0.50875  0.79724  0.89147  1.0000
  H   H558      1.0  0.50153  0.80073  0.90271  1.0000
  C   C562      1.0  0.51613  0.89121  0.99729  1.0000
  H   H559      1.0  0.10089  0.64658  0.01001  1.0000
  C   C563      1.0  0.52167  0.71336  0.87233  1.0000
  S   S184      1.0  0.52153  0.74540  0.92219  1.0000
  S   S185      1.0  0.52142  0.72644  0.96604  1.0000
  H   H560      1.0  0.42647  0.01820  0.93659  1.0000
  H   H561      1.0  0.48119  0.01782  0.96246  1.0000
  H   H562      1.0  0.45298  0.71242  0.01182  1.0000
  C   C564      1.0  0.11132  0.63436  0.01207  1.0000
  Fe  Fe92      1.0  0.57384  0.39729  0.19729  1.0000
  Fe  Fe93      1.0  0.62075  0.44614  0.18259  1.0000
  S   S186      1.0  0.60841  0.43166  0.15775  1.0000
  S   S187      1.0  0.65903  0.48221  0.19040  1.0000
  Fe  Fe94      1.0  0.56622  0.42039  0.16585  1.0000
  Fe  Fe95      1.0  0.60031  0.39091  0.16727  1.0000
  S   S188      1.0  0.61166  0.36394  0.15273  1.0000
  S   S189      1.0  0.57911  0.43858  0.19019  1.0000
  S   S190      1.0  0.61644  0.40629  0.19138  1.0000
  Fe  Fe96      1.0  0.65441  0.26719  0.18633  1.0000
  S   S191      1.0  0.66760  0.26987  0.16120  1.0000
  S   S192      1.0  0.61692  0.27026  0.19277  1.0000
  Fe  Fe97      1.0  0.70484  0.26693  0.19939  1.0000
  S   S193      1.0  0.72312  0.26973  0.17520  1.0000
  S   S194      1.0  0.72798  0.26771  0.22158  1.0000
  Fe  Fe98      1.0  0.70808  0.30024  0.17013  1.0000
  S   S195      1.0  0.72888  0.33799  0.15549  1.0000
  Fe  Fe99      1.0  0.68121  0.23902  0.16806  1.0000
  S   S196      1.0  0.67061  0.20384  0.15137  1.0000
  S   S197      1.0  0.69382  0.30049  0.19478  1.0000
  S   S198      1.0  0.66406  0.23325  0.19272  1.0000
  S   S199      1.0  0.82011  0.43226  0.19524  1.0000
  Fe  Fe100     1.0  0.66557  0.20874  0.04395  1.0000
  S   S200      1.0  0.67924  0.19622  0.02217  1.0000
  S   S201      1.0  0.62612  0.21076  0.04526  1.0000
  Fe  Fe101     1.0  0.71304  0.21248  0.06304  1.0000
  S   S202      1.0  0.73069  0.19952  0.04258  1.0000
  S   S203      1.0  0.73448  0.22947  0.08627  1.0000
  Fe  Fe102     1.0  0.72124  0.22844  0.02818  1.0000
  H   H563      1.0  0.77921  0.24467  0.19593  1.0000
  Fe  Fe103     1.0  0.68712  0.16808  0.03822  1.0000
  S   S204      1.0  0.66998  0.12621  0.02688  1.0000
  S   S205      1.0  0.70647  0.24332  0.04877  1.0000
  S   S206      1.0  0.67062  0.17887  0.05981  1.0000
  C   C565      1.0  0.56221  0.39181  0.23783  1.0000
  H   H564      1.0  0.61676  0.02668  0.02670  1.0000
  H   H565      1.0  0.59516  0.45517  0.12659  1.0000
  H   H566      1.0  0.79161  0.26555  0.02743  1.0000
  C   C566      1.0  0.55921  0.37823  0.25233  1.0000
  H   H567      1.0  0.57633  0.45569  0.06941  1.0000
  C   C567      1.0  0.75852  0.23061  0.19272  1.0000
  C   C568      1.0  0.63656  0.23240  0.01528  1.0000
  C   C569      1.0  0.72653  0.26835  0.25403  1.0000
  H   H568      1.0  0.53724  0.30684  0.02684  1.0000
  H   H569      1.0  0.59593  0.39984  0.10363  1.0000
  H   H570      1.0  0.78007  0.47697  0.22886  1.0000
  C   C570      1.0  0.65368  0.09395  0.03636  1.0000
  C   C571      1.0  0.65511  0.09094  0.05272  1.0000
  C   C572      1.0  0.64318  0.06478  0.05962  1.0000
  S   S207      1.0  0.86018  0.51327  0.19491  1.0000
  C   C573      1.0  0.62724  0.04446  0.03401  1.0000
  C   C574      1.0  0.63959  0.07059  0.02708  1.0000
  H   H571      1.0  0.66601  0.10869  0.06000  1.0000
  H   H572      1.0  0.64499  0.06265  0.07223  1.0000
  C   C575      1.0  0.58244  0.47359  0.10815  1.0000
  H   H573      1.0  0.83601  0.35640  0.03680  1.0000
  C   C576      1.0  0.68898  0.21030  0.13352  1.0000
  C   C577      1.0  0.67733  0.19334  0.12046  1.0000
  C   C578      1.0  0.69101  0.19897  0.10586  1.0000
  C   C579      1.0  0.71679  0.22113  0.10441  1.0000
  C   C580      1.0  0.72880  0.23751  0.11764  1.0000
  C   C581      1.0  0.71484  0.23233  0.13210  1.0000
  H   H574      1.0  0.65743  0.17610  0.12152  1.0000
  H   H575      1.0  0.68171  0.18603  0.09580  1.0000
  H   H576      1.0  0.74885  0.25455  0.11662  1.0000
  H   H577      1.0  0.72413  0.24538  0.14212  1.0000
  C   C582      1.0  0.75459  0.36384  0.16647  1.0000
  C   C583      1.0  0.76562  0.39067  0.16104  1.0000
  C   C584      1.0  0.78542  0.41169  0.16997  1.0000
  C   C585      1.0  0.79484  0.40596  0.18416  1.0000
  C   C586      1.0  0.78383  0.37906  0.18958  1.0000
  C   C587      1.0  0.76352  0.35803  0.18082  1.0000
  H   H578      1.0  0.75867  0.39527  0.15000  1.0000
  H   H579      1.0  0.79348  0.43227  0.16575  1.0000
  H   H580      1.0  0.79096  0.37446  0.20057  1.0000
  H   H581      1.0  0.75507  0.33731  0.18510  1.0000
  C   C588      1.0  0.85421  0.39802  0.01671  1.0000
  C   C589      1.0  0.55610  0.28486  0.21921  1.0000
  C   C590      1.0  0.71120  0.26172  0.24003  1.0000
  C   C591      1.0  0.68287  0.24945  0.24098  1.0000
  H   H582      1.0  0.59163  0.42351  0.08036  1.0000
  C   C592      1.0  0.66662  0.51584  0.02575  1.0000
  H   H583      1.0  0.67082  0.24430  0.23029  1.0000
  N   N45       1.0  0.54437  0.27819  0.01346  1.0000
  H   H584      1.0  0.68421  0.18259  0.18165  1.0000
  C   C593      1.0  0.68733  0.48373  0.18035  1.0000
  H   H585      1.0  0.55570  0.32439  0.16929  1.0000
  H   H586      1.0  0.71924  0.19952  0.16084  1.0000
  C   C594      1.0  0.71337  0.49811  0.18682  1.0000
  H   H587      1.0  0.74382  0.22632  0.21655  1.0000
  H   H588      1.0  0.66417  0.45962  0.16073  1.0000
  C   C595      1.0  0.54122  0.39180  0.12802  1.0000
  H   H589      1.0  0.64755  0.50055  0.03058  1.0000
  H   H590      1.0  0.55449  0.26157  0.18207  1.0000
  H   H591      1.0  0.55972  0.28095  0.23135  1.0000
  C   C596      1.0  0.61455  0.33880  0.16402  1.0000
  C   C597      1.0  0.61740  0.31794  0.15639  1.0000
  C   C598      1.0  0.61875  0.29713  0.16525  1.0000
  C   C599      1.0  0.61720  0.29718  0.18175  1.0000
  C   C600      1.0  0.61483  0.31828  0.18940  1.0000
  C   C601      1.0  0.61334  0.33898  0.18053  1.0000
  H   H592      1.0  0.61812  0.31762  0.14361  1.0000
  H   H593      1.0  0.62015  0.28062  0.15929  1.0000
  H   H594      1.0  0.61376  0.31841  0.20217  1.0000
  H   H595      1.0  0.61087  0.35478  0.18651  1.0000
  H   H596      1.0  0.70390  0.46213  0.14640  1.0000
  Fe  Fe104     1.0  0.82649  0.47330  0.18695  1.0000
  C   C602      1.0  0.53848  0.38016  0.11298  1.0000
  C   C603      1.0  0.55091  0.30665  0.21561  1.0000
  S   S208      1.0  0.76027  0.48669  0.15413  1.0000
  H   H597      1.0  0.67049  0.18557  0.20787  1.0000
  C   C604      1.0  0.54891  0.30382  0.01749  1.0000
  C   C605      1.0  0.52921  0.38970  0.10010  1.0000
  N   N46       1.0  0.59197  0.14534  0.01352  1.0000
  N   N47       1.0  0.69898  0.38252  0.16536  1.0000
  C   C606      1.0  0.69738  0.36638  0.17804  1.0000
  C   C607      1.0  0.71440  0.41009  0.16616  1.0000
  C   C608      1.0  0.71249  0.37771  0.19174  1.0000
  C   C609      1.0  0.72944  0.42211  0.17975  1.0000
  C   C610      1.0  0.72880  0.40576  0.19251  1.0000
  C   C611      1.0  0.68453  0.37047  0.15066  1.0000
  H   H598      1.0  0.68512  0.34452  0.17740  1.0000
  H   H599      1.0  0.71561  0.42295  0.15615  1.0000
  H   H600      1.0  0.71207  0.36470  0.20149  1.0000
  H   H601      1.0  0.74192  0.44393  0.18015  1.0000
  H   H602      1.0  0.74121  0.41477  0.20287  1.0000
  H   H603      1.0  0.67466  0.34791  0.15114  1.0000
  H   H604      1.0  0.66866  0.37703  0.14842  1.0000
  H   H605      1.0  0.69906  0.37681  0.14064  1.0000
  C   C612      1.0  0.59161  0.45556  0.11397  1.0000
  H   H606      1.0  0.61651  0.15645  0.03414  1.0000
  H   H607      1.0  0.69260  0.17609  0.21920  1.0000
  N   N48       1.0  0.54860  0.29596  0.18796  1.0000
  H   H608      1.0  0.57152  0.43011  0.22667  1.0000
  C   C613      1.0  0.57697  0.47371  0.09203  1.0000
  S   S209      1.0  0.79315  0.48267  0.19432  1.0000
  C   C614      1.0  0.53409  0.41266  0.13036  1.0000
  Fe  Fe105     1.0  0.79649  0.49921  0.16984  1.0000
  C   C615      1.0  0.58077  0.45592  0.08195  1.0000
  C   C616      1.0  0.78725  0.46960  0.23882  1.0000
  H   H609      1.0  0.59868  0.41384  0.12284  1.0000
  H   H610      1.0  0.57890  0.48680  0.11622  1.0000
  N   N49       1.0  0.64113  0.46198  0.25716  1.0000
  S   S210      1.0  0.54016  0.42957  0.14867  1.0000
  H   H611      1.0  0.54343  0.32913  0.19715  1.0000
  H   H612      1.0  0.55361  0.35678  0.25247  1.0000
  C   C617      1.0  0.81161  0.44651  0.24937  1.0000
  H   H613      1.0  0.90175  0.50866  0.11984  1.0000
  C   C618      1.0  0.82060  0.50868  0.10776  1.0000
  H   H614      1.0  0.63847  0.07268  0.01440  1.0000
  H   H615      1.0  0.69429  0.20925  0.22137  1.0000
  C   C619      1.0  0.73836  0.22027  0.20433  1.0000
  H   H616      1.0  0.82309  0.43537  0.24733  1.0000
  C   C620      1.0  0.73597  0.49905  0.17885  1.0000
  H   H617      1.0  0.57486  0.20343  0.03318  1.0000
  C   C621      1.0  0.59000  0.21343  0.02413  1.0000
  C   C622      1.0  0.70660  0.47203  0.15772  1.0000
  H   H618      1.0  0.78902  0.31944  0.03946  1.0000
  S   S211      1.0  0.55763  0.37372  0.22003  1.0000
  H   H619      1.0  0.85588  0.50196  0.12666  1.0000
  C   C623      1.0  0.54713  0.31192  0.19983  1.0000
  C   C624      1.0  0.73254  0.48615  0.16423  1.0000
  C   C625      1.0  0.63123  0.41977  0.23633  1.0000
  C   C626      1.0  0.79369  0.33553  0.03079  1.0000
  C   C627      1.0  0.62925  0.41505  0.25261  1.0000
  N   N50       1.0  0.67964  0.25879  0.10963  1.0000
  C   C628      1.0  0.68295  0.25638  0.09378  1.0000
  C   C629      1.0  0.65625  0.24101  0.11705  1.0000
  C   C630      1.0  0.66256  0.23571  0.08499  1.0000
  C   C631      1.0  0.63561  0.21990  0.10864  1.0000
  C   C632      1.0  0.63883  0.21733  0.09248  1.0000
  C   C633      1.0  0.70069  0.28136  0.11850  1.0000
  H   H620      1.0  0.70163  0.27012  0.08788  1.0000
  H   H621      1.0  0.65373  0.24256  0.12965  1.0000
  H   H622      1.0  0.66515  0.23372  0.07245  1.0000
  H   H623      1.0  0.61747  0.20542  0.11469  1.0000
  H   H624      1.0  0.62311  0.20105  0.08572  1.0000
  H   H625      1.0  0.70076  0.27594  0.13117  1.0000
  H   H626      1.0  0.72124  0.28660  0.11385  1.0000
  H   H627      1.0  0.69722  0.29953  0.11778  1.0000
  S   S212      1.0  0.55706  0.37827  0.17367  1.0000
  H   H628      1.0  0.62640  0.40312  0.22817  1.0000
  C   C634      1.0  0.67002  0.24340  0.25585  1.0000
  H   H629      1.0  0.59912  0.12030  0.03043  1.0000
  S   S213      1.0  0.82747  0.48678  0.16183  1.0000
  H   H630      1.0  0.64811  0.23358  0.25652  1.0000
  C   C635      1.0  0.75167  0.22309  0.17698  1.0000
  C   C636      1.0  0.54496  0.30211  0.17150  1.0000
  H   H631      1.0  0.55013  0.31963  0.22495  1.0000
  C   C637      1.0  0.56934  0.41951  0.23777  1.0000
  H   H632      1.0  0.75602  0.51008  0.18391  1.0000
  H   H633      1.0  0.85880  0.41202  0.02690  1.0000
  H   H634      1.0  0.62273  0.39467  0.25719  1.0000
  C   C638      1.0  0.91020  0.48700  0.02491  1.0000
  C   C639      1.0  0.61707  0.21959  0.02703  1.0000
  H   H635      1.0  0.85751  0.51815  0.23102  1.0000
  C   C640      1.0  0.79820  0.28034  0.01791  1.0000
  C   C641      1.0  0.56441  0.13221  0.01548  1.0000
  H   H636      1.0  0.62773  0.14148  0.01872  1.0000
  C   C642      1.0  0.55289  0.27406  0.19143  1.0000
  C   C643      1.0  0.88932  0.51169  0.11088  1.0000
  S   S214      1.0  0.55316  0.40961  0.04053  1.0000
  C   C644      1.0  0.60477  0.41929  0.11029  1.0000
  H   H637      1.0  0.63940  0.44961  0.21793  1.0000
  H   H638      1.0  0.71603  0.50838  0.19801  1.0000
  C   C645      1.0  0.69129  0.19297  0.21277  1.0000
  H   H639      1.0  0.62723  0.42894  0.10954  1.0000
  H   H640      1.0  0.80530  0.45018  0.22441  1.0000
  C   C646      1.0  0.82022  0.35641  0.02919  1.0000
  H   H641      1.0  0.80532  0.48811  0.10406  1.0000
  H   H642      1.0  0.55545  0.11810  0.02523  1.0000
  N   N51       1.0  0.59478  0.43780  0.10405  1.0000
  C   C647      1.0  0.62928  0.04140  0.05032  1.0000
  H   H643      1.0  0.64783  0.48676  0.23654  1.0000
  H   H644      1.0  0.74844  0.27786  0.25341  1.0000
  H   H645      1.0  0.65756  0.23744  0.01748  1.0000
  Fe  Fe106     1.0  0.54573  0.44583  0.03816  1.0000
  H   H646      1.0  0.92304  0.48248  0.03278  1.0000
  C   C648      1.0  0.80155  0.45479  0.23634  1.0000
  C   C649      1.0  0.63831  0.44581  0.23057  1.0000
  C   C650      1.0  0.72486  0.20541  0.17306  1.0000
  N   N52       1.0  0.82637  0.37611  0.01787  1.0000
  C   C651      1.0  0.59699  0.49873  0.01925  1.0000
  C   C652      1.0  0.86331  0.50798  0.11469  1.0000
  H   H647      1.0  0.84055  0.29851  0.02457  1.0000
  C   C653      1.0  0.57355  0.43356  0.25214  1.0000
  C   C654      1.0  0.55700  0.26837  0.20707  1.0000
  C   C655      1.0  0.64308  0.46678  0.24120  1.0000
  H   H648      1.0  0.53465  0.24928  0.03201  1.0000
  H   H649      1.0  0.56182  0.25183  0.20965  1.0000
  H   H650      1.0  0.57903  0.45499  0.25200  1.0000
  C   C656      1.0  0.58968  0.43794  0.08820  1.0000
  C   C657      1.0  0.68403  0.47054  0.16586  1.0000
  H   H651      1.0  0.56940  0.48723  0.08735  1.0000
  H   H652      1.0  0.54916  0.38484  0.13775  1.0000
  H   H653      1.0  0.76702  0.23115  0.16781  1.0000
  S   S215      1.0  0.57969  0.48856  0.03738  1.0000
  H   H654      1.0  0.54429  0.36420  0.11123  1.0000
  H   H655      1.0  0.55384  0.29302  0.16309  1.0000
  C   C658      1.0  0.60961  0.14069  0.02478  1.0000
  N   N53       1.0  0.71196  0.20355  0.20032  1.0000
  C   C659      1.0  0.70510  0.19586  0.18493  1.0000
  C   C660      1.0  0.82591  0.29903  0.01626  1.0000
  S   S216      1.0  0.52970  0.37707  0.08105  1.0000
  C   C661      1.0  0.78309  0.47584  0.25420  1.0000
  C   C662      1.0  0.88947  0.51552  0.01757  1.0000
  H   H656      1.0  0.86885  0.38947  0.01659  1.0000
  C   C663      1.0  0.90602  0.50969  0.02776  1.0000
  H   H657      1.0  0.81853  0.51075  0.12071  1.0000
  H   H658      1.0  0.87261  0.50844  0.25693  1.0000
  N   N54       1.0  0.84794  0.51293  0.10368  1.0000
  H   H659      1.0  0.77280  0.48813  0.25623  1.0000
  H   H660      1.0  0.75307  0.31805  0.02139  1.0000
  C   C664      1.0  0.77348  0.33479  0.02065  1.0000
  H   H661      1.0  0.99105  0.50676  0.01357  1.0000
  C   C665      1.0  0.52447  0.25463  0.02227  1.0000
  H   H662      1.0  0.52307  0.29446  0.16884  1.0000
  C   C666      1.0  0.85948  0.51806  0.25656  1.0000
  C   C667      1.0  0.52354  0.42130  0.11766  1.0000
  H   H663      1.0  0.62575  0.20266  0.47942  1.0000
  C   C668      1.0  0.54187  0.41069  0.40858  1.0000
  Fe  Fe107     1.0  0.73587  0.22547  0.46883  1.0000
  S   S217      1.0  0.70345  0.23845  0.46533  1.0000
  S   S218      1.0  0.77783  0.26200  0.46900  1.0000
  Fe  Fe108     1.0  0.69337  0.16460  0.46956  1.0000
  S   S219      1.0  0.65847  0.17411  0.46625  1.0000
  S   S220      1.0  0.68584  0.12169  0.47631  1.0000
  Fe  Fe109     1.0  0.68528  0.20427  0.44797  1.0000
  S   S221      1.0  0.66817  0.21291  0.42549  1.0000
  Fe  Fe110     1.0  0.68031  0.20743  0.48372  1.0000
  C   C669      1.0  0.58132  0.12769  0.49403  1.0000
  S   S222      1.0  0.71916  0.19285  0.45007  1.0000
  S   S223      1.0  0.71372  0.19637  0.48840  1.0000
  Fe  Fe111     1.0  0.55309  0.39704  0.33959  1.0000
  S   S224      1.0  0.58159  0.43854  0.33051  1.0000
  Fe  Fe112     1.0  0.58295  0.37055  0.32275  1.0000
  S   S225      1.0  0.61454  0.40965  0.31260  1.0000
  S   S226      1.0  0.58375  0.33142  0.31725  1.0000
  Fe  Fe113     1.0  0.61397  0.42662  0.33650  1.0000
  S   S227      1.0  0.65016  0.45364  0.35092  1.0000
  Fe  Fe114     1.0  0.57938  0.41797  0.30725  1.0000
  S   S228      1.0  0.58573  0.38657  0.34723  1.0000
  Fe  Fe115     1.0  0.71723  0.25568  0.34133  1.0000
  S   S229      1.0  0.67521  0.24829  0.33468  1.0000
  S   S230      1.0  0.72622  0.23006  0.35899  1.0000
  Fe  Fe116     1.0  0.74400  0.30861  0.32257  1.0000
  S   S231      1.0  0.70427  0.30589  0.31466  1.0000
  S   S232      1.0  0.78173  0.34556  0.31487  1.0000
  Fe  Fe117     1.0  0.69081  0.29268  0.33953  1.0000
  S   S233      1.0  0.67145  0.31158  0.35504  1.0000
  Fe  Fe118     1.0  0.69274  0.26202  0.31024  1.0000
  S   S234      1.0  0.66857  0.24145  0.28836  1.0000
  S   S235      1.0  0.73147  0.29900  0.34787  1.0000
  S   S236      1.0  0.73363  0.26549  0.31648  1.0000
  H   H664      1.0  0.57742  0.19301  0.47843  1.0000
  H   H665      1.0  0.64547  0.48577  0.37856  1.0000
  Fe  Fe119     1.0  0.80249  0.48465  0.33794  1.0000
  S   S237      1.0  0.78578  0.44580  0.35175  1.0000
  C   C670      1.0  0.78532  0.37417  0.32543  1.0000
  C   C671      1.0  0.79598  0.39968  0.31803  1.0000
  C   C672      1.0  0.79698  0.42216  0.32617  1.0000
  C   C673      1.0  0.78757  0.41908  0.34175  1.0000
  C   C674      1.0  0.77808  0.39389  0.34933  1.0000
  C   C675      1.0  0.77684  0.37149  0.34116  1.0000
  H   H666      1.0  0.80284  0.40182  0.30592  1.0000
  H   H667      1.0  0.80472  0.44171  0.32038  1.0000
  H   H668      1.0  0.77132  0.39160  0.36148  1.0000
  H   H669      1.0  0.76979  0.35228  0.34715  1.0000
  C   C676      1.0  0.57114  0.42014  0.26663  1.0000
  H   H670      1.0  0.72574  0.26818  0.27959  1.0000
  H   H671      1.0  0.90613  0.43953  0.47752  1.0000
  C   C677      1.0  0.67730  0.47622  0.33931  1.0000
  C   C678      1.0  0.70216  0.49257  0.34656  1.0000
  C   C679      1.0  0.86769  0.46686  0.50459  1.0000
  H   H672      1.0  0.62537  0.48569  0.26843  1.0000
  H   H673      1.0  0.69588  0.49338  0.30090  1.0000
  C   C680      1.0  0.67481  0.47699  0.32286  1.0000
  H   H674      1.0  0.63156  0.48790  0.40633  1.0000
  C   C681      1.0  0.55479  0.40686  0.38153  1.0000
  C   C682      1.0  0.64196  0.16541  0.38353  1.0000
  H   H675      1.0  0.65548  0.46497  0.31724  1.0000
  C   C683      1.0  0.60866  0.32653  0.32760  1.0000
  C   C684      1.0  0.62123  0.34203  0.34096  1.0000
  C   C685      1.0  0.64004  0.33692  0.34960  1.0000
  C   C686      1.0  0.64704  0.31693  0.34456  1.0000
  C   C687      1.0  0.63500  0.30187  0.33099  1.0000
  C   C688      1.0  0.61552  0.30641  0.32265  1.0000
  H   H676      1.0  0.61640  0.35784  0.34474  1.0000
  H   H677      1.0  0.64968  0.34888  0.35996  1.0000
  H   H678      1.0  0.64045  0.28650  0.32699  1.0000
  H   H679      1.0  0.60592  0.29442  0.31228  1.0000
  H   H680      1.0  0.56204  0.38188  0.27780  1.0000
  C   C689      1.0  0.78671  0.34153  0.49333  1.0000
  H   H681      1.0  0.62913  0.49301  0.48221  1.0000
  H   H682      1.0  0.57051  0.41033  0.37302  1.0000
  C   C690      1.0  0.71369  0.26289  0.26889  1.0000
  C   C691      1.0  0.86446  0.48102  0.49163  1.0000
  C   C692      1.0  0.91616  0.48135  0.47259  1.0000
  H   H683      1.0  0.85411  0.47005  0.48112  1.0000
  C   C693      1.0  0.65949  0.09026  0.46951  1.0000
  C   C694      1.0  0.65634  0.06586  0.47652  1.0000
  C   C695      1.0  0.63584  0.04046  0.47142  1.0000
  C   C696      1.0  0.61840  0.03920  0.45910  1.0000
  C   C697      1.0  0.62126  0.06362  0.45228  1.0000
  C   C698      1.0  0.64156  0.08902  0.45750  1.0000
  H   H684      1.0  0.67013  0.06658  0.48581  1.0000
  C   C699      1.0  0.66041  0.17881  0.35271  1.0000
  H   H685      1.0  0.60792  0.06287  0.44272  1.0000
  H   H686      1.0  0.64373  0.10757  0.45197  1.0000
  C   C700      1.0  0.68542  0.21835  0.40734  1.0000
  C   C701      1.0  0.67799  0.23029  0.39481  1.0000
  C   C702      1.0  0.69091  0.23454  0.38007  1.0000
  C   C703      1.0  0.71113  0.22658  0.37770  1.0000
  C   C704      1.0  0.71865  0.21468  0.39023  1.0000
  C   C705      1.0  0.70591  0.21068  0.40505  1.0000
  H   H687      1.0  0.66209  0.23619  0.39650  1.0000
  H   H688      1.0  0.68482  0.24349  0.37044  1.0000
  H   H689      1.0  0.73433  0.20851  0.38846  1.0000
  H   H690      1.0  0.71173  0.20141  0.41463  1.0000
  C   C706      1.0  0.79739  0.27676  0.48625  1.0000
  H   H691      1.0  0.82381  0.31391  0.47415  1.0000
  S   S238      1.0  0.79275  0.48764  0.31255  1.0000
  H   H692      1.0  0.81675  0.37051  0.50896  1.0000
  N   N55       1.0  0.67176  0.16708  0.36253  1.0000
  N   N56       1.0  0.94391  0.51375  0.49204  1.0000
  H   H693      1.0  0.58795  0.31620  0.36967  1.0000
  H   H694      1.0  0.70407  0.49238  0.35930  1.0000
  C   C707      1.0  0.60639  0.47715  0.36892  1.0000
  H   H695      1.0  0.70297  0.17314  0.34580  1.0000
  H   H696      1.0  0.63405  0.02188  0.47671  1.0000
  C   C708      1.0  0.58826  0.47689  0.49115  1.0000
  N   N57       1.0  0.75622  0.29863  0.50503  1.0000
  H   H697      1.0  0.71493  0.27255  0.49939  1.0000
  H   H698      1.0  0.90419  0.47680  0.46183  1.0000
  H   H699      1.0  0.57924  0.46411  0.48098  1.0000
  S   S239      1.0  0.54747  0.37733  0.31569  1.0000
  H   H700      1.0  0.63521  0.11575  0.48780  1.0000
  C   C709      1.0  0.63041  0.17755  0.37365  1.0000
  H   H701      1.0  0.52905  0.29797  0.49366  1.0000
  C   C710      1.0  0.61595  0.20484  0.48996  1.0000
  C   C711      1.0  0.58861  0.19938  0.48941  1.0000
  C   C712      1.0  0.57193  0.47683  0.50371  1.0000
  C   C713      1.0  0.62507  0.48267  0.38116  1.0000
  C   C714      1.0  0.94546  0.49343  0.50058  1.0000
  C   C715      1.0  0.81902  0.30320  0.48535  1.0000
  H   H702      1.0  0.55879  0.36894  0.49544  1.0000
  C   C716      1.0  0.62283  0.12371  0.49340  1.0000
  C   C717      1.0  0.73348  0.27132  0.50331  1.0000
  C   C718      1.0  0.87559  0.50949  0.49198  1.0000
  S   S240      1.0  0.66381  0.21748  0.50557  1.0000
  H   H703      1.0  0.81023  0.44636  0.28926  1.0000
  H   H704      1.0  0.56174  0.12349  0.48903  1.0000
  C   C719      1.0  0.57565  0.20180  0.50307  1.0000
  H   H705      1.0  0.55823  0.30579  0.34621  1.0000
  C   C720      1.0  0.72280  0.50847  0.32087  1.0000
  C   C721      1.0  0.66263  0.16013  0.37771  1.0000
  S   S241      1.0  0.85659  0.43168  0.50334  1.0000
  H   H706      1.0  0.67196  0.15128  0.38558  1.0000
  S   S242      1.0  0.79308  0.51769  0.34620  1.0000
  C   C722      1.0  0.81928  0.44492  0.27782  1.0000
  N   N58       1.0  0.53377  0.32256  0.35592  1.0000
  H   H707      1.0  0.68580  0.13951  0.35451  1.0000
  H   H708      1.0  0.52984  0.45227  0.38329  1.0000
  C   C723      1.0  0.52779  0.39647  0.37665  1.0000
  S   S243      1.0  0.84703  0.51146  0.33519  1.0000
  N   N59       1.0  0.57238  0.47333  0.38768  1.0000
  C   C724      1.0  0.59075  0.47935  0.39975  1.0000
  C   C725      1.0  0.57996  0.47248  0.37239  1.0000
  H   H709      1.0  0.63562  0.43990  0.50098  1.0000
  H   H710      1.0  0.63110  0.19414  0.35040  1.0000
  H   H711      1.0  0.67179  0.14252  0.50442  1.0000
  C   C726      1.0  0.55438  0.31550  0.35632  1.0000
  H   H712      1.0  0.84144  0.45872  0.27841  1.0000
  H   H713      1.0  0.63128  0.43236  0.27552  1.0000
  H   H714      1.0  0.52845  0.31795  0.33090  1.0000
  H   H715      1.0  0.79111  0.47322  0.27879  1.0000
  S   S244      1.0  0.86051  0.51618  0.28905  1.0000
  H   H716      1.0  0.77533  0.24255  0.50163  1.0000
  H   H717      1.0  0.79407  0.35460  0.48301  1.0000
  S   S245      1.0  0.53692  0.45480  0.50387  1.0000
  N   N60       1.0  0.73062  0.29508  0.39797  1.0000
  C   C727      1.0  0.75111  0.29126  0.39139  1.0000
  C   C728      1.0  0.72242  0.28674  0.41316  1.0000
  C   C729      1.0  0.76459  0.27969  0.40025  1.0000
  C   C730      1.0  0.73551  0.27519  0.42236  1.0000
  C   C731      1.0  0.75682  0.27179  0.41588  1.0000
  C   C732      1.0  0.71650  0.30685  0.38838  1.0000
  H   H718      1.0  0.75690  0.29676  0.37914  1.0000
  H   H719      1.0  0.70530  0.28843  0.41816  1.0000
  H   H720      1.0  0.78056  0.27637  0.39490  1.0000
  H   H721      1.0  0.72866  0.26815  0.43430  1.0000
  H   H722      1.0  0.76681  0.26244  0.42286  1.0000
  H   H723      1.0  0.70633  0.31589  0.39584  1.0000
  H   H724      1.0  0.73093  0.32333  0.38056  1.0000
  H   H725      1.0  0.70087  0.29098  0.38083  1.0000
  H   H726      1.0  0.59045  0.10504  0.47640  1.0000
  C   C733      1.0  0.56652  0.33390  0.38262  1.0000
  H   H727      1.0  0.56539  0.46756  0.36281  1.0000
  H   H728      1.0  0.58468  0.47974  0.41190  1.0000
  H   H729      1.0  0.64901  0.47962  0.28027  1.0000
  S   S246      1.0  0.54104  0.19327  0.50234  1.0000
  C   C734      1.0  0.93224  0.46655  0.49536  1.0000
  C   C735      1.0  0.91728  0.46047  0.48136  1.0000
  H   H730      1.0  0.60722  0.39514  0.48823  1.0000
  H   H731      1.0  0.57969  0.33892  0.39290  1.0000
  C   C736      1.0  0.63958  0.18423  0.35811  1.0000
  C   C737      1.0  0.69758  0.49320  0.31364  1.0000
  H   H732      1.0  0.66797  0.18482  0.34076  1.0000
  C   C738      1.0  0.61728  0.48388  0.39669  1.0000
  H   H733      1.0  0.85082  0.33652  0.49802  1.0000
  H   H734      1.0  0.58279  0.42227  0.40103  1.0000
  N   N61       1.0  0.70549  0.41456  0.34012  1.0000
  C   C739      1.0  0.71601  0.39661  0.34130  1.0000
  C   C740      1.0  0.68516  0.41016  0.32956  1.0000
  C   C741      1.0  0.70649  0.37372  0.33161  1.0000
  C   C742      1.0  0.67489  0.38726  0.31979  1.0000
  C   C743      1.0  0.68581  0.36906  0.32078  1.0000
  C   C744      1.0  0.71647  0.43912  0.34984  1.0000
  H   H735      1.0  0.73178  0.39987  0.34983  1.0000
  H   H736      1.0  0.67670  0.42433  0.32875  1.0000
  H   H737      1.0  0.71484  0.35948  0.33270  1.0000
  H   H738      1.0  0.65830  0.38339  0.31169  1.0000
  H   H739      1.0  0.67785  0.35101  0.31345  1.0000
  H   H740      1.0  0.73015  0.43851  0.35932  1.0000
  H   H741      1.0  0.72853  0.45721  0.34232  1.0000
  H   H742      1.0  0.69976  0.44154  0.35562  1.0000
  H   H743      1.0  0.75575  0.30812  0.48061  1.0000
  C   C745      1.0  0.92977  0.50808  0.47810  1.0000
  C   C746      1.0  0.57119  0.32123  0.36961  1.0000
  H   H744      1.0  0.73859  0.25972  0.49444  1.0000
  C   C747      1.0  0.61648  0.49325  0.49185  1.0000
  C   C748      1.0  0.68536  0.25012  0.26987  1.0000
  N   N62       1.0  0.55973  0.39866  0.51174  1.0000
  H   H745      1.0  0.63562  0.16097  0.39580  1.0000
  C   C749      1.0  0.79949  0.35046  0.50791  1.0000
  C   C750      1.0  0.63037  0.21281  0.50417  1.0000
  C   C751      1.0  0.56174  0.41371  0.39744  1.0000
  C   C752      1.0  0.83438  0.31609  0.49888  1.0000
  S   S247      1.0  0.57934  0.43906  0.28429  1.0000
  C   C753      1.0  0.76503  0.31534  0.49208  1.0000
  C   C754      1.0  0.59851  0.40300  0.49702  1.0000
  C   C755      1.0  0.57109  0.38834  0.50111  1.0000
  C   C756      1.0  0.72491  0.50856  0.33734  1.0000
  C   C757      1.0  0.59739  0.11745  0.48694  1.0000
  C   C758      1.0  0.69365  0.16154  0.35682  1.0000
  C   C759      1.0  0.79163  0.26306  0.50079  1.0000
  H   H746      1.0  0.54093  0.34995  0.39237  1.0000
  H   H747      1.0  0.61484  0.18237  0.37815  1.0000
  H   H748      1.0  0.61238  0.47617  0.35683  1.0000
  S   S248      1.0  0.54038  0.40449  0.47093  1.0000
  C   C760      1.0  0.56390  0.39239  0.26670  1.0000
  N   N63       1.0  0.63226  0.14021  0.50632  1.0000
  C   C761      1.0  0.79352  0.46733  0.26693  1.0000
  H   H749      1.0  0.71031  0.16830  0.36569  1.0000
  C   C762      1.0  0.61444  0.42800  0.50420  1.0000
  S   S249      1.0  0.55238  0.42455  0.42759  1.0000
  C   C763      1.0  0.54462  0.46854  0.39104  1.0000
  H   H750      1.0  0.66143  0.50351  0.26421  1.0000
  H   H751      1.0  0.81580  0.42358  0.27661  1.0000
  C   C764      1.0  0.54482  0.34009  0.38234  1.0000
  C   C765      1.0  0.64448  0.48383  0.26803  1.0000
  C   C766      1.0  0.62845  0.50964  0.50508  1.0000
  C   C767      1.0  0.59071  0.14373  0.50752  1.0000
  H   H752      1.0  0.54287  0.48750  0.38912  1.0000
  H   H753      1.0  0.53873  0.46148  0.40344  1.0000
  Fe  Fe120     1.0  0.52333  0.41195  0.44837  1.0000
  C   C768      1.0  0.52835  0.33393  0.36888  1.0000
  H   H754      1.0  0.93331  0.45048  0.50224  1.0000
  Fe  Fe121     1.0  0.83656  0.51778  0.31026  1.0000
  H   H755      1.0  0.91518  0.50830  0.33795  1.0000
  H   H756      1.0  0.95670  0.49784  0.51161  1.0000
  N   N64       1.0  0.80742  0.45271  0.26442  1.0000
  C   C769      1.0  0.63421  0.43650  0.26292  1.0000
  Fe  Fe122     1.0  0.80242  0.38132  0.69649  1.0000
  S   S250      1.0  0.78702  0.35910  0.67354  1.0000
  S   S251      1.0  0.79026  0.35889  0.71988  1.0000
  Fe  Fe123     1.0  0.82680  0.43608  0.68025  1.0000
  S   S252      1.0  0.81332  0.41903  0.65598  1.0000
  S   S253      1.0  0.84924  0.48069  0.68502  1.0000
  Fe  Fe124     1.0  0.77448  0.39129  0.66809  1.0000
  S   S254      1.0  0.73418  0.38279  0.65761  1.0000
  Fe  Fe125     1.0  0.82732  0.38850  0.66330  1.0000
  S   S255      1.0  0.84706  0.37137  0.64635  1.0000
  S   S256      1.0  0.78664  0.41118  0.69165  1.0000
  S   S257      1.0  0.84412  0.40781  0.68690  1.0000
  H   H757      1.0  0.83222  0.41382  0.72618  1.0000
  S   S258      1.0  0.68741  0.43447  0.67073  1.0000
  Fe  Fe126     1.0  0.60444  0.26523  0.68362  1.0000
  S   S259      1.0  0.58988  0.29040  0.66946  1.0000
  S   S260      1.0  0.64573  0.26793  0.68089  1.0000
  Fe  Fe127     1.0  0.55430  0.24009  0.70410  1.0000
  Fe  Fe128     1.0  0.54987  0.25287  0.66935  1.0000
  Fe  Fe129     1.0  0.57708  0.29852  0.69310  1.0000
  S   S261      1.0  0.58270  0.33948  0.70065  1.0000
  S   S262      1.0  0.56546  0.22663  0.68145  1.0000
  S   S263      1.0  0.59468  0.27632  0.70738  1.0000
  H   H758      1.0  0.86909  0.38254  0.73697  1.0000
  C   C770      1.0  0.54979  0.23819  0.59845  1.0000
  Fe  Fe130     1.0  0.87411  0.36367  0.53301  1.0000
  S   S264      1.0  0.85192  0.38693  0.54048  1.0000
  S   S265      1.0  0.84704  0.31805  0.53087  1.0000
  Fe  Fe131     1.0  0.92908  0.41511  0.53072  1.0000
  S   S266      1.0  0.90998  0.44130  0.53769  1.0000
  S   S267      1.0  0.97255  0.44292  0.52302  1.0000
  Fe  Fe132     1.0  0.88771  0.40988  0.55626  1.0000
  S   S268      1.0  0.88570  0.42907  0.57948  1.0000
  Fe  Fe133     1.0  0.87601  0.41611  0.52145  1.0000
  S   S269      1.0  0.70635  0.48204  0.70691  1.0000
  S   S270      1.0  0.90889  0.38483  0.55046  1.0000
  C   C771      1.0  0.68767  0.51707  0.61503  1.0000
  C   C772      1.0  0.53276  0.24090  0.62945  1.0000
  Fe  Fe134     1.0  0.69646  0.47474  0.68123  1.0000
  S   S271      1.0  0.56043  0.23430  0.57944  1.0000
  H   H759      1.0  0.98666  0.41380  0.54763  1.0000
  H   H760      1.0  0.80288  0.26493  0.52542  1.0000
  H   H761      1.0  0.88236  0.47029  0.52846  1.0000
  H   H762      1.0  0.70168  0.44934  0.63284  1.0000
  H   H763      1.0  0.58031  0.21210  0.52779  1.0000
  C   C773      1.0  0.56816  0.24531  0.61114  1.0000
  C   C774      1.0  0.55966  0.24655  0.62664  1.0000
  H   H764      1.0  0.57377  0.25141  0.63641  1.0000
  H   H765      1.0  0.58889  0.24929  0.60902  1.0000
  H   H766      1.0  0.65692  0.13499  0.52386  1.0000
  C   C775      1.0  0.59926  0.21407  0.74500  1.0000
  H   H767      1.0  0.56757  0.25397  0.74254  1.0000
  C   C776      1.0  0.65940  0.40834  0.68008  1.0000
  C   C777      1.0  0.65406  0.38137  0.67784  1.0000
  C   C778      1.0  0.63129  0.36016  0.68486  1.0000
  C   C779      1.0  0.61331  0.36587  0.69374  1.0000
  C   C780      1.0  0.61894  0.39290  0.69624  1.0000
  C   C781      1.0  0.64213  0.41415  0.68954  1.0000
  H   H768      1.0  0.66755  0.37691  0.67064  1.0000
  H   H769      1.0  0.62757  0.33945  0.68321  1.0000
  H   H770      1.0  0.60517  0.39746  0.70316  1.0000
  H   H771      1.0  0.64622  0.43498  0.69143  1.0000
  C   C782      1.0  0.85761  0.38731  0.62771  1.0000
  C   C783      1.0  0.86085  0.41353  0.62502  1.0000
  C   C784      1.0  0.86914  0.42582  0.61010  1.0000
  C   C785      1.0  0.87377  0.41186  0.59764  1.0000
  C   C786      1.0  0.87019  0.38545  0.60021  1.0000
  C   C787      1.0  0.86242  0.37334  0.61527  1.0000
  H   H772      1.0  0.85765  0.42466  0.63453  1.0000
  H   H773      1.0  0.87214  0.44636  0.60823  1.0000
  H   H774      1.0  0.87384  0.37456  0.59071  1.0000
  H   H775      1.0  0.86009  0.35307  0.61729  1.0000
  S   S272      1.0  0.65395  0.49609  0.72720  1.0000
  C   C788      1.0  0.80136  0.48294  0.69044  1.0000
  H   H776      1.0  0.63910  0.48150  0.75971  1.0000
  C   C789      1.0  0.76316  0.50093  0.64068  1.0000
  H   H777      1.0  0.67611  0.49586  0.61193  1.0000
  C   C790      1.0  0.53124  0.31366  0.66348  1.0000
  H   H778      1.0  0.79132  0.46387  0.68430  1.0000
  H   H779      1.0  0.76472  0.48689  0.69348  1.0000
  S   S273      1.0  0.53098  0.20869  0.72260  1.0000
  H   H780      1.0  0.55508  0.15669  0.60034  1.0000
  C   C791      1.0  0.70882  0.35202  0.66502  1.0000
  C   C792      1.0  0.71459  0.33859  0.67737  1.0000
  C   C793      1.0  0.69502  0.31286  0.68234  1.0000
  C   C794      1.0  0.66943  0.30073  0.67517  1.0000
  C   C795      1.0  0.66341  0.31445  0.66307  1.0000
  C   C796      1.0  0.68316  0.34002  0.65792  1.0000
  H   H781      1.0  0.73417  0.34793  0.68309  1.0000
  H   H782      1.0  0.69970  0.30230  0.69173  1.0000
  H   H783      1.0  0.64387  0.30494  0.65729  1.0000
  H   H784      1.0  0.67867  0.35031  0.64831  1.0000
  C   C797      1.0  0.80101  0.37818  0.73734  1.0000
  H   H785      1.0  0.68461  0.50919  0.64022  1.0000
  C   C798      1.0  0.58801  0.32934  0.74335  1.0000
  H   H786      1.0  0.77300  0.44121  0.65748  1.0000
  C   C799      1.0  0.82246  0.40455  0.73723  1.0000
  C   C800      1.0  0.71497  0.47101  0.63576  1.0000
  C   C801      1.0  0.98202  0.47628  0.56228  1.0000
  H   H787      1.0  0.61897  0.34841  0.62690  1.0000
  H   H788      1.0  0.69969  0.47711  0.74578  1.0000
  C   C802      1.0  0.52277  0.17615  0.61892  1.0000
  C   C803      1.0  0.99231  0.44961  0.58723  1.0000
  H   H789      1.0  0.62402  0.16326  0.52365  1.0000
  C   C804      1.0  0.79259  0.48402  0.65192  1.0000
  C   C805      1.0  0.66788  0.51360  0.74497  1.0000
  H   H790      1.0  0.53567  0.29261  0.63605  1.0000
  S   S274      1.0  0.66859  0.49390  0.68080  1.0000
  H   H791      1.0  0.97764  0.48587  0.55222  1.0000
  C   C806      1.0  0.79053  0.33314  0.52101  1.0000
  C   C807      1.0  0.96087  0.45700  0.57137  1.0000
  H   H792      1.0  0.53718  0.31864  0.67610  1.0000
  C   C808      1.0  0.00490  0.43156  0.54402  1.0000
  C   C809      1.0  0.65650  0.50141  0.75952  1.0000
  H   H793      1.0  0.55926  0.18291  0.73906  1.0000
  H   H794      1.0  0.92769  0.40897  0.58499  1.0000
  H   H795      1.0  0.76251  0.29365  0.52952  1.0000
  H   H796      1.0  0.55379  0.17853  0.58468  1.0000
  H   H797      1.0  0.56634  0.43116  0.52743  1.0000
  C   C810      1.0  0.78885  0.50567  0.64608  1.0000
  C   C811      1.0  0.76874  0.30716  0.51936  1.0000
  C   C812      1.0  0.60144  0.35585  0.64785  1.0000
  H   H798      1.0  0.81239  0.48740  0.65624  1.0000
  C   C813      1.0  0.78848  0.36642  0.75173  1.0000
  H   H799      1.0  0.83043  0.33672  0.73302  1.0000
  C   C814      1.0  0.74513  0.45411  0.64727  1.0000
  S   S275      1.0  0.73332  0.51194  0.67323  1.0000
  H   H800      1.0  0.71663  0.48335  0.62501  1.0000
  H   H801      1.0  0.56865  0.19311  0.60310  1.0000
  H   H802      1.0  0.99658  0.43907  0.59682  1.0000
  N   N65       1.0  0.74614  0.31550  0.64025  1.0000
  C   C815      1.0  0.74338  0.33696  0.63402  1.0000
  C   C816      1.0  0.76910  0.31291  0.63743  1.0000
  C   C817      1.0  0.76398  0.35661  0.62478  1.0000
  C   C818      1.0  0.78974  0.33175  0.62787  1.0000
  C   C819      1.0  0.78727  0.35389  0.62165  1.0000
  C   C820      1.0  0.72516  0.29588  0.65069  1.0000
  H   H803      1.0  0.72534  0.33923  0.63634  1.0000
  H   H804      1.0  0.77175  0.29641  0.64274  1.0000
  H   H805      1.0  0.76205  0.37403  0.62029  1.0000
  H   H806      1.0  0.80805  0.32979  0.62579  1.0000
  H   H807      1.0  0.80363  0.36914  0.61466  1.0000
  H   H808      1.0  0.72099  0.27478  0.64781  1.0000
  H   H809      1.0  0.73195  0.30019  0.66320  1.0000
  H   H810      1.0  0.70565  0.29689  0.64955  1.0000
  C   C821      1.0  0.00874  0.48240  0.56594  1.0000
  H   H811      1.0  0.57636  0.30758  0.61924  1.0000
  H   H812      1.0  0.93400  0.43428  0.59988  1.0000
  H   H813      1.0  0.94015  0.45246  0.56853  1.0000
  C   C822      1.0  0.88081  0.48110  0.51819  1.0000
  H   H814      1.0  0.77175  0.34607  0.75188  1.0000
  H   H815      1.0  0.84911  0.43876  0.75144  1.0000
  C   C823      1.0  0.71482  0.49304  0.75300  1.0000
  N   N66       1.0  0.55523  0.32351  0.65329  1.0000
  H   H816      1.0  0.54026  0.18476  0.62671  1.0000
  H   H817      1.0  0.60564  0.21877  0.73276  1.0000
  C   C824      1.0  0.57819  0.34650  0.65729  1.0000
  H   H818      1.0  0.60312  0.33890  0.73415  1.0000
  S   S276      1.0  0.53552  0.26330  0.69189  1.0000
  H   H819      1.0  0.57124  0.49351  0.52656  1.0000
  N   N67       1.0  0.96615  0.44384  0.58360  1.0000
  C   C825      1.0  0.83629  0.34472  0.74489  1.0000
  N   N68       1.0  0.75492  0.41794  0.72496  1.0000
  C   C826      1.0  0.74369  0.39032  0.72335  1.0000
  C   C827      1.0  0.74642  0.43276  0.71556  1.0000
  C   C828      1.0  0.72334  0.37685  0.71213  1.0000
  C   C829      1.0  0.72621  0.41996  0.70416  1.0000
  C   C830      1.0  0.71472  0.39184  0.70242  1.0000
  C   C831      1.0  0.77759  0.43206  0.73592  1.0000
  H   H820      1.0  0.75085  0.37857  0.73049  1.0000
  H   H821      1.0  0.75557  0.45467  0.71669  1.0000
  H   H822      1.0  0.71479  0.35500  0.71073  1.0000
  H   H823      1.0  0.71979  0.43179  0.69656  1.0000
  H   H824      1.0  0.69947  0.38175  0.69339  1.0000
  H   H825      1.0  0.77683  0.44997  0.74125  1.0000
  H   H826      1.0  0.77726  0.41855  0.74579  1.0000
  H   H827      1.0  0.79712  0.43913  0.72945  1.0000
  H   H828      1.0  0.57875  0.35753  0.66796  1.0000
  C   C832      1.0  0.60096  0.34165  0.63418  1.0000
  C   C833      1.0  0.55206  0.17475  0.59767  1.0000
  H   H829      1.0  0.94985  0.41225  0.60122  1.0000
  H   H830      1.0  0.62862  0.22180  0.52879  1.0000
  C   C834      1.0  0.61198  0.50993  0.51747  1.0000
  C   C835      1.0  0.57323  0.19384  0.74854  1.0000
  S   S277      1.0  0.52678  0.17718  0.54866  1.0000
  C   C836      1.0  0.78631  0.49596  0.69567  1.0000
  N   N69       1.0  0.74181  0.47532  0.64113  1.0000
  C   C837      1.0  0.55037  0.24024  0.74952  1.0000
  N   N70       1.0  0.52554  0.17047  0.60351  1.0000
  Fe  Fe135     1.0  0.68183  0.50480  0.70619  1.0000
  H   H831      1.0  0.72804  0.43395  0.64824  1.0000
  C   C838      1.0  0.85795  0.37051  0.74709  1.0000
  C   C839      1.0  0.82952  0.49520  0.69266  1.0000
  C   C840      1.0  0.83199  0.41864  0.75154  1.0000
  H   H832      1.0  0.76026  0.51793  0.63638  1.0000
  H   H833      1.0  0.61975  0.37382  0.65125  1.0000
  C   C841      1.0  0.77057  0.45810  0.65260  1.0000
  H   H834      1.0  0.80379  0.31044  0.75607  1.0000
  C   C842      1.0  0.82121  0.33003  0.75798  1.0000
  H   H835      1.0  0.80099  0.33937  0.53225  1.0000
  H   H836      1.0  0.52858  0.37107  0.52671  1.0000
  C   C843      1.0  0.56215  0.30917  0.73941  1.0000
  C   C844      1.0  0.61677  0.22848  0.75728  1.0000
  C   C845      1.0  0.52950  0.21736  0.74241  1.0000
  H   H837      1.0  0.55718  0.30288  0.72719  1.0000
  C   C846      1.0  0.73468  0.51666  0.74590  1.0000
  C   C847      1.0  0.00354  0.44868  0.53221  1.0000
  C   C848      1.0  0.94346  0.42386  0.59293  1.0000
  H   H838      1.0  0.67022  0.16899  0.51565  1.0000
  C   C849      1.0  0.89170  0.50945  0.51861  1.0000
  C   C850      1.0  0.55420  0.31021  0.63953  1.0000
  C   C851      1.0  0.58379  0.49353  0.51680  1.0000
  C   C852      1.0  0.59017  0.21008  0.51723  1.0000
  H   H839      1.0  0.70492  0.47681  0.64527  1.0000
  C   C853      1.0  0.61752  0.21562  0.51777  1.0000
  H   H840      1.0  0.57850  0.15206  0.51301  1.0000
  C   C854      1.0  0.57712  0.31878  0.62989  1.0000
  C   C855      1.0  0.53094  0.38326  0.51582  1.0000
  H   H841      1.0  0.63704  0.24435  0.75469  1.0000
  C   C856      1.0  0.54272  0.29724  0.75130  1.0000
  C   C857      1.0  0.57534  0.42288  0.51906  1.0000
  C   C858      1.0  0.59418  0.33723  0.75911  1.0000
  Fe  Fe136     1.0  0.52290  0.19548  0.52575  1.0000
  S   S278      1.0  0.53001  0.23489  0.53677  1.0000
  Fe  Fe137     1.0  0.52912  0.21469  0.56007  1.0000
  C   C859      1.0  0.01400  0.46899  0.57847  1.0000
  C   C860      1.0  0.80733  0.27577  0.51426  1.0000
  H   H842      1.0  0.61509  0.45738  0.52100  1.0000
  C   C861      1.0  0.61644  0.14993  0.51350  1.0000
  H   H843      1.0  0.72858  0.25951  0.51454  1.0000
  C   C862      1.0  0.60291  0.43784  0.51546  1.0000
  C   C863      1.0  0.82862  0.30244  0.51343  1.0000
  C   C864      1.0  0.52313  0.23331  0.60127  1.0000
  C   C865      1.0  0.86432  0.38127  0.76230  1.0000
  S   S279      1.0  0.89619  0.39173  0.51290  1.0000
  C   C866      1.0  0.65907  0.14694  0.51291  1.0000
  H   H844      1.0  0.52273  0.28146  0.74812  1.0000
  Fe  Fe138     1.0  0.81732  0.40296  0.80728  1.0000
  S   S280      1.0  0.83183  0.37546  0.81891  1.0000
  S   S281      1.0  0.83447  0.42350  0.78382  1.0000
  Fe  Fe139     1.0  0.77850  0.39605  0.83420  1.0000
  S   S282      1.0  0.78881  0.36709  0.84765  1.0000
  S   S283      1.0  0.74615  0.40395  0.84529  1.0000
  Fe  Fe140     1.0  0.83183  0.39616  0.84171  1.0000
  S   S284      1.0  0.86595  0.41308  0.85968  1.0000
  Fe  Fe141     1.0  0.78759  0.34905  0.82386  1.0000
  S   S285      1.0  0.76951  0.30447  0.81896  1.0000
  S   S286      1.0  0.82158  0.42651  0.82961  1.0000
  S   S287      1.0  0.77308  0.37519  0.81083  1.0000
  S   S288      1.0  0.56896  0.29477  0.82173  1.0000
  S   S289      1.0  0.62865  0.44538  0.83974  1.0000
  Fe  Fe142     1.0  0.61677  0.26153  0.81806  1.0000
  S   S290      1.0  0.62889  0.30026  0.83114  1.0000
  S   S291      1.0  0.64153  0.23963  0.81401  1.0000
  Fe  Fe143     1.0  0.56224  0.25675  0.80904  1.0000
  Fe  Fe144     1.0  0.61037  0.31194  0.81088  1.0000
  S   S292      1.0  0.63105  0.35218  0.79840  1.0000
  Fe  Fe145     1.0  0.58673  0.27992  0.84124  1.0000
  S   S293      1.0  0.60221  0.27504  0.79677  1.0000
  S   S294      1.0  0.57582  0.23989  0.82954  1.0000
  Fe  Fe146     1.0  0.87575  0.38806  0.94968  1.0000
  S   S295      1.0  0.90534  0.37552  0.96065  1.0000
  S   S296      1.0  0.84785  0.36503  0.92949  1.0000
  Fe  Fe147     1.0  0.88370  0.42833  0.97632  1.0000
  S   S297      1.0  0.91355  0.41877  0.98930  1.0000
  S   S298      1.0  0.86828  0.45743  0.98416  1.0000
  Fe  Fe148     1.0  0.93157  0.42033  0.96528  1.0000
  S   S299      1.0  0.97510  0.44859  0.95779  1.0000
  Fe  Fe149     1.0  0.88439  0.37513  0.98356  1.0000
  C   C867      1.0  0.58686  0.16868  0.99069  1.0000
  S   S300      1.0  0.90294  0.43260  0.95257  1.0000
  S   S301      1.0  0.85363  0.38510  0.97230  1.0000
  S   S302      1.0  0.59295  0.24032  0.97900  1.0000
  N   N71       1.0  0.94347  0.51120  0.98144  1.0000
  Fe  Fe150     1.0  0.66283  0.48727  0.83596  1.0000
  C   C868      1.0  0.54737  0.13679  0.00494  1.0000
  C   C869      1.0  0.57292  0.19732  0.79273  1.0000
  H   H845      1.0  0.81149  0.39145  0.99902  1.0000
  C   C870      1.0  0.77991  0.35504  0.00918  1.0000
  C   C871      1.0  0.60183  0.23260  0.99768  1.0000
  H   H846      1.0  0.62161  0.23380  0.78242  1.0000
  H   H847      1.0  0.76815  0.39232  0.87816  1.0000
  C   C872      1.0  0.52827  0.29284  0.77903  1.0000
  H   H848      1.0  0.64416  0.24906  0.99165  1.0000
  N   N72       1.0  0.83044  0.44648  0.87692  1.0000
  C   C873      1.0  0.62924  0.51601  0.99181  1.0000
  S   S303      1.0  0.86968  0.34141  0.00206  1.0000
  H   H849      1.0  0.54573  0.15901  0.98433  1.0000
  H   H850      1.0  0.79924  0.50283  0.83877  1.0000
  H   H851      1.0  0.58111  0.29135  0.90089  1.0000
  H   H852      1.0  0.95179  0.48294  0.96846  1.0000
  C   C874      1.0  0.56797  0.32649  0.00924  1.0000
  C   C875      1.0  0.00944  0.44213  0.97962  1.0000
  C   C876      1.0  0.84883  0.36603  0.77512  1.0000
  H   H853      1.0  0.82198  0.33275  0.98347  1.0000
  H   H854      1.0  0.54236  0.30841  0.86366  1.0000
  C   C877      1.0  0.77919  0.28075  0.00713  1.0000
  C   C878      1.0  0.57425  0.32486  0.77070  1.0000
  C   C879      1.0  0.88221  0.47665  0.00132  1.0000
  H   H855      1.0  0.98210  0.47967  0.98886  1.0000
  C   C880      1.0  0.00694  0.45608  0.96639  1.0000
  H   H856      1.0  0.59588  0.18350  0.98124  1.0000
  H   H857      1.0  0.78626  0.38589  0.90407  1.0000
  C   C881      1.0  0.82007  0.40651  0.76600  1.0000
  H   H858      1.0  0.85324  0.37506  0.78679  1.0000
  C   C882      1.0  0.62894  0.41987  0.82773  1.0000
  C   C883      1.0  0.64472  0.42617  0.81401  1.0000
  C   C884      1.0  0.64479  0.40525  0.80476  1.0000
  C   C885      1.0  0.62934  0.37808  0.80934  1.0000
  C   C886      1.0  0.61357  0.37184  0.82304  1.0000
  C   C887      1.0  0.61316  0.39269  0.83213  1.0000
  H   H859      1.0  0.65660  0.44710  0.81045  1.0000
  H   H860      1.0  0.65708  0.41015  0.79418  1.0000
  H   H861      1.0  0.60197  0.35102  0.82681  1.0000
  H   H862      1.0  0.60094  0.38779  0.84273  1.0000
  C   C888      1.0  0.86143  0.39862  0.87879  1.0000
  C   C889      1.0  0.88098  0.41210  0.89052  1.0000
  C   C890      1.0  0.87721  0.40195  0.90611  1.0000
  C   C891      1.0  0.85398  0.37802  0.91000  1.0000
  C   C892      1.0  0.83467  0.36431  0.89822  1.0000
  C   C893      1.0  0.83831  0.37460  0.88269  1.0000
  H   H863      1.0  0.89901  0.43060  0.88756  1.0000
  H   H864      1.0  0.89230  0.41258  0.91507  1.0000
  H   H865      1.0  0.81672  0.34571  0.90112  1.0000
  H   H866      1.0  0.82328  0.36390  0.87374  1.0000
  C   C894      1.0  0.75107  0.43758  0.84513  1.0000
  C   C895      1.0  0.72958  0.44271  0.84955  1.0000
  C   C896      1.0  0.73299  0.46937  0.84977  1.0000
  C   C897      1.0  0.75821  0.49108  0.84609  1.0000
  C   C898      1.0  0.77982  0.48604  0.84181  1.0000
  C   C899      1.0  0.77611  0.45926  0.84106  1.0000
  H   H867      1.0  0.71025  0.42611  0.85284  1.0000
  H   H868      1.0  0.71622  0.47314  0.85306  1.0000
  C   C900      1.0  0.58235  0.21972  0.00944  1.0000
  H   H869      1.0  0.79266  0.45554  0.83737  1.0000
  C   C901      1.0  0.73390  0.28737  0.81773  1.0000
  C   C902      1.0  0.72112  0.25943  0.81484  1.0000
  C   C903      1.0  0.69281  0.24512  0.81374  1.0000
  C   C904      1.0  0.67701  0.25862  0.81549  1.0000
  C   C905      1.0  0.68969  0.28669  0.81825  1.0000
  C   C906      1.0  0.71818  0.30106  0.81944  1.0000
  H   H870      1.0  0.73315  0.24875  0.81355  1.0000
  H   H871      1.0  0.68314  0.22346  0.81161  1.0000
  H   H872      1.0  0.67760  0.29726  0.81941  1.0000
  H   H873      1.0  0.72798  0.32263  0.82168  1.0000
  C   C907      1.0  0.55873  0.15511  0.99247  1.0000
  H   H874      1.0  0.62413  0.51232  0.91143  1.0000
  C   C908      1.0  0.79845  0.40314  0.89657  1.0000
  Fe  Fe151     1.0  0.54898  0.21967  0.97171  1.0000
  H   H875      1.0  0.86466  0.50354  0.99657  1.0000
  H   H876      1.0  0.69811  0.47290  0.77515  1.0000
  H   H877      1.0  0.82346  0.32776  0.79700  1.0000
  C   C909      1.0  0.92564  0.51305  0.96917  1.0000
  C   C910      1.0  0.83473  0.31832  0.00392  1.0000
  H   H878      1.0  0.54418  0.17370  0.76690  1.0000
  H   H879      1.0  0.58996  0.20113  0.80098  1.0000
  H   H880      1.0  0.59719  0.34016  0.99030  1.0000
  C   C911      1.0  0.59612  0.47962  0.00822  1.0000
  C   C912      1.0  0.78808  0.29984  0.99475  1.0000
  H   H881      1.0  0.58353  0.45816  0.01042  1.0000
  S   S304      1.0  0.74429  0.25754  0.00809  1.0000
  C   C913      1.0  0.54707  0.23772  0.87649  1.0000
  C   C914      1.0  0.81561  0.31859  0.99321  1.0000
  C   C915      1.0  0.54937  0.24475  0.76585  1.0000
  S   S305      1.0  0.69931  0.49978  0.82037  1.0000
  C   C916      1.0  0.84062  0.44304  0.89104  1.0000
  C   C917      1.0  0.82468  0.42154  0.90116  1.0000
  C   C918      1.0  0.84766  0.46858  0.86621  1.0000
  H   H882      1.0  0.86142  0.45647  0.89434  1.0000
  H   H883      1.0  0.83301  0.41851  0.91220  1.0000
  H   H884      1.0  0.85938  0.46161  0.85848  1.0000
  H   H885      1.0  0.86212  0.48665  0.87291  1.0000
  N   N73       1.0  0.80304  0.26309  0.97079  1.0000
  C   C919      1.0  0.79560  0.27373  0.95813  1.0000
  C   C920      1.0  0.82959  0.27427  0.97551  1.0000
  C   C921      1.0  0.81491  0.29650  0.95004  1.0000
  C   C922      1.0  0.84939  0.29710  0.96772  1.0000
  C   C923      1.0  0.84194  0.30817  0.95489  1.0000
  C   C924      1.0  0.78256  0.23897  0.97894  1.0000
  H   H886      1.0  0.77459  0.26481  0.95434  1.0000
  H   H887      1.0  0.83550  0.26610  0.98565  1.0000
  H   H888      1.0  0.80908  0.30528  0.94013  1.0000
  H   H889      1.0  0.87026  0.30652  0.97185  1.0000
  H   H890      1.0  0.85701  0.32589  0.94872  1.0000
  H   H891      1.0  0.78823  0.23826  0.99151  1.0000
  H   H892      1.0  0.76263  0.23925  0.97924  1.0000
  H   H893      1.0  0.78009  0.22024  0.97290  1.0000
  N   N74       1.0  0.68569  0.36290  0.83518  1.0000
  C   C925      1.0  0.67081  0.37575  0.83953  1.0000
  C   C926      1.0  0.68775  0.34427  0.84506  1.0000
  C   C927      1.0  0.65662  0.36934  0.85384  1.0000
  C   C928      1.0  0.67390  0.33741  0.85950  1.0000
  C   C929      1.0  0.65789  0.34975  0.86377  1.0000
  C   C930      1.0  0.69812  0.36812  0.81944  1.0000
  H   H894      1.0  0.66986  0.39107  0.83189  1.0000
  H   H895      1.0  0.69976  0.33426  0.84170  1.0000
  H   H896      1.0  0.64447  0.37930  0.85704  1.0000
  H   H897      1.0  0.67495  0.32208  0.86709  1.0000
  H   H898      1.0  0.64628  0.34391  0.87466  1.0000
  H   H899      1.0  0.68260  0.35627  0.81045  1.0000
  H   H900      1.0  0.70703  0.39011  0.81648  1.0000
  H   H901      1.0  0.71491  0.36252  0.81893  1.0000
  S   S306      1.0  0.53247  0.18468  0.95487  1.0000
  H   H902      1.0  0.61422  0.35288  0.76239  1.0000
  H   H903      1.0  0.79643  0.33392  0.78929  1.0000
  S   S307      1.0  0.53073  0.24317  0.95904  1.0000
  C   C931      1.0  0.81083  0.32579  0.78638  1.0000
  C   C932      1.0  0.62897  0.23910  0.00069  1.0000
  H   H904      1.0  0.57915  0.33129  0.78290  1.0000
  C   C933      1.0  0.60790  0.22242  0.77295  1.0000
  H   H905      1.0  0.76440  0.35441  0.00110  1.0000
  C   C934      1.0  0.73282  0.51191  0.77856  1.0000
  C   C935      1.0  0.52990  0.21892  0.88775  1.0000
  H   H906      1.0  0.54562  0.23206  0.86417  1.0000
  H   H907      1.0  0.56385  0.21075  0.79600  1.0000
  C   C936      1.0  0.61232  0.48827  0.99454  1.0000
  H   H908      1.0  0.58974  0.29336  0.98373  1.0000
  H   H909      1.0  0.61214  0.47339  0.98625  1.0000
  H   H910      1.0  0.56140  0.21446  0.00731  1.0000
  S   S308      1.0  0.68669  0.50739  0.85770  1.0000
  C   C937      1.0  0.60330  0.16376  0.00150  1.0000
  C   C938      1.0  0.56697  0.27105  0.89719  1.0000
  S   S309      1.0  0.58430  0.28948  0.86710  1.0000
  S   S310      1.0  0.52562  0.36819  0.00218  1.0000
  S   S311      1.0  0.52425  0.23173  0.79528  1.0000
  C   C939      1.0  0.55002  0.25213  0.90848  1.0000
  H   H911      1.0  0.55745  0.17587  0.79448  1.0000
  C   C940      1.0  0.53100  0.22615  0.90373  1.0000
  H   H912      1.0  0.78843  0.37116  0.77706  1.0000
  H   H913      1.0  0.99148  0.42626  0.98504  1.0000
  H   H914      1.0  0.83530  0.47511  0.85860  1.0000
  C   C941      1.0  0.78836  0.40663  0.88206  1.0000
  H   H915      1.0  0.52630  0.32273  0.87647  1.0000
  C   C942      1.0  0.80477  0.42849  0.87233  1.0000
  N   N75       1.0  0.82772  0.34067  0.77287  1.0000
  H   H916      1.0  0.55260  0.31470  0.88380  1.0000
  H   H917      1.0  0.79694  0.43080  0.86101  1.0000
  H   H918      1.0  0.77354  0.30014  0.98628  1.0000
  N   N76       1.0  0.58229  0.20257  0.77629  1.0000
  C   C943      1.0  0.56529  0.26405  0.88113  1.0000
  H   H919      1.0  0.55102  0.25794  0.92075  1.0000
  H   H920      1.0  0.65904  0.50502  0.78501  1.0000
  H   H921      1.0  0.55595  0.25428  0.99862  1.0000
  H   H922      1.0  0.56549  0.26234  0.77126  1.0000
  C   C944      1.0  0.57837  0.29664  0.99319  1.0000
  H   H923      1.0  0.66573  0.49160  0.00571  1.0000
  H   H924      1.0  0.62519  0.17496  0.00031  1.0000
  C   C945      1.0  0.55912  0.27447  0.00166  1.0000
  C   C946      1.0  0.58266  0.32280  0.99695  1.0000
  C   C947      1.0  0.53469  0.30804  0.87584  1.0000
  C   C948      1.0  0.80661  0.37579  0.00800  1.0000
  C   C949      1.0  0.52718  0.22676  0.77495  1.0000
  C   C950      1.0  0.56486  0.18863  0.76432  1.0000
  H   H925      1.0  0.53738  0.29020  0.79023  1.0000
  C   C951      1.0  0.71387  0.49075  0.76945  1.0000
  C   C952      1.0  0.79790  0.38057  0.76601  1.0000
  N   N77       1.0  0.54901  0.30497  0.76673  1.0000
  C   C953      1.0  0.89857  0.47069  0.01160  1.0000
  H   H926      1.0  0.85744  0.41012  0.00568  1.0000
  H   H927      1.0  0.52547  0.12634  0.00642  1.0000
  C   C954      1.0  0.87740  0.49888  0.00445  1.0000
  C   C955      1.0  0.95557  0.49483  0.97917  1.0000
  C   C956      1.0  0.97285  0.49298  0.99067  1.0000
  H   H928      1.0  0.73212  0.51054  0.79137  1.0000
  C   C957      1.0  0.66774  0.51471  0.77385  1.0000
  H   H929      1.0  0.90250  0.45371  0.00931  1.0000
  H   H930      1.0  0.53395  0.33725  0.97781  1.0000
  H   H931      1.0  0.65666  0.51462  0.89061  1.0000
  H   H932      1.0  0.79884  0.30371  0.78399  1.0000
  H   H933      1.0  0.91445  0.49330  0.96297  1.0000
  C   C958      1.0  0.97797  0.50827  0.00447  1.0000
  H   H934      1.0  0.88034  0.40178  0.76411  1.0000
  H   H935      1.0  0.90987  0.51768  0.97441  1.0000
  H   H936      1.0  0.57066  0.34669  0.01207  1.0000
  C   C959      1.0  0.67684  0.51078  0.01181  1.0000
  S   S312      1.0  0.54776  0.94697  0.06379  1.0000
  C   C960      1.0  0.52561  0.87165  0.12966  1.0000
  S   S313      1.0  0.89380  0.55195  0.15456  1.0000
  C   C961      1.0  0.82630  0.61453  0.02236  1.0000
  C   C962      1.0  0.52429  0.85964  0.23594  1.0000
  H   H937      1.0  0.53893  0.75648  0.19523  1.0000
  C   C963      1.0  0.68041  0.54123  0.03298  1.0000
  C   C964      1.0  0.85536  0.57178  0.11979  1.0000
  C   C965      1.0  0.89353  0.60403  0.17588  1.0000
  N   N78       1.0  0.86622  0.60196  0.19833  1.0000
  S   S314      1.0  0.56419  0.95581  0.02597  1.0000
  H   H938      1.0  0.92563  0.57445  0.12644  1.0000
  H   H939      1.0  0.59140  0.99693  0.09044  1.0000
  Fe  Fe152     1.0  0.55478  0.91037  0.06315  1.0000
  S   S315      1.0  0.59458  0.93186  0.05028  1.0000
  C   C966      1.0  0.60225  0.96437  0.09313  1.0000
  Fe  Fe153     1.0  0.58593  0.96793  0.04936  1.0000
  C   C967      1.0  0.93272  0.69243  0.03328  1.0000
  Fe  Fe154     1.0  0.56952  0.91774  0.02804  1.0000
  H   H940      1.0  0.88611  0.53299  0.01970  1.0000
  C   C968      1.0  0.58950  0.93946  0.11723  1.0000
  C   C969      1.0  0.61351  0.92687  0.09717  1.0000
  Fe  Fe155     1.0  0.89018  0.59346  0.06696  1.0000
  S   S316      1.0  0.90024  0.62872  0.05036  1.0000
  S   S317      1.0  0.86428  0.58700  0.08873  1.0000
  Fe  Fe156     1.0  0.91469  0.56745  0.04532  1.0000
  S   S318      1.0  0.92692  0.60033  0.02695  1.0000
  C   C970      1.0  0.57801  0.95569  0.12264  1.0000
  Fe  Fe157     1.0  0.94079  0.62884  0.04758  1.0000
  S   S319      1.0  0.97870  0.66976  0.04709  1.0000
  Fe  Fe158     1.0  0.88559  0.59762  0.03108  1.0000
  H   H941      1.0  0.84301  0.62354  0.20081  1.0000
  S   S320      1.0  0.93169  0.59604  0.06583  1.0000
  S   S321      1.0  0.87240  0.56221  0.04779  1.0000
  C   C971      1.0  0.53613  0.88544  0.10201  1.0000
  H   H942      1.0  0.71498  0.60273  0.02735  1.0000
  H   H943      1.0  0.55677  0.80884  0.02570  1.0000
  H   H944      1.0  0.95494  0.67838  0.01844  1.0000
  C   C972      1.0  0.57851  0.97639  0.11294  1.0000
  S   S322      1.0  0.53048  0.89364  0.04100  1.0000
  H   H945      1.0  0.87502  0.58721  0.21988  1.0000
  C   C973      1.0  0.52620  0.90430  0.10402  1.0000
  H   H946      1.0  0.80029  0.63047  0.03161  1.0000
  H   H947      1.0  0.90507  0.70230  0.04622  1.0000
  C   C974      1.0  0.88034  0.59236  0.20754  1.0000
  S   S323      1.0  0.61597  0.00891  0.05955  1.0000
  H   H948      1.0  0.84347  0.60467  0.21807  1.0000
  H   H949      1.0  0.61182  0.96804  0.08159  1.0000
  H   H950      1.0  0.94914  0.70172  0.04178  1.0000
  S   S324      1.0  0.82243  0.54295  0.22316  1.0000
  H   H951      1.0  0.67178  0.54526  0.04351  1.0000
  S   S325      1.0  0.82655  0.54152  0.17654  1.0000
  C   C975      1.0  0.86133  0.56334  0.13433  1.0000
  H   H952      1.0  0.99844  0.63103  0.03837  1.0000
  H   H953      1.0  0.83569  0.57101  0.11798  1.0000
  C   C976      1.0  0.56550  0.84878  0.01714  1.0000
  H   H954      1.0  0.86731  0.67942  0.02691  1.0000
  Fe  Fe159     1.0  0.85761  0.52781  0.17024  1.0000
  H   H955      1.0  0.71144  0.58715  0.04661  1.0000
  C   C977      1.0  0.85096  0.52356  0.24186  1.0000
  H   H956      1.0  0.56804  0.95164  0.13408  1.0000
  H   H957      1.0  0.52697  0.87628  0.22810  1.0000
  H   H958      1.0  0.82384  0.58678  0.20121  1.0000
  C   C978      1.0  0.01569  0.65090  0.03950  1.0000
  S   S326      1.0  0.55095  0.88296  0.08405  1.0000
  C   C979      1.0  0.83396  0.53597  0.24128  1.0000
  C   C980      1.0  0.93588  0.67911  0.02005  1.0000
  H   H959      1.0  0.91447  0.58806  0.10044  1.0000
  C   C981      1.0  0.87420  0.58015  0.10738  1.0000
  H   H960      1.0  0.58836  0.92294  0.12466  1.0000
  H   H961      1.0  0.60314  0.90615  0.10245  1.0000
  C   C982      1.0  0.88657  0.56405  0.13674  1.0000
  C   C983      1.0  0.90597  0.57368  0.12461  1.0000
  C   C984      1.0  0.89969  0.58139  0.10988  1.0000
  H   H962      1.0  0.56379  0.85620  0.02867  1.0000
  C   C985      1.0  0.59083  0.98089  0.09812  1.0000
  H   H963      1.0  0.52648  0.83429  0.21730  1.0000
  H   H964      1.0  0.56923  0.98881  0.11683  1.0000
  C   C986      1.0  0.01169  0.67312  0.04382  1.0000
  H   H965      1.0  0.61128  0.92393  0.08414  1.0000
  C   C987      1.0  0.84307  0.60449  0.20491  1.0000
  C   C988      1.0  0.71835  0.58741  0.03427  1.0000
  Fe  Fe160     1.0  0.82654  0.52357  0.20056  1.0000
  H   H966      1.0  0.92383  0.59059  0.17989  1.0000
  H   H967      1.0  0.74057  0.59410  0.03468  1.0000
  N   N79       1.0  0.70415  0.56075  0.02673  1.0000
  H   H968      1.0  0.89800  0.60778  0.16334  1.0000
  C   C989      1.0  0.90802  0.59428  0.18518  1.0000
  C   C990      1.0  0.90798  0.69266  0.03578  1.0000
  H   H969      1.0  0.84558  0.52526  0.08000  1.0000
  H   H970      1.0  0.61391  0.54131  0.02475  1.0000
  H   H971      1.0  0.84624  0.55604  0.14358  1.0000
  N   N80       1.0  0.60109  0.94370  0.10255  1.0000
  C   C991      1.0  0.56152  0.82191  0.01541  1.0000
  C   C992      1.0  0.53554  0.86895  0.11484  1.0000
  C   C993      1.0  0.87249  0.60767  0.18267  1.0000
  H   H972      1.0  0.86074  0.61440  0.17522  1.0000
  H   H973      1.0  0.91207  0.58007  0.20834  1.0000
  C   C994      1.0  0.90139  0.58833  0.20111  1.0000
  C   C995      1.0  0.82561  0.54283  0.25546  1.0000
  C   C996      1.0  0.80512  0.62183  0.02140  1.0000
  H   H974      1.0  0.83767  0.61758  0.03323  1.0000
  H   H975      1.0  0.54316  0.85429  0.11336  1.0000
  H   H976      1.0  0.63536  0.93660  0.10031  1.0000
  C   C997      1.0  0.71424  0.55597  0.01302  1.0000
  H   H977      1.0  0.81243  0.55240  0.25513  1.0000
  H   H978      1.0  0.91965  0.52345  0.09254  1.0000
  S   S327      1.0  0.92285  0.53132  0.04358  1.0000
  H   H979      1.0  0.52647  0.91704  0.09422  1.0000
  Fe  Fe161     1.0  0.52675  0.93228  0.04050  1.0000
  C   C998      1.0  0.52359  0.83597  0.22984  1.0000
  C   C999      1.0  0.89939  0.52010  0.09564  1.0000
  H   H980      1.0  0.89116  0.53135  0.07258  1.0000
  H   H981      1.0  0.96943  0.53706  0.01733  1.0000
  H   H982      1.0  0.81615  0.52423  0.10188  1.0000
  H   H983      1.0  0.52579  0.85923  0.13953  1.0000
  C   C1000     1.0  0.85757  0.52092  0.08867  1.0000
  C   C1001     1.0  0.61333  0.52645  0.01630  1.0000
  H   H984      1.0  0.53210  0.67652  0.03028  1.0000
  C   C1002     1.0  0.88340  0.52462  0.08442  1.0000
  C   C1003     1.0  0.88684  0.67985  0.02498  1.0000
  Fe  Fe162     1.0  0.90608  0.58094  0.48329  1.0000
  S   S328      1.0  0.91274  0.62388  0.48558  1.0000
  N   N81       1.0  0.54744  0.99516  0.50231  1.0000
  Fe  Fe163     1.0  0.90015  0.58071  0.44751  1.0000
  S   S329      1.0  0.90591  0.62355  0.44713  1.0000
  S   S330      1.0  0.89152  0.55218  0.42676  1.0000
  Fe  Fe164     1.0  0.94005  0.63204  0.46443  1.0000
  S   S331      1.0  0.97996  0.67120  0.46288  1.0000
  Fe  Fe165     1.0  0.87825  0.61117  0.46842  1.0000
  S   S332      1.0  0.84161  0.61904  0.47064  1.0000
  S   S333      1.0  0.93591  0.58982  0.46352  1.0000
  S   S334      1.0  0.87002  0.56769  0.46742  1.0000
  C   C1004     1.0  0.52777  0.89628  0.40550  1.0000
  S   S335      1.0  0.58125  0.94761  0.48425  1.0000
  H   H985      1.0  0.94833  0.70236  0.50184  1.0000
  S   S336      1.0  0.57561  0.92870  0.44699  1.0000
  C   C1005     1.0  0.93291  0.69716  0.49275  1.0000
  Fe  Fe166     1.0  0.57641  0.91040  0.47091  1.0000
  S   S337      1.0  0.59953  0.88579  0.47467  1.0000
  Fe  Fe167     1.0  0.57622  0.96402  0.46068  1.0000
  N   N82       1.0  0.92069  0.69195  0.46521  1.0000
  H   H986      1.0  0.55581  0.86505  0.49797  1.0000
  S   S338      1.0  0.90565  0.55934  0.50593  1.0000
  H   H987      1.0  0.57532  0.87216  0.44154  1.0000
  C   C1006     1.0  0.88622  0.68107  0.48499  1.0000
  S   S339      1.0  0.86269  0.57947  0.35817  1.0000
  H   H988      1.0  0.57533  0.83167  0.45495  1.0000
  Fe  Fe168     1.0  0.53053  0.90865  0.45036  1.0000
  H   H989      1.0  0.52906  0.79467  0.27090  1.0000
  C   C1007     1.0  0.57012  0.81372  0.50974  1.0000
  C   C1008     1.0  0.87167  0.53943  0.39650  1.0000
  C   C1009     1.0  0.95792  0.54173  0.49787  1.0000
  C   C1010     1.0  0.53058  0.89416  0.38908  1.0000
  C   C1011     1.0  0.92874  0.69481  0.44854  1.0000
  C   C1012     1.0  0.91449  0.52736  0.33601  1.0000
  H   H990      1.0  0.54383  0.86966  0.43450  1.0000
  H   H991      1.0  0.94544  0.68925  0.44680  1.0000
  S   S340      1.0  0.83054  0.55393  0.31634  1.0000
  C   C1013     1.0  0.55469  0.85759  0.43735  1.0000
  C   C1014     1.0  0.91066  0.53492  0.32079  1.0000
  H   H992      1.0  0.85929  0.62326  0.50355  1.0000
  C   C1015     1.0  0.86484  0.54501  0.38133  1.0000
  H   H993      1.0  0.91535  0.58041  0.35623  1.0000
  C   C1016     1.0  0.89405  0.68308  0.46914  1.0000
  H   H994      1.0  0.54550  0.01231  0.46403  1.0000
  C   C1017     1.0  0.81015  0.54894  0.49304  1.0000
  C   C1018     1.0  0.55711  0.83031  0.50894  1.0000
  H   H995      1.0  0.90466  0.56418  0.30681  1.0000
  H   H996      1.0  0.81436  0.54737  0.48067  1.0000
  H   H997      1.0  0.54429  0.91148  0.41228  1.0000
  H   H998      1.0  0.54937  0.90772  0.38328  1.0000
  H   H999      1.0  0.91166  0.68102  0.44088  1.0000
  H   H1000     1.0  0.90813  0.52173  0.31080  1.0000
  C   C1019     1.0  0.60172  0.84231  0.48955  1.0000
  C   C1020     1.0  0.58851  0.85875  0.48867  1.0000
  C   C1021     1.0  0.56615  0.85260  0.49845  1.0000
  C   C1022     1.0  0.01252  0.67242  0.46427  1.0000
  H   H1001     1.0  0.61908  0.84692  0.48206  1.0000
  H   H1002     1.0  0.62809  0.69786  0.50345  1.0000
  H   H1003     1.0  0.55196  0.79658  0.47543  1.0000
  H   H1004     1.0  0.95172  0.54262  0.51026  1.0000
  H   H1005     1.0  0.77174  0.54845  0.48832  1.0000
  H   H1006     1.0  0.87851  0.67697  0.46005  1.0000
  H   H1007     1.0  0.99784  0.62916  0.46551  1.0000
  C   C1023     1.0  0.88263  0.55995  0.40796  1.0000
  C   C1024     1.0  0.88698  0.58622  0.40406  1.0000
  C   C1025     1.0  0.88062  0.59193  0.38880  1.0000
  C   C1026     1.0  0.86938  0.57133  0.37742  1.0000
  H   H1008     1.0  0.66776  0.63928  0.50628  1.0000
  C   C1027     1.0  0.64121  0.65812  0.50485  1.0000
  H   H1009     1.0  0.89556  0.60222  0.41273  1.0000
  H   H1010     1.0  0.88426  0.61235  0.38584  1.0000
  H   H1011     1.0  0.91832  0.53786  0.36078  1.0000
  S   S341      1.0  0.59286  0.00785  0.45166  1.0000
  C   C1028     1.0  0.82523  0.61729  0.48888  1.0000
  N   N83       1.0  0.91094  0.57534  0.33117  1.0000
  C   C1029     1.0  0.53856  0.00598  0.47606  1.0000
  C   C1030     1.0  0.79850  0.61385  0.48883  1.0000
  N   N84       1.0  0.54050  0.83703  0.44954  1.0000
  H   H1012     1.0  0.57691  0.00954  0.48385  1.0000
  H   H1013     1.0  0.78802  0.61159  0.47769  1.0000
  C   C1031     1.0  0.55402  0.82519  0.45734  1.0000
  C   C1032     1.0  0.83868  0.62047  0.50334  1.0000
  H   H1014     1.0  0.84788  0.55112  0.50147  1.0000
  S   S342      1.0  0.66402  0.52834  0.50610  1.0000
  C   C1033     1.0  0.90869  0.55901  0.31860  1.0000
  C   C1034     1.0  0.90574  0.68782  0.49686  1.0000
  C   C1035     1.0  0.59253  0.81983  0.49998  1.0000
  C   C1036     1.0  0.83363  0.53681  0.27013  1.0000
  C   C1037     1.0  0.82899  0.55123  0.50468  1.0000
  C   C1038     1.0  0.01558  0.64878  0.46542  1.0000
  H   H1015     1.0  0.87381  0.52035  0.48176  1.0000
  H   H1016     1.0  0.65630  0.67621  0.49901  1.0000
  Fe  Fe169     1.0  0.83712  0.54510  0.34164  1.0000
  H   H1017     1.0  0.59860  0.67316  0.49278  1.0000
  H   H1018     1.0  0.89974  0.68564  0.50920  1.0000
  S   S343      1.0  0.75181  0.52616  0.30928  1.0000
  H   H1019     1.0  0.98022  0.54938  0.49734  1.0000
  H   H1020     1.0  0.91409  0.61334  0.33917  1.0000
  S   S344      1.0  0.53116  0.65518  0.50130  1.0000
  H   H1021     1.0  0.60286  0.80736  0.50053  1.0000
  C   C1039     1.0  0.90823  0.60017  0.32852  1.0000
  C   C1040     1.0  0.88956  0.52372  0.50543  1.0000
  H   H1022     1.0  0.88671  0.59476  0.32589  1.0000
  H   H1023     1.0  0.86499  0.67370  0.48801  1.0000
  H   H1024     1.0  0.55645  0.84769  0.42635  1.0000
  H   H1025     1.0  0.85619  0.52896  0.37267  1.0000
  H   H1026     1.0  0.96131  0.70698  0.47366  1.0000
  C   C1041     1.0  0.78511  0.61313  0.50309  1.0000
  C   C1042     1.0  0.94011  0.69947  0.47676  1.0000
  H   H1027     1.0  0.93573  0.71610  0.44456  1.0000
  C   C1043     1.0  0.54096  0.80543  0.46899  1.0000
  C   C1044     1.0  0.91630  0.54392  0.34881  1.0000
  H   H1028     1.0  0.92118  0.61213  0.31852  1.0000
  C   C1045     1.0  0.85067  0.52447  0.27074  1.0000
  C   C1046     1.0  0.91454  0.56800  0.34615  1.0000
  H   H1029     1.0  0.76445  0.61023  0.50289  1.0000
  C   C1047     1.0  0.78613  0.54941  0.49733  1.0000
  Fe  Fe170     1.0  0.53567  0.92627  0.48488  1.0000
  S   S345      1.0  0.53130  0.88833  0.47328  1.0000
  H   H1030     1.0  0.82660  0.54175  0.28096  1.0000
  S   S346      1.0  0.53065  0.94470  0.46231  1.0000
  C   C1048     1.0  0.64778  0.63729  0.50886  1.0000
  C   C1049     1.0  0.60963  0.67787  0.50424  1.0000
  H   H1031     1.0  0.95260  0.55569  0.49086  1.0000
  N   N85       1.0  0.61641  0.65611  0.50870  1.0000
  H   H1032     1.0  0.58225  0.98983  0.50805  1.0000
  C   C1050     1.0  0.55626  0.00423  0.48731  1.0000
  Fe  Fe171     1.0  0.78721  0.52329  0.32041  1.0000
  H   H1033     1.0  0.74408  0.52113  0.34300  1.0000
  H   H1034     1.0  0.92824  0.52408  0.47138  1.0000
  H   H1035     1.0  0.86822  0.51905  0.39942  1.0000
  H   H1036     1.0  0.56569  0.81379  0.59270  1.0000
  C   C1051     1.0  0.54765  0.76140  0.68245  1.0000
  H   H1037     1.0  0.83858  0.55654  0.52941  1.0000
  H   H1038     1.0  0.79836  0.54441  0.54899  1.0000
  S   S347      1.0  0.71033  0.56219  0.65514  1.0000
  C   C1052     1.0  0.78131  0.55235  0.51326  1.0000
  C   C1053     1.0  0.77313  0.56224  0.74722  1.0000
  S   S348      1.0  0.55734  0.78583  0.52317  1.0000
  S   S349      1.0  0.71691  0.54493  0.69992  1.0000
  H   H1039     1.0  0.79108  0.55937  0.74406  1.0000
  Fe  Fe172     1.0  0.69677  0.55617  0.56269  1.0000
  S   S350      1.0  0.71958  0.60163  0.56298  1.0000
  S   S351      1.0  0.68816  0.52658  0.58319  1.0000
  Fe  Fe173     1.0  0.68283  0.55513  0.52733  1.0000
  S   S352      1.0  0.70467  0.60066  0.52489  1.0000
  H   H1040     1.0  0.54203  0.76151  0.73590  1.0000
  Fe  Fe174     1.0  0.73719  0.59738  0.53958  1.0000
  S   S353      1.0  0.78295  0.61641  0.53580  1.0000
  Fe  Fe175     1.0  0.68518  0.60091  0.54827  1.0000
  S   S354      1.0  0.65652  0.61796  0.55569  1.0000
  S   S355      1.0  0.71641  0.55186  0.54044  1.0000
  S   S356      1.0  0.66131  0.55533  0.54951  1.0000
  Fe  Fe176     1.0  0.60018  0.72065  0.53638  1.0000
  S   S357      1.0  0.56342  0.68093  0.54050  1.0000
  S   S358      1.0  0.64184  0.72204  0.53659  1.0000
  Fe  Fe177     1.0  0.56657  0.75007  0.52727  1.0000
  H   H1041     1.0  0.59656  0.68024  0.51335  1.0000
  H   H1042     1.0  0.77446  0.55633  0.54316  1.0000
  Fe  Fe178     1.0  0.54593  0.70527  0.55252  1.0000
  C   C1054     1.0  0.79925  0.52056  0.70385  1.0000
  H   H1043     1.0  0.58294  0.79911  0.55543  1.0000
  S   S359      1.0  0.58403  0.74485  0.55049  1.0000
  H   H1044     1.0  0.54429  0.79184  0.69653  1.0000
  H   H1045     1.0  0.68622  0.70928  0.53207  1.0000
  H   H1046     1.0  0.71829  0.57297  0.75886  1.0000
  C   C1055     1.0  0.82357  0.55424  0.52049  1.0000
  H   H1047     1.0  0.67127  0.62276  0.58990  1.0000
  H   H1048     1.0  0.56476  0.81856  0.55246  1.0000
  H   H1049     1.0  0.58870  0.82663  0.56850  1.0000
  H   H1050     1.0  0.57777  0.63187  0.51918  1.0000
  H   H1051     1.0  0.52803  0.78135  0.60942  1.0000
  Fe  Fe179     1.0  0.70636  0.53203  0.67449  1.0000
  C   C1056     1.0  0.66985  0.59065  0.64051  1.0000
  H   H1052     1.0  0.55259  0.70677  0.69734  1.0000
  H   H1053     1.0  0.63991  0.53660  0.59606  1.0000
  Fe  Fe180     1.0  0.54843  0.69061  0.51799  1.0000
  N   N86       1.0  0.66419  0.58646  0.62352  1.0000
  H   H1054     1.0  0.76300  0.55367  0.51640  1.0000
  S   S360      1.0  0.53096  0.73774  0.64068  1.0000
  C   C1057     1.0  0.66596  0.60527  0.59760  1.0000
  H   H1055     1.0  0.68015  0.62889  0.61876  1.0000
  H   H1056     1.0  0.83730  0.55143  0.71274  1.0000
  C   C1058     1.0  0.54885  0.77591  0.72571  1.0000
  H   H1057     1.0  0.77957  0.58029  0.75495  1.0000
  H   H1058     1.0  0.83644  0.62390  0.52864  1.0000
  C   C1059     1.0  0.82722  0.53237  0.70648  1.0000
  H   H1059     1.0  0.64852  0.54334  0.62482  1.0000
  C   C1060     1.0  0.65358  0.64747  0.55029  1.0000
  C   C1061     1.0  0.67396  0.66938  0.54218  1.0000
  C   C1062     1.0  0.67028  0.69227  0.53819  1.0000
  C   C1063     1.0  0.64610  0.69326  0.54207  1.0000
  C   C1064     1.0  0.62581  0.67132  0.55017  1.0000
  C   C1065     1.0  0.62964  0.64870  0.55435  1.0000
  H   H1060     1.0  0.69261  0.66883  0.53912  1.0000
  C   C1066     1.0  0.64792  0.55683  0.60107  1.0000
  H   H1061     1.0  0.60739  0.67200  0.55355  1.0000
  H   H1062     1.0  0.61386  0.63199  0.56076  1.0000
  C   C1067     1.0  0.52724  0.72253  0.62191  1.0000
  H   H1063     1.0  0.55046  0.72773  0.67157  1.0000
  C   C1068     1.0  0.54555  0.72212  0.59571  1.0000
  C   C1069     1.0  0.69023  0.53941  0.74481  1.0000
  H   H1064     1.0  0.54626  0.77036  0.67123  1.0000
  C   C1070     1.0  0.70673  0.55195  0.63517  1.0000
  H   H1065     1.0  0.55527  0.97550  0.52195  1.0000
  C   C1071     1.0  0.57291  0.80973  0.56161  1.0000
  C   C1072     1.0  0.69687  0.53690  0.60302  1.0000
  C   C1073     1.0  0.71163  0.56428  0.60712  1.0000
  C   C1074     1.0  0.71650  0.57176  0.62315  1.0000
  C   C1075     1.0  0.70111  0.55293  0.75910  1.0000
  C   C1076     1.0  0.65291  0.56082  0.61731  1.0000
  H   H1066     1.0  0.71890  0.57972  0.59797  1.0000
  H   H1067     1.0  0.72762  0.59301  0.62625  1.0000
  S   S361      1.0  0.78073  0.53666  0.71098  1.0000
  C   C1077     1.0  0.60343  0.61229  0.52050  1.0000
  H   H1068     1.0  0.86414  0.52951  0.70238  1.0000
  C   C1078     1.0  0.55044  0.73841  0.71118  1.0000
  C   C1079     1.0  0.54876  0.73311  0.61103  1.0000
  H   H1069     1.0  0.69891  0.54911  0.73366  1.0000
  H   H1070     1.0  0.56783  0.75007  0.61438  1.0000
  N   N87       1.0  0.54813  0.76198  0.71088  1.0000
  H   H1071     1.0  0.65986  0.60217  0.64562  1.0000
  H   H1072     1.0  0.69212  0.60203  0.64254  1.0000
  C   C1080     1.0  0.67085  0.60855  0.61389  1.0000
  H   H1073     1.0  0.56207  0.73063  0.58732  1.0000
  N   N88       1.0  0.79995  0.55472  0.52460  1.0000
  C   C1081     1.0  0.56617  0.99322  0.51393  1.0000
  H   H1074     1.0  0.65069  0.57647  0.57860  1.0000
  C   C1082     1.0  0.54663  0.77345  0.69677  1.0000
  C   C1083     1.0  0.65439  0.57922  0.59121  1.0000
  Fe  Fe181     1.0  0.74046  0.52127  0.69899  1.0000
  C   C1084     1.0  0.55005  0.73743  0.68264  1.0000
  H   H1075     1.0  0.55133  0.72915  0.72238  1.0000
  H   H1076     1.0  0.58878  0.59475  0.52695  1.0000
  H   H1077     1.0  0.53983  0.82587  0.51646  1.0000
  H   H1078     1.0  0.66256  0.57111  0.64710  1.0000
  C   C1085     1.0  0.79535  0.55899  0.54118  1.0000
  N   N89       1.0  0.75266  0.53763  0.75495  1.0000
  C   C1086     1.0  0.54982  0.79573  0.58735  1.0000
  C   C1087     1.0  0.55124  0.72569  0.69708  1.0000
  C   C1088     1.0  0.59745  0.63342  0.51621  1.0000
  H   H1079     1.0  0.53485  0.78522  0.72509  1.0000
  C   C1089     1.0  0.69258  0.52454  0.63105  1.0000
  C   C1090     1.0  0.84238  0.51995  0.70065  1.0000
  H   H1080     1.0  0.76495  0.56665  0.73614  1.0000
  H   H1081     1.0  0.56975  0.79202  0.72805  1.0000
  H   H1082     1.0  0.80956  0.58012  0.54471  1.0000
  N   N90       1.0  0.55077  0.79054  0.57161  1.0000
  C   C1091     1.0  0.79873  0.61683  0.51753  1.0000
  H   H1083     1.0  0.80568  0.52604  0.64593  1.0000
  C   C1092     1.0  0.82566  0.62079  0.51755  1.0000
  C   C1093     1.0  0.53088  0.76753  0.56497  1.0000
  H   H1084     1.0  0.57576  0.01209  0.52102  1.0000
  H   H1085     1.0  0.53179  0.76324  0.55254  1.0000
  C   C1094     1.0  0.62880  0.61433  0.51682  1.0000
  H   H1086     1.0  0.63402  0.59849  0.52051  1.0000
  S   S362      1.0  0.52760  0.71143  0.53024  1.0000
  C   C1095     1.0  0.52846  0.77766  0.59684  1.0000
  H   H1087     1.0  0.62094  0.52246  0.52768  1.0000
  H   H1088     1.0  0.73509  0.51856  0.73314  1.0000
  H   H1089     1.0  0.90211  0.52035  0.52913  1.0000
  S   S363      1.0  0.58598  0.72941  0.51297  1.0000
  H   H1090     1.0  0.65970  0.56869  0.79825  1.0000
  H   H1091     1.0  0.57987  0.86951  0.97892  1.0000
  C   C1096     1.0  0.63583  0.79712  0.99713  1.0000
  H   H1092     1.0  0.66007  0.79404  0.96124  1.0000
  S   S364      1.0  0.66638  0.56401  0.86702  1.0000
  C   C1097     1.0  0.79672  0.60702  0.99421  1.0000
  H   H1093     1.0  0.53262  0.71919  0.00631  1.0000
  N   N91       1.0  0.67975  0.59730  0.81655  1.0000
  C   C1098     1.0  0.58993  0.59976  0.97491  1.0000
  S   S365      1.0  0.71977  0.56132  0.83529  1.0000
  H   H1094     1.0  0.64749  0.59346  0.80152  1.0000
  C   C1099     1.0  0.64493  0.82201  0.96769  1.0000
  S   S366      1.0  0.70503  0.55797  0.79125  1.0000
  H   H1095     1.0  0.66863  0.76632  0.97944  1.0000
  H   H1096     1.0  0.52963  0.75824  0.84765  1.0000
  H   H1097     1.0  0.64164  0.55643  0.00045  1.0000
  C   C1100     1.0  0.91879  0.65221  0.99602  1.0000
  S   S367      1.0  0.57538  0.72514  0.98057  1.0000
  H   H1098     1.0  0.55570  0.72450  0.90752  1.0000
  S   S368      1.0  0.58250  0.77033  0.95345  1.0000
  C   C1101     1.0  0.69090  0.52977  0.90660  1.0000
  Fe  Fe182     1.0  0.59356  0.73601  0.95645  1.0000
  S   S369      1.0  0.63443  0.73791  0.95120  1.0000
  Fe  Fe183     1.0  0.56081  0.75647  0.97677  1.0000
  S   S370      1.0  0.56056  0.77863  0.99927  1.0000
  S   S371      1.0  0.55673  0.70525  0.94384  1.0000
  C   C1102     1.0  0.89081  0.66697  0.01180  1.0000
  Fe  Fe184     1.0  0.71917  0.61306  0.95146  1.0000
  S   S372      1.0  0.73156  0.64758  0.96886  1.0000
  S   S373      1.0  0.73880  0.61616  0.92766  1.0000
  Fe  Fe185     1.0  0.68071  0.57108  0.97435  1.0000
  S   S374      1.0  0.69025  0.60169  0.99352  1.0000
  H   H1099     1.0  0.93928  0.53973  0.99662  1.0000
  Fe  Fe186     1.0  0.68688  0.62868  0.97455  1.0000
  S   S375      1.0  0.65838  0.64584  0.98184  1.0000
  Fe  Fe187     1.0  0.73386  0.61781  0.98636  1.0000
  H   H1100     1.0  0.90120  0.64474  0.98777  1.0000
  S   S376      1.0  0.67447  0.59658  0.95574  1.0000
  S   S377      1.0  0.72451  0.58477  0.96867  1.0000
  C   C1103     1.0  0.72866  0.54789  0.92549  1.0000
  H   H1101     1.0  0.59829  0.61127  0.98602  1.0000
  H   H1102     1.0  0.55283  0.65133  0.95279  1.0000
  H   H1103     1.0  0.76639  0.55192  0.77830  1.0000
  C   C1104     1.0  0.54080  0.71431  0.88356  1.0000
  C   C1105     1.0  0.65457  0.52720  0.92978  1.0000
  C   C1106     1.0  0.70404  0.61091  0.80890  1.0000
  H   H1104     1.0  0.54369  0.79570  0.90168  1.0000
  H   H1105     1.0  0.72350  0.58180  0.87342  1.0000
  H   H1106     1.0  0.62542  0.65644  0.93175  1.0000
  C   C1107     1.0  0.57023  0.82918  0.98735  1.0000
  Fe  Fe188     1.0  0.53780  0.69633  0.96790  1.0000
  C   C1108     1.0  0.65356  0.67263  0.97345  1.0000
  C   C1109     1.0  0.63193  0.67669  0.97907  1.0000
  C   C1110     1.0  0.62568  0.69621  0.97212  1.0000
  C   C1111     1.0  0.64156  0.71260  0.95976  1.0000
  C   C1112     1.0  0.66360  0.70900  0.95431  1.0000
  C   C1113     1.0  0.66941  0.68882  0.96099  1.0000
  H   H1107     1.0  0.61955  0.66426  0.98869  1.0000
  H   H1108     1.0  0.60855  0.69848  0.97636  1.0000
  H   H1109     1.0  0.67605  0.72162  0.94477  1.0000
  H   H1110     1.0  0.68612  0.68587  0.95655  1.0000
  Fe  Fe189     1.0  0.68154  0.54326  0.84965  1.0000
  C   C1114     1.0  0.57462  0.85620  0.98913  1.0000
  H   H1111     1.0  0.52684  0.78573  0.83757  1.0000
  C   C1115     1.0  0.75218  0.53536  0.77108  1.0000
  C   C1116     1.0  0.56857  0.64493  0.95221  1.0000
  C   C1117     1.0  0.63364  0.83072  0.97972  1.0000
  S   S378      1.0  0.57885  0.90051  0.00577  1.0000
  H   H1112     1.0  0.52521  0.88940  0.98595  1.0000
  H   H1113     1.0  0.66421  0.76928  0.00020  1.0000
  H   H1114     1.0  0.73248  0.53048  0.92865  1.0000
  H   H1115     1.0  0.70831  0.52758  0.99420  1.0000
  H   H1116     1.0  0.65885  0.58962  0.83862  1.0000
  C   C1118     1.0  0.54122  0.78922  0.87642  1.0000
  H   H1117     1.0  0.53774  0.67826  0.00911  1.0000
  Fe  Fe190     1.0  0.72251  0.52332  0.84146  1.0000
  C   C1119     1.0  0.65167  0.80097  0.97073  1.0000
  C   C1120     1.0  0.72634  0.62964  0.83367  1.0000
  C   C1121     1.0  0.66352  0.52030  0.90271  1.0000
  C   C1122     1.0  0.68693  0.57947  0.88356  1.0000
  C   C1123     1.0  0.67541  0.58501  0.89691  1.0000
  C   C1124     1.0  0.69110  0.59625  0.91053  1.0000
  C   C1125     1.0  0.71859  0.60271  0.91069  1.0000
  C   C1126     1.0  0.73028  0.59786  0.89716  1.0000
  C   C1127     1.0  0.71442  0.58591  0.88370  1.0000
  H   H1118     1.0  0.65417  0.58016  0.89682  1.0000
  H   H1119     1.0  0.68200  0.60020  0.92082  1.0000
  C   C1128     1.0  0.62909  0.81825  0.99454  1.0000
  H   H1120     1.0  0.75161  0.60303  0.89718  1.0000
  S   S379      1.0  0.65513  0.52223  0.82879  1.0000
  H   H1121     1.0  0.63902  0.56530  0.81506  1.0000
  N   N92       1.0  0.64746  0.78910  0.98539  1.0000
  S   S380      1.0  0.76421  0.62820  0.00659  1.0000
  H   H1122     1.0  0.70530  0.60882  0.79621  1.0000
  H   H1123     1.0  0.61977  0.82449  0.00387  1.0000
  C   C1129     1.0  0.60876  0.62846  0.95135  1.0000
  H   H1124     1.0  0.57206  0.82179  0.97584  1.0000
  C   C1130     1.0  0.56393  0.81200  0.00054  1.0000
  N   N93       1.0  0.58894  0.61814  0.96266  1.0000
  H   H1125     1.0  0.55816  0.79172  0.84680  1.0000
  S   S381      1.0  0.65188  0.52625  0.97568  1.0000
  H   H1126     1.0  0.93735  0.66572  0.98932  1.0000
  H   H1127     1.0  0.62803  0.84683  0.97753  1.0000
  H   H1128     1.0  0.52854  0.91202  0.00196  1.0000
  C   C1131     1.0  0.53576  0.78034  0.84799  1.0000
  Fe  Fe191     1.0  0.54374  0.73808  0.94279  1.0000
  H   H1129     1.0  0.82335  0.59200  0.98478  1.0000
  C   C1132     1.0  0.58885  0.65580  0.94077  1.0000
  H   H1130     1.0  0.58927  0.67112  0.93254  1.0000
  C   C1133     1.0  0.60906  0.64748  0.94027  1.0000
  C   C1134     1.0  0.56906  0.62623  0.96323  1.0000
  H   H1131     1.0  0.78560  0.60428  0.98327  1.0000
  H   H1132     1.0  0.62521  0.62300  0.95130  1.0000
  C   C1135     1.0  0.81814  0.60009  0.99509  1.0000
  C   C1136     1.0  0.53260  0.79467  0.89088  1.0000
  C   C1137     1.0  0.69009  0.54053  0.77365  1.0000
  N   N94       1.0  0.52677  0.78696  0.86288  1.0000
  H   H1133     1.0  0.55365  0.61861  0.97239  1.0000
  Fe  Fe192     1.0  0.69395  0.53669  0.81503  1.0000
  S   S382      1.0  0.76255  0.52443  0.84662  1.0000
  C   C1138     1.0  0.65435  0.76692  0.98846  1.0000
  H   H1134     1.0  0.64809  0.83120  0.95602  1.0000
  C   C1139     1.0  0.57235  0.86616  0.00402  1.0000
  H   H1135     1.0  0.74459  0.64168  0.84044  1.0000
  C   C1140     1.0  0.70135  0.61639  0.84130  1.0000
  H   H1136     1.0  0.70002  0.61810  0.85402  1.0000
  H   H1137     1.0  0.74175  0.55915  0.91533  1.0000
  H   H1138     1.0  0.55623  0.70853  0.88018  1.0000
  H   H1139     1.0  0.55911  0.78604  0.87618  1.0000
  C   C1141     1.0  0.67810  0.60021  0.83250  1.0000
  H   H1140     1.0  0.92058  0.63410  0.00032  1.0000
  C   C1142     1.0  0.62919  0.53506  0.00256  1.0000
  H   H1141     1.0  0.74708  0.63695  0.81127  1.0000
  C   C1143     1.0  0.64531  0.51920  0.91438  1.0000
  C   C1144     1.0  0.65524  0.58044  0.80742  1.0000
  H   H1142     1.0  0.63152  0.78708  0.00858  1.0000
  H   H1143     1.0  0.60333  0.59070  0.97144  1.0000
  H   H1144     1.0  0.70499  0.53101  0.89738  1.0000
  N   N95       1.0  0.91507  0.66665  0.00951  1.0000
  C   C1145     1.0  0.54044  0.72319  0.89908  1.0000
  C   C1146     1.0  0.72774  0.62699  0.81734  1.0000
  C   C1147     1.0  0.70070  0.53100  0.00532  1.0000
  C   C1148     1.0  0.83305  0.60382  0.00914  1.0000
  C   C1149     1.0  0.79029  0.61819  0.00732  1.0000
  H   H1145     1.0  0.87415  0.65676  0.00358  1.0000
  H   H1146     1.0  0.56938  0.58286  0.97722  1.0000
  S   S383      1.0  0.86121  0.59688  0.00921  1.0000
  H   H1147     1.0  0.73497  0.56250  0.93548  1.0000
  H   H1148     1.0  0.73272  0.57160  0.00786  1.0000
  H   H1149     1.0  0.64065  0.52630  0.93904  1.0000
  H   H1150     1.0  0.63570  0.74714  0.98807  1.0000
  S   S384      1.0  0.52337  0.70302  0.85280  1.0000
  C   C1150     1.0  0.94887  0.52675  0.99477  1.0000
  N   N96       1.0  0.69992  0.53821  0.92163  1.0000
  H   H1151     1.0  0.68904  0.54279  0.94522  1.0000
  C   C1151     1.0  0.96605  0.52542  0.00652  1.0000
  H   H1152     1.0  0.93773  0.52905  0.96044  1.0000
  C   C1152     1.0  0.68208  0.53660  0.93323  1.0000
