data_image0
_chemical_formula_structural       FeCSFeS2FeCFeS3FeS2FeCFeCFeS3CSFeS2FeS2FeS2FeSFeS3C2H3C6H4CHC7H2C7H5C6H4C6H9C4H3NC5SCH3C2HN2C6H11NC5H4C2H2SHCH4CSCHSC2H2C2H3C3HNH2CSH2C2HCH2NCFe2S2FeS2FeCFeS3FeS2FeSHFeSFeS4H2SFeS2FeS2FeSFeS3HCH2C6H6C6H3C7H4C6H4C6H5CHCNHCHCHC6HCHC2H2CSCSNHC2H3CHC3NCHCHC2H2CFeC2H2CHN2CHCHCSH3CHCH2NHCH2C3H2CH2N2C2HCHC2HCHCH4C2H2CHCH2C2H4NHC3H2FeH4Fe2HSCHS2CSFeS2HS2FeS2FeS2FeSFeS3FeS2FeH2CHC7H4C7H4CH2C6H3C3HC2H2C6H5CH2CH2CH2SHSCHCH2CFeHNC2H2SC2HCH2FeC2HC2HSNH5NC3H4NC3HC2H3C3H4C2FeH2C2SCSCHFeNH2CS3C2FeSCFeSHFeS2FeS2FeSFeS3HCHC3HCFeS2CH2C2NFeHC6H4C6H4CNC2SCHC4H3C2HC6H5NH3CHC2H2CNCHCNCH6C3H7SH4C2H2C2H2CH2S2HSCFeC2HC3HCH2SHCHFeC2FeHCH2C3SCHC2HCHCFeSHFeS2Fe2S3FeSHFeSHFeSFeS2FeSFeS2FeSFeHS2H2CHFeS2CH2CH3N2C6H5C6H4C6H8CHCFeCHNHNHCH2S2C3HCS2CS3HC2HCNC6HC3H2NC2HCSCH2C2HCH2CHSC3H8C2HSHC2H4C3H2CH3CFeS2FeSCFeHFeS3FeS2FeS2FeHFeS3FeSFeS2FeSFeS3CHCHFeS2H4C10H5C6H4C6H4SHSH2NC2HCNC2HCHCHNHCHC2HCHCHC2H2C3NC5H4SH3NCHCHC3HCSHCH5CHCH4C3HCHSHSH4CH2CNSHSFeS2FeS2FeSFeS3FeHSFeS2HFeCH2SC6H5C6H6C5HC5H3C2HC8H4CFeHNCH2CH2C3H2C4H4C4H4NHSCHC2SHFeH2CSCH2CH2CHCH3CHNCH2NCH3C3HCH3CSHC3HC2HNH4CHCHCNCH3CFeS2FeS2FeSFeS3CSH2FeS2FeS2CH4CH5CHNC8H4C6H4C2H2SHC2HC5H3C7H4CNSH2Fe3CH5CHCHNCNC4H3NHSC2HC3HC2H3SCH2CHCH3CSH2C2SHCHFeSFe2S2FeSNCHC3HCSCH3CHCHSH7C2HC6H2C2HNHSCHCHCH4CH4C3S2HSCHCH3C2SCH2CH2S2FeSFeSH2CFeSH7FeS2NHSCH5CHSC3H2FeH2CNH2CHSH2C8HC7H2CHCH2CHC2H3C2H2C2HFeC2FeCHNHC2HCHC5H2CS4HCSC2FeH2CH2CSCHFeSCFeS2FeSFeS2FeHFeS3C2FeS2FeS2FeS2FeSFeS3H2C2HC6H4SHSC8H4C6H3C6H4NC6H4CSHFeH4CHCHNHC2HCHC4HC5H2SCHC3NH2C4H3CH2C3HCH4CH2NH3NC6H2CHCH4CHCHCNHCH2SHSCHC2H2CH4CH2CH2NCHNCFeC2NH2CH2CNCH3CHCS3HFeSHFeCSCSFeS2FeS2FeSFeS3FeSCFeS2FeSFeS2HSHCHCHC4HCFeCHC6H4C3H2C6H4CSC4H3C7H4C6H4CNHNHSC2HC2H2CH2C2H2CHCNH2C2SHC4H3CHC2HNHSH2CHC3H8FeH2CH4C2HNCH3C2HCH2C3NH2NHSNC3HCH3C2HFeCHCHFeSC2H3SC2HSHCHC2FeCSNCHSCHFe2SNCSHFeS2FeS2FeSFeS3FeS2FeSFeSFeS3CSFeS2H2C2HC3HC6H4CH3C6H5C5H3C6H4C6H4C2HC4NC5H2C4NHCH4C3SHCH2CNCNC6H8C2HCH3CHCSHNHC2H3SHC2H4C2H2CH3FeHC2H3CH6SHFeSFeSFeS2FeS2FeS2FeSFeS3H2FeS2FeSFeHSC3FeS2H3CSNCHC7H4C3HC6H5SC4H3C6H4C6H4CSCHCH2NCHSHCHSFeH4CH2CHNC4H5C2HCH2CHCHCNCHCHCH2CNC3HFeH3C2HC2HCSCHNC3H2CH7CHC4HC2HSHNC2HCH2CHSFeSH2S2CFeSCFeSH2C2HFeHCHCH3CH2CHSH6C2H3SC2H2SNCH3C6HCHCNC2H4SCHCSH5CHC7HSCHC2HCH3SFeNFeSCHCSCFeC2HSFeS2CH2CFeCHCHC2H5SFeHNC3HC2SCH2CHC4HCH3SH2CH2SH5CSHCFeCSHC2HC2HNC2HCH4CHC2H3CFeSH2CSCFeS2FeS2FeSFeS3C2SCHFeCFeS2H3NHCHC2H2C8H4C6H5CHNHC6H3NHC5H3CHCHSCNCSHCH3CHC4HNH3C4H2CH3CSC2HCH8S2CH2C3H2C2FeCHFeH3CH5SH2FeS2FeS2FeSFeS3FeHCSFeS2HCSH3FeH3C6H4FeC7H4CH2FeC5NH2C7H6C2HC2HCHFeNS2NC6H7NC6H10SHCH3C2HSH2C2HC5H3C2HNC3HC3HCFeS2FeSFeHFeCS2FeS2FeS2Fe3S3FeHFeS2FeSFeNS2CS2HFeS3C2HC7H5CHC6H5CHC9H5C2HSNC6H9C2H4C3NHC2H4NHSNFeC7HCH3SCHCH5CHSCH5CHNH5CSCHC5HFeS2FeS2FeSFeS2FeS2FeHSFeCFeS3FeS2HCH2FeS2FeS2FeSHS2C2SNC6H8C7H4C2HC6H6NH5C2HC3H2C5SCH8CNH3SCH2CHC3H2CH2CHC2H3CSFeSNHNC6HCHSCH2CH3C2H2CHCHCH2C2H2CHNSHFeSH2SHNHCFeSHFeS2FeS2FeSFeS3FeS2C2HSC3HC2SH2CHC6H4C6H3FeHCH2C4H4C7H8SH4C3H2NC4HC2HCFeHC4HCHFeC2SC3HSHFeH2CHFeCNC2HC3SC3HCHSFeHCN2CNH3C2HC2HCNCH2NH2C2HCH4CSH7C4HCHSHSCHSCHS2HSCFeCHFeCH4FeS2C2FeSFeS2FeS2FeSFeS3CFeS2H3C7H5C6H7C5SHNC6H5NHSC3H5CH5CH3CSC2H2CSC2H4CH2C2HC2HCNHSHCNC6HNHFeC3H5C3SHCH2C2HSHSC4H4SFeHFeC3HC2HFeS2FeSCFeSFeS3FeS2FeSFeSFeS3HC6SFeS2FeS2FeSFeS3HNH2C6H4C6H2SC8H4C2HCHC6H4C6H4CH2C2H4CHCH3CH2CHNFeCHCH2C2HCHCH3CH3NHNH2NC5HC2H4CHCH3SCH2C2HSCNHCH3CHCH4C3FeS2FeSCFeSFeS3FeS2FeSFeSFeHS2HSCSHNHCFeS2FeS2FeSFeS3H3C6H5SCH2C6HSHCHCHCHC7H4C4HC7H4C6H3CH2C2H3CHNCHCH5C2H4C2HC2HCSHCHCHNC6H8C2HFe2H3NC3HCNC5HSH2CHCHCSH4CHC
_chemical_formula_sum              "Fe272 C1632 S544 H1632 N136"
_cell_length_a       60.823
_cell_length_b       60.56
_cell_length_c       93.1074
_cell_angle_alpha    91.4556
_cell_angle_beta     91.2728
_cell_angle_gamma    118.187

_space_group_name_H-M_alt    "P 1"
_space_group_IT_number       1

loop_
  _space_group_symop_operation_xyz
  'x, y, z'

loop_
  _atom_site_type_symbol
  _atom_site_label
  _atom_site_symmetry_multiplicity
  _atom_site_fract_x
  _atom_site_fract_y
  _atom_site_fract_z
  _atom_site_occupancy
  Fe  Fe1       1.0  0.28016  0.33034  0.04046  1.0000
  C   C1        1.0  0.25901  0.01590  0.09349  1.0000
  S   S1        1.0  0.28571  0.33451  0.01614  1.0000
  Fe  Fe2       1.0  0.23797  0.31878  0.06154  1.0000
  S   S2        1.0  0.26335  0.32362  0.08075  1.0000
  S   S3        1.0  0.19594  0.30356  0.06451  1.0000
  Fe  Fe3       1.0  0.29224  0.35812  0.07023  1.0000
  C   C2        1.0  0.30856  0.11844  0.20994  1.0000
  Fe  Fe4       1.0  0.27776  0.30195  0.06764  1.0000
  S   S4        1.0  0.28775  0.27202  0.07520  1.0000
  S   S5        1.0  0.26571  0.35431  0.05174  1.0000
  S   S6        1.0  0.25058  0.29454  0.04910  1.0000
  Fe  Fe5       1.0  0.07843  0.33139  0.05580  1.0000
  S   S7        1.0  0.06286  0.35797  0.05105  1.0000
  S   S8        1.0  0.11950  0.34589  0.05041  1.0000
  Fe  Fe6       1.0  0.02926  0.29285  0.06837  1.0000
  C   C3        1.0  0.27786  0.13282  0.20776  1.0000
  Fe  Fe7       1.0  0.02794  0.32342  0.04294  1.0000
  C   C4        1.0  0.01706  0.48065  0.23020  1.0000
  Fe  Fe8       1.0  0.04707  0.34956  0.07302  1.0000
  S   S9        1.0  0.04795  0.37682  0.09094  1.0000
  S   S10       1.0  0.04453  0.29760  0.04606  1.0000
  S   S11       1.0  0.06447  0.32481  0.07826  1.0000
  C   C5        1.0  0.31528  0.06799  0.09582  1.0000
  S   S12       1.0  0.01083  0.31685  0.06474  1.0000
  Fe  Fe9       1.0  0.02729  0.01745  0.15970  1.0000
  S   S13       1.0  0.05956  0.03327  0.14432  1.0000
  S   S14       1.0  0.02372  0.03738  0.17953  1.0000
  Fe  Fe10      1.0  0.23587  0.10057  0.11627  1.0000
  S   S15       1.0  0.23599  0.08977  0.13913  1.0000
  S   S16       1.0  0.23504  0.07746  0.09629  1.0000
  Fe  Fe11      1.0  0.23774  0.15084  0.12497  1.0000
  S   S17       1.0  0.23858  0.14359  0.14861  1.0000
  S   S18       1.0  0.23221  0.18449  0.11911  1.0000
  Fe  Fe12      1.0  0.26591  0.12974  0.14329  1.0000
  S   S19       1.0  0.30114  0.13463  0.15537  1.0000
  Fe  Fe13      1.0  0.20851  0.10432  0.14271  1.0000
  S   S20       1.0  0.17703  0.08744  0.15846  1.0000
  S   S21       1.0  0.26746  0.13987  0.12001  1.0000
  S   S22       1.0  0.20599  0.11221  0.11948  1.0000
  C   C6        1.0  0.29996  0.09369  0.08446  1.0000
  C   C7        1.0  0.30685  0.30423  0.00787  1.0000
  H   H1        1.0  0.27519  0.32682  0.12304  1.0000
  H   H2        1.0  0.28379  0.11062  0.19136  1.0000
  H   H3        1.0  0.30710  0.06640  0.07307  1.0000
  C   C8        1.0  0.09207  0.04684  0.14858  1.0000
  C   C9        1.0  0.10171  0.05264  0.16275  1.0000
  C   C10       1.0  0.12775  0.06455  0.16558  1.0000
  C   C11       1.0  0.14444  0.07085  0.15430  1.0000
  C   C12       1.0  0.13481  0.06480  0.14013  1.0000
  C   C13       1.0  0.10877  0.05288  0.13731  1.0000
  H   H4        1.0  0.08911  0.04808  0.17153  1.0000
  H   H5        1.0  0.13500  0.06904  0.17658  1.0000
  H   H6        1.0  0.14741  0.06949  0.13134  1.0000
  H   H7        1.0  0.10149  0.04838  0.12631  1.0000
  C   C14       1.0  0.29238  0.30607  0.11371  1.0000
  H   H8        1.0  0.28977  0.16855  0.17290  1.0000
  C   C15       1.0  0.22375  0.30414  0.00985  1.0000
  C   C16       1.0  0.25846  0.02677  0.10693  1.0000
  C   C17       1.0  0.25058  0.04518  0.10801  1.0000
  C   C18       1.0  0.24320  0.05296  0.09564  1.0000
  C   C19       1.0  0.24321  0.04168  0.08224  1.0000
  C   C20       1.0  0.25112  0.02326  0.08114  1.0000
  C   C21       1.0  0.31116  0.30733  0.10484  1.0000
  H   H9        1.0  0.25047  0.05355  0.11839  1.0000
  H   H10       1.0  0.23749  0.04756  0.07261  1.0000
  C   C22       1.0  0.31614  0.13087  0.22345  1.0000
  C   C23       1.0  0.05810  0.40977  0.09224  1.0000
  C   C24       1.0  0.05637  0.42058  0.10546  1.0000
  C   C25       1.0  0.06434  0.44656  0.10714  1.0000
  C   C26       1.0  0.07422  0.46219  0.09558  1.0000
  C   C27       1.0  0.07609  0.45141  0.08236  1.0000
  C   C28       1.0  0.06812  0.42540  0.08069  1.0000
  H   H11       1.0  0.04867  0.40875  0.11449  1.0000
  H   H12       1.0  0.06272  0.45445  0.11737  1.0000
  H   H13       1.0  0.08365  0.46324  0.07333  1.0000
  H   H14       1.0  0.06953  0.41747  0.07043  1.0000
  H   H15       1.0  0.01183  0.06925  0.14449  1.0000
  C   C29       1.0  0.17535  0.31633  0.06106  1.0000
  C   C30       1.0  0.15008  0.30235  0.06443  1.0000
  C   C31       1.0  0.13276  0.31112  0.06137  1.0000
  C   C32       1.0  0.14048  0.33392  0.05471  1.0000
  C   C33       1.0  0.16579  0.34801  0.05142  1.0000
  C   C34       1.0  0.18317  0.33938  0.05465  1.0000
  H   H16       1.0  0.14379  0.28449  0.06938  1.0000
  H   H17       1.0  0.11340  0.30006  0.06399  1.0000
  H   H18       1.0  0.17203  0.36573  0.04632  1.0000
  H   H19       1.0  0.20253  0.35041  0.05201  1.0000
  C   C35       1.0  0.27149  0.24737  0.08710  1.0000
  C   C36       1.0  0.25093  0.24532  0.09456  1.0000
  C   C37       1.0  0.23919  0.22597  0.10428  1.0000
  C   C38       1.0  0.24771  0.20834  0.10661  1.0000
  C   C39       1.0  0.26826  0.21039  0.09915  1.0000
  C   C40       1.0  0.28012  0.22986  0.08951  1.0000
  H   H20       1.0  0.24408  0.25864  0.09285  1.0000
  H   H21       1.0  0.22332  0.22459  0.10998  1.0000
  H   H22       1.0  0.27508  0.19705  0.10084  1.0000
  H   H23       1.0  0.29605  0.23129  0.08385  1.0000
  H   H24       1.0  0.29262  0.11758  0.09876  1.0000
  H   H25       1.0  0.01372  0.46253  0.22580  1.0000
  H   H26       1.0  0.25281  0.27676  0.01635  1.0000
  H   H27       1.0  0.21256  0.33292  0.01246  1.0000
  H   H28       1.0  0.11777  0.39339  0.06001  1.0000
  C   C41       1.0  0.29638  0.31931  0.00357  1.0000
  C   C42       1.0  0.23664  0.27136  0.00868  1.0000
  C   C43       1.0  0.29980  0.10426  0.09796  1.0000
  C   C44       1.0  0.01331  0.29926  0.00100  1.0000
  H   H29       1.0  0.28653  0.09771  0.12779  1.0000
  H   H30       1.0  0.18106  0.30964  0.03050  1.0000
  H   H31       1.0  0.30885  0.30168  0.01919  1.0000
  N   N1        1.0  0.22054  0.28137  0.01412  1.0000
  C   C45       1.0  0.99755  0.30810  0.00645  1.0000
  C   C46       1.0  0.20353  0.26865  0.02421  1.0000
  C   C47       1.0  0.20955  0.31462  0.01562  1.0000
  C   C48       1.0  0.18893  0.27853  0.03014  1.0000
  C   C49       1.0  0.19197  0.30163  0.02577  1.0000
  S   S23       1.0  0.00196  0.32170  0.02415  1.0000
  C   C50       1.0  0.31514  0.15320  0.17132  1.0000
  H   H32       1.0  0.20168  0.25112  0.02805  1.0000
  H   H33       1.0  0.25135  0.01496  0.07075  1.0000
  H   H34       1.0  0.17597  0.26883  0.03846  1.0000
  C   C51       1.0  0.28994  0.32758  0.11640  1.0000
  C   C52       1.0  0.28602  0.14516  0.22127  1.0000
  H   H35       1.0  0.27958  0.28839  0.11822  1.0000
  N   N2        1.0  0.30751  0.09708  0.11006  1.0000
  N   N3        1.0  0.16049  0.13419  0.14858  1.0000
  C   C53       1.0  0.13555  0.11864  0.14583  1.0000
  C   C54       1.0  0.17589  0.14557  0.13757  1.0000
  C   C55       1.0  0.12563  0.11339  0.13170  1.0000
  C   C56       1.0  0.16658  0.14084  0.12332  1.0000
  C   C57       1.0  0.14133  0.12447  0.12039  1.0000
  C   C58       1.0  0.17062  0.13957  0.16343  1.0000
  H   H36       1.0  0.12332  0.10945  0.15453  1.0000
  H   H37       1.0  0.19559  0.15818  0.13975  1.0000
  H   H38       1.0  0.10603  0.10024  0.12958  1.0000
  H   H39       1.0  0.17905  0.14962  0.11463  1.0000
  H   H40       1.0  0.13402  0.12026  0.10936  1.0000
  H   H41       1.0  0.17064  0.15676  0.16784  1.0000
  H   H42       1.0  0.15960  0.12356  0.17033  1.0000
  H   H43       1.0  0.18999  0.14211  0.16394  1.0000
  H   H44       1.0  0.29302  0.09885  0.07498  1.0000
  H   H45       1.0  0.26442  0.02110  0.11655  1.0000
  H   H46       1.0  0.23778  0.31462  0.00219  1.0000
  N   N4        1.0  0.12639  0.38823  0.08137  1.0000
  C   C59       1.0  0.11025  0.39130  0.09017  1.0000
  C   C60       1.0  0.13482  0.37152  0.08456  1.0000
  C   C61       1.0  0.10229  0.37760  0.10261  1.0000
  C   C62       1.0  0.12707  0.35733  0.09682  1.0000
  C   C63       1.0  0.11069  0.36043  0.10590  1.0000
  H   H47       1.0  0.10303  0.40406  0.08749  1.0000
  H   H48       1.0  0.08906  0.37980  0.10937  1.0000
  H   H49       1.0  0.13337  0.34369  0.09907  1.0000
  H   H50       1.0  0.10411  0.34923  0.11530  1.0000
  C   C64       1.0  0.28925  0.11940  0.20208  1.0000
  C   C65       1.0  0.00054  0.07322  0.13683  1.0000
  H   H51       1.0  0.26352  0.13446  0.20147  1.0000
  H   H52       1.0  0.31284  0.29049  0.10272  1.0000
  S   S24       1.0  0.31129  0.39356  0.08525  1.0000
  H   H53       1.0  0.99737  0.46416  0.17754  1.0000
  C   C66       1.0  0.31497  0.07903  0.10915  1.0000
  H   H54       1.0  0.22629  0.25060  0.00729  1.0000
  H   H55       1.0  0.24405  0.27892  0.99807  1.0000
  H   H56       1.0  0.27776  0.15635  0.22538  1.0000
  H   H57       1.0  0.13838  0.42201  0.07018  1.0000
  C   C67       1.0  0.30776  0.07544  0.08341  1.0000
  S   S25       1.0  0.30856  0.33670  0.05830  1.0000
  C   C68       1.0  0.32474  0.35048  0.10135  1.0000
  H   H58       1.0  0.14987  0.40147  0.06335  1.0000
  S   S26       1.0  0.00983  0.25261  0.07598  1.0000
  C   C69       1.0  0.31516  0.29271  0.99750  1.0000
  C   C70       1.0  0.99674  0.09407  0.13914  1.0000
  H   H59       1.0  0.14727  0.36872  0.07746  1.0000
  H   H60       1.0  0.31174  0.12788  0.12366  1.0000
  C   C71       1.0  0.99879  0.48208  0.18080  1.0000
  C   C72       1.0  0.30569  0.16785  0.17783  1.0000
  H   H61       1.0  0.00527  0.10609  0.14867  1.0000
  H   H62       1.0  0.32008  0.07257  0.11879  1.0000
  H   H63       1.0  0.02848  0.30018  0.00774  1.0000
  C   C73       1.0  0.13353  0.40206  0.06810  1.0000
  C   C74       1.0  0.30599  0.10755  0.12414  1.0000
  C   C75       1.0  0.99831  0.02979  0.24067  1.0000
  H   H64       1.0  0.31844  0.10579  0.13244  1.0000
  N   N5        1.0  0.30461  0.14368  0.22904  1.0000
  H   H65       1.0  0.31817  0.10888  0.20538  1.0000
  H   H66       1.0  0.32033  0.05303  0.09517  1.0000
  C   C76       1.0  0.30638  0.35001  0.11032  1.0000
  S   S27       1.0  0.08437  0.49514  0.09700  1.0000
  H   H67       1.0  0.30930  0.19275  0.19579  1.0000
  H   H68       1.0  0.30455  0.36685  0.11216  1.0000
  C   C77       1.0  0.00135  0.01997  0.22743  1.0000
  C   C78       1.0  0.31684  0.18158  0.19079  1.0000
  H   H69       1.0  0.00225  0.02953  0.21762  1.0000
  C   C79       1.0  0.32217  0.00354  0.99791  1.0000
  H   H70       1.0  0.99687  0.04694  0.24094  1.0000
  H   H71       1.0  0.32354  0.28138  0.00099  1.0000
  N   N6        1.0  0.32656  0.32916  0.09847  1.0000
  C   C80       1.0  0.00366  0.99806  0.22696  1.0000
  Fe  Fe14      1.0  0.00424  0.99908  0.18881  1.0000
  Fe  Fe15      1.0  0.03661  0.33047  0.44551  1.0000
  S   S28       1.0  0.03295  0.29529  0.43442  1.0000
  S   S29       1.0  0.02820  0.33792  0.46860  1.0000
  Fe  Fe16      1.0  0.06103  0.36281  0.41922  1.0000
  S   S30       1.0  0.05912  0.32980  0.40641  1.0000
  S   S31       1.0  0.08241  0.40369  0.41240  1.0000
  Fe  Fe17      1.0  0.02045  0.30796  0.41481  1.0000
  C   C81       1.0  0.30351  0.02018  0.44799  1.0000
  Fe  Fe18      1.0  0.07204  0.31946  0.42678  1.0000
  S   S32       1.0  0.09833  0.30206  0.42757  1.0000
  S   S33       1.0  0.02150  0.34183  0.42629  1.0000
  S   S34       1.0  0.07656  0.35374  0.43920  1.0000
  Fe  Fe19      1.0  0.26987  0.32239  0.44348  1.0000
  S   S35       1.0  0.23388  0.29949  0.43074  1.0000
  S   S36       1.0  0.26450  0.31624  0.46764  1.0000
  Fe  Fe20      1.0  0.29719  0.34820  0.41623  1.0000
  S   S37       1.0  0.26280  0.32628  0.40176  1.0000
  H   H72       1.0  0.31833  0.02726  0.43997  1.0000
  Fe  Fe21      1.0  0.24202  0.33430  0.41924  1.0000
  S   S38       1.0  0.21454  0.34952  0.41493  1.0000
  Fe  Fe22      1.0  0.25707  0.29271  0.41438  1.0000
  S   S39       1.0  0.23888  0.25130  0.40683  1.0000
  S   S40       1.0  0.27680  0.35821  0.43297  1.0000
  S   S41       1.0  0.29268  0.31364  0.42784  1.0000
  S   S42       1.0  0.05586  0.47623  0.37487  1.0000
  H   H73       1.0  0.05430  0.38942  0.46066  1.0000
  H   H74       1.0  0.99984  0.20021  0.37083  1.0000
  S   S43       1.0  0.01953  0.04093  0.30920  1.0000
  Fe  Fe23      1.0  0.25533  0.14920  0.35810  1.0000
  S   S44       1.0  0.24171  0.14799  0.33527  1.0000
  S   S45       1.0  0.27758  0.18830  0.36883  1.0000
  Fe  Fe24      1.0  0.23682  0.09244  0.35762  1.0000
  S   S46       1.0  0.22154  0.08793  0.33482  1.0000
  S   S47       1.0  0.22910  0.05418  0.36583  1.0000
  Fe  Fe25      1.0  0.25774  0.12212  0.33039  1.0000
  S   S48       1.0  0.27666  0.11918  0.30996  1.0000
  Fe  Fe26      1.0  0.20675  0.11393  0.34162  1.0000
  S   S49       1.0  0.16911  0.11211  0.33593  1.0000
  S   S50       1.0  0.27382  0.12521  0.35278  1.0000
  S   S51       1.0  0.21954  0.11664  0.36480  1.0000
  H   H75       1.0  0.30212  0.23038  0.47481  1.0000
  C   C82       1.0  0.30446  0.14258  0.30262  1.0000
  H   H76       1.0  0.05802  0.00833  0.24510  1.0000
  H   H77       1.0  0.30154  0.11899  0.28416  1.0000
  C   C83       1.0  0.09469  0.04083  0.32457  1.0000
  C   C84       1.0  0.09589  0.06448  0.32526  1.0000
  C   C85       1.0  0.11881  0.08607  0.32872  1.0000
  C   C86       1.0  0.14074  0.08429  0.33156  1.0000
  C   C87       1.0  0.13951  0.06063  0.33086  1.0000
  C   C88       1.0  0.11662  0.03905  0.32735  1.0000
  H   H78       1.0  0.07918  0.06618  0.32324  1.0000
  H   H79       1.0  0.11953  0.10427  0.32925  1.0000
  H   H80       1.0  0.15620  0.05894  0.33302  1.0000
  H   H81       1.0  0.11595  0.02088  0.32684  1.0000
  H   H82       1.0  0.07770  0.08832  0.27454  1.0000
  H   H83       1.0  0.00328  0.27145  0.36331  1.0000
  C   C89       1.0  0.26780  0.02662  0.39870  1.0000
  C   C90       1.0  0.27665  0.05251  0.39717  1.0000
  C   C91       1.0  0.26483  0.06140  0.38740  1.0000
  C   C92       1.0  0.24399  0.04442  0.37901  1.0000
  C   C93       1.0  0.23514  0.01856  0.38056  1.0000
  C   C94       1.0  0.05840  0.03826  0.25838  1.0000
  H   H84       1.0  0.29276  0.06579  0.40360  1.0000
  H   H85       1.0  0.27189  0.08133  0.38631  1.0000
  H   H86       1.0  0.14842  0.34473  0.46762  1.0000
  C   C95       1.0  0.21932  0.36306  0.45049  1.0000
  C   C96       1.0  0.25094  0.23404  0.39711  1.0000
  C   C97       1.0  0.27415  0.24564  0.39078  1.0000
  C   C98       1.0  0.28217  0.23124  0.38240  1.0000
  C   C99       1.0  0.26704  0.20520  0.38012  1.0000
  C   C100      1.0  0.24402  0.19354  0.38667  1.0000
  C   C101      1.0  0.23613  0.20788  0.39520  1.0000
  H   H87       1.0  0.28577  0.26571  0.39217  1.0000
  H   H88       1.0  0.30008  0.24040  0.37745  1.0000
  H   H89       1.0  0.23231  0.17350  0.38514  1.0000
  H   H90       1.0  0.21822  0.19870  0.40013  1.0000
  C   C102      1.0  0.07471  0.42311  0.40146  1.0000
  C   C103      1.0  0.05074  0.41502  0.39539  1.0000
  C   C104      1.0  0.04540  0.43153  0.38733  1.0000
  C   C105      1.0  0.06387  0.45634  0.38519  1.0000
  C   C106      1.0  0.08780  0.46445  0.39133  1.0000
  C   C107      1.0  0.09312  0.44796  0.39941  1.0000
  H   H91       1.0  0.03631  0.39606  0.39690  1.0000
  H   H92       1.0  0.02682  0.42498  0.38266  1.0000
  H   H93       1.0  0.10222  0.48342  0.38984  1.0000
  H   H94       1.0  0.11172  0.45454  0.40407  1.0000
  C   C108      1.0  0.13031  0.31515  0.42321  1.0000
  C   C109      1.0  0.14308  0.30126  0.42573  1.0000
  C   C110      1.0  0.16876  0.31132  0.42313  1.0000
  C   C111      1.0  0.18194  0.33537  0.41783  1.0000
  C   C112      1.0  0.16912  0.34917  0.41522  1.0000
  C   C113      1.0  0.14349  0.33919  0.41792  1.0000
  H   H95       1.0  0.13309  0.28266  0.42983  1.0000
  H   H96       1.0  0.17834  0.30050  0.42522  1.0000
  H   H97       1.0  0.17912  0.36779  0.41112  1.0000
  H   H98       1.0  0.13399  0.35014  0.41594  1.0000
  H   H99       1.0  0.15538  0.14588  0.35415  1.0000
  C   C114      1.0  0.31245  0.13717  0.28954  1.0000
  H   H100      1.0  0.20624  0.16037  0.34795  1.0000
  C   C115      1.0  0.05165  0.42458  0.43400  1.0000
  N   N7        1.0  0.31370  0.03173  0.46227  1.0000
  H   H101      1.0  0.16556  0.30640  0.46745  1.0000
  C   C116      1.0  0.20457  0.32451  0.46296  1.0000
  H   H102      1.0  0.29888  0.25219  0.48693  1.0000
  C   C117      1.0  0.29443  0.05454  0.36004  1.0000
  H   H103      1.0  0.31308  0.17050  0.31962  1.0000
  C   C118      1.0  0.21262  0.22032  0.36722  1.0000
  C   C119      1.0  0.01013  0.39368  0.43981  1.0000
  C   C120      1.0  0.99816  0.49048  0.28979  1.0000
  C   C121      1.0  0.31892  0.16606  0.30954  1.0000
  C   C122      1.0  0.05599  0.26886  0.39873  1.0000
  C   C123      1.0  0.32001  0.30811  0.48867  1.0000
  H   H104      1.0  0.19168  0.37431  0.44519  1.0000
  C   C124      1.0  0.24778  0.25384  0.46014  1.0000
  H   H105      1.0  0.04682  0.27066  0.40856  1.0000
  C   C125      1.0  0.27486  0.04674  0.34973  1.0000
  C   C126      1.0  0.19520  0.36043  0.45044  1.0000
  H   H106      1.0  0.29342  0.04231  0.36863  1.0000
  H   H107      1.0  0.28832  0.02405  0.44405  1.0000
  C   C127      1.0  0.31464  0.07855  0.35959  1.0000
  S   S52       1.0  0.99546  0.03177  0.27001  1.0000
  C   C128      1.0  0.06795  0.00660  0.26732  1.0000
  S   S53       1.0  0.06639  0.01301  0.32012  1.0000
  N   N8        1.0  0.17619  0.34023  0.45646  1.0000
  H   H108      1.0  0.13652  0.31846  0.45469  1.0000
  C   C129      1.0  0.02045  0.38526  0.45051  1.0000
  C   C130      1.0  0.18062  0.32241  0.46270  1.0000
  H   H109      1.0  0.03552  0.48799  0.34434  1.0000
  H   H110      1.0  0.21465  0.23696  0.37309  1.0000
  H   H111      1.0  0.04683  0.07305  0.26586  1.0000
  C   C131      1.0  0.22399  0.34503  0.45686  1.0000
  H   H112      1.0  0.21901  0.00524  0.37415  1.0000
  C   C132      1.0  0.28307  0.31114  0.48086  1.0000
  C   C133      1.0  0.30635  0.31303  0.47792  1.0000
  C   C134      1.0  0.01451  0.48580  0.29860  1.0000
  N   N9        1.0  0.28462  0.24987  0.46528  1.0000
  C   C135      1.0  0.26495  0.25280  0.46997  1.0000
  H   H113      1.0  0.23667  0.04635  0.33423  1.0000
  C   C136      1.0  0.02907  0.27129  0.37956  1.0000
  H   H114      1.0  0.09893  0.44043  0.43818  1.0000
  C   C137      1.0  0.24694  0.00968  0.39032  1.0000
  C   C138      1.0  0.07179  0.01777  0.28108  1.0000
  H   H115      1.0  0.24849  0.23942  0.35764  1.0000
  H   H116      1.0  0.17729  0.19606  0.37598  1.0000
  C   C139      1.0  0.27059  0.24836  0.44074  1.0000
  Fe  Fe27      1.0  0.02828  0.01038  0.31536  1.0000
  C   C140      1.0  0.99733  0.01771  0.25351  1.0000
  C   C141      1.0  0.29557  0.08571  0.33844  1.0000
  H   H117      1.0  0.25591  0.06896  0.32180  1.0000
  H   H118      1.0  0.23744  0.25232  0.43770  1.0000
  C   C142      1.0  0.25460  0.05360  0.32862  1.0000
  H   H119      1.0  0.27295  0.24672  0.42929  1.0000
  N   N10       1.0  0.27550  0.06236  0.33921  1.0000
  N   N11       1.0  0.03739  0.25717  0.38686  1.0000
  C   C143      1.0  0.02723  0.23195  0.38376  1.0000
  H   H120      1.0  0.05288  0.04594  0.24942  1.0000
  C   C144      1.0  0.01651  0.47595  0.34822  1.0000
  H   H121      1.0  0.25869  0.02844  0.35052  1.0000
  C   C145      1.0  0.08876  0.42690  0.44656  1.0000
  S   S54       1.0  0.28378  0.01647  0.41093  1.0000
  H   H122      1.0  0.03310  0.22054  0.38990  1.0000
  H   H123      1.0  0.31386  0.31840  0.46739  1.0000
  H   H124      1.0  0.26275  0.25498  0.48137  1.0000
  C   C146      1.0  0.04640  0.39650  0.45255  1.0000
  H   H125      1.0  0.01462  0.46805  0.29738  1.0000
  C   C147      1.0  0.28758  0.24764  0.45087  1.0000
  H   H126      1.0  0.23275  0.25711  0.46387  1.0000
  H   H127      1.0  0.06368  0.43980  0.42737  1.0000
  N   N12       1.0  0.06163  0.41576  0.44427  1.0000
  H   H128      1.0  0.24428  0.20079  0.34509  1.0000
  C   C148      1.0  0.20798  0.17717  0.35339  1.0000
  H   H129      1.0  0.09457  0.43670  0.45729  1.0000
  H   H130      1.0  0.01810  0.42005  0.42299  1.0000
  C   C149      1.0  0.22930  0.20006  0.35153  1.0000
  C   C150      1.0  0.16779  0.15144  0.36399  1.0000
  C   C151      1.0  0.00823  0.31829  0.48195  1.0000
  H   H131      1.0  0.09450  0.41200  0.44577  1.0000
  H   H132      1.0  0.07712  0.01002  0.29008  1.0000
  C   C152      1.0  0.25060  0.25150  0.44545  1.0000
  H   H133      1.0  0.17358  0.13673  0.36564  1.0000
  H   H134      1.0  0.30319  0.24539  0.44713  1.0000
  N   N13       1.0  0.18973  0.17582  0.36219  1.0000
  N   N14       1.0  0.06170  0.04880  0.27196  1.0000
  C   C153      1.0  0.06131  0.01694  0.25586  1.0000
  C   C154      1.0  0.00855  0.22035  0.37293  1.0000
  H   H135      1.0  0.15707  0.15167  0.37344  1.0000
  C   C155      1.0  0.15120  0.33818  0.45691  1.0000
  H   H136      1.0  0.01564  0.48230  0.35941  1.0000
  C   C156      1.0  0.19166  0.19705  0.36894  1.0000
  C   C157      1.0  0.31317  0.15713  0.24305  1.0000
  H   H137      1.0  0.23413  0.37858  0.44522  1.0000
  C   C158      1.0  0.23163  0.22173  0.35855  1.0000
  H   H138      1.0  0.00851  0.36964  0.45696  1.0000
  C   C159      1.0  0.31236  0.05412  0.48365  1.0000
  H   H139      1.0  0.24260  0.34681  0.45697  1.0000
  H   H140      1.0  0.14830  0.34947  0.44856  1.0000
  H   H141      1.0  0.20819  0.31036  0.46780  1.0000
  H   H142      1.0  0.28775  0.04576  0.46509  1.0000
  C   C160      1.0  0.05908  0.07144  0.27438  1.0000
  C   C161      1.0  0.31533  0.09424  0.34868  1.0000
  H   H143      1.0  0.29573  0.99955  0.44840  1.0000
  H   H144      1.0  0.06578  0.25783  0.40129  1.0000
  C   C162      1.0  0.02580  0.41350  0.43149  1.0000
  H   H145      1.0  0.07064  0.28786  0.39602  1.0000
  C   C163      1.0  0.06862  0.03903  0.28322  1.0000
  H   H146      1.0  0.05007  0.07076  0.28472  1.0000
  H   H147      1.0  0.31393  0.40717  0.39888  1.0000
  C   C164      1.0  0.01044  0.26032  0.36867  1.0000
  C   C165      1.0  0.30340  0.04413  0.46972  1.0000
  H   H148      1.0  0.29621  0.09810  0.33006  1.0000
  H   H149      1.0  0.07165  0.04756  0.29398  1.0000
  H   H150      1.0  0.25428  0.03848  0.32150  1.0000
  H   H151      1.0  0.03618  0.29101  0.38245  1.0000
  N   N15       1.0  0.99779  0.47759  0.33877  1.0000
  H   H152      1.0  0.01374  0.45650  0.34877  1.0000
  C   C166      1.0  0.30270  0.24898  0.47563  1.0000
  C   C167      1.0  0.00011  0.23467  0.36537  1.0000
  C   C168      1.0  0.01139  0.48319  0.24439  1.0000
  H   H153      1.0  0.00375  0.46711  0.25117  1.0000
  H   H154      1.0  0.32141  0.14816  0.25006  1.0000
  Fe  Fe28      1.0  0.99518  0.01436  0.29133  1.0000
  H   H155      1.0  0.32184  0.26389  0.47352  1.0000
  H   H156      1.0  0.30358  0.06307  0.48980  1.0000
  H   H157      1.0  0.99470  0.24343  0.41073  1.0000
  H   H158      1.0  0.29749  0.15729  0.24888  1.0000
  Fe  Fe29      1.0  0.29244  0.03214  0.57276  1.0000
  Fe  Fe30      1.0  0.30716  0.03390  0.54122  1.0000
  H   H159      1.0  0.11862  0.15883  0.66293  1.0000
  S   S55       1.0  0.28972  0.05350  0.55394  1.0000
  C   C169      1.0  0.22741  0.38486  0.68983  1.0000
  H   H160      1.0  0.22839  0.01561  0.55907  1.0000
  S   S56       1.0  0.29202  0.19549  0.56022  1.0000
  S   S57       1.0  0.99625  0.28633  0.59010  1.0000
  C   C170      1.0  0.10281  0.11888  0.65989  1.0000
  S   S58       1.0  0.28728  0.01906  0.51906  1.0000
  Fe  Fe31      1.0  0.29258  0.27844  0.56659  1.0000
  S   S59       1.0  0.26434  0.28940  0.57589  1.0000
  S   S60       1.0  0.28355  0.25237  0.54708  1.0000
  H   H161      1.0  0.00152  0.45917  0.73261  1.0000
  S   S61       1.0  0.03136  0.06501  0.64538  1.0000
  S   S62       1.0  0.02583  0.02316  0.67934  1.0000
  Fe  Fe32      1.0  0.09350  0.24060  0.61575  1.0000
  S   S63       1.0  0.08568  0.24279  0.63904  1.0000
  S   S64       1.0  0.06923  0.23793  0.59602  1.0000
  Fe  Fe33      1.0  0.14183  0.23787  0.62275  1.0000
  S   S65       1.0  0.13782  0.24051  0.64670  1.0000
  S   S66       1.0  0.16954  0.22637  0.61342  1.0000
  Fe  Fe34      1.0  0.09729  0.21295  0.64225  1.0000
  S   S67       1.0  0.07908  0.18281  0.65864  1.0000
  Fe  Fe35      1.0  0.12670  0.27013  0.64188  1.0000
  S   S68       1.0  0.13649  0.30648  0.65462  1.0000
  S   S69       1.0  0.10181  0.20839  0.61875  1.0000
  S   S70       1.0  0.13394  0.26984  0.61815  1.0000
  Fe  Fe36      1.0  0.19269  0.37551  0.73148  1.0000
  S   S71       1.0  0.18565  0.34067  0.71785  1.0000
  S   S72       1.0  0.20442  0.41466  0.72447  1.0000
  Fe  Fe37      1.0  0.17838  0.41611  0.74103  1.0000
  H   H162      1.0  0.28238  0.46230  0.70744  1.0000
  H   H163      1.0  0.09527  0.30066  0.67594  1.0000
  C   C171      1.0  0.12103  0.45360  0.73410  1.0000
  H   H164      1.0  0.15171  0.18315  0.63887  1.0000
  C   C172      1.0  0.11339  0.12866  0.63122  1.0000
  C   C173      1.0  0.15127  0.31627  0.67193  1.0000
  C   C174      1.0  0.16187  0.30330  0.67902  1.0000
  C   C175      1.0  0.17267  0.31131  0.69299  1.0000
  C   C176      1.0  0.17273  0.33214  0.70007  1.0000
  C   C177      1.0  0.16239  0.34530  0.69292  1.0000
  C   C178      1.0  0.15181  0.33743  0.67890  1.0000
  H   H165      1.0  0.16167  0.28706  0.67376  1.0000
  H   H166      1.0  0.18075  0.30110  0.69841  1.0000
  H   H167      1.0  0.16240  0.36141  0.69823  1.0000
  H   H168      1.0  0.14374  0.34765  0.67347  1.0000
  C   C179      1.0  0.09627  0.09897  0.64993  1.0000
  C   C180      1.0  0.04155  0.09741  0.64908  1.0000
  C   C181      1.0  0.05096  0.11413  0.63784  1.0000
  C   C182      1.0  0.06172  0.14026  0.64050  1.0000
  C   C183      1.0  0.06334  0.15000  0.65450  1.0000
  C   C184      1.0  0.05346  0.13329  0.66570  1.0000
  C   C185      1.0  0.04254  0.10712  0.66302  1.0000
  H   H169      1.0  0.05023  0.10679  0.62702  1.0000
  H   H170      1.0  0.06908  0.15284  0.63175  1.0000
  H   H171      1.0  0.05451  0.14059  0.67656  1.0000
  H   H172      1.0  0.03540  0.09450  0.67177  1.0000
  C   C186      1.0  0.30644  0.17597  0.55823  1.0000
  H   H173      1.0  0.17342  0.22424  0.55642  1.0000
  H   H174      1.0  0.08356  0.27452  0.66360  1.0000
  C   C187      1.0  0.01721  0.27359  0.59118  1.0000
  C   C188      1.0  0.01945  0.25917  0.57989  1.0000
  C   C189      1.0  0.03551  0.24848  0.58154  1.0000
  C   C190      1.0  0.04951  0.25207  0.59444  1.0000
  C   C191      1.0  0.04730  0.26653  0.60571  1.0000
  C   C192      1.0  0.03128  0.27725  0.60406  1.0000
  H   H175      1.0  0.12587  0.23720  0.70754  1.0000
  H   H176      1.0  0.03715  0.23741  0.57273  1.0000
  H   H177      1.0  0.05801  0.26956  0.61567  1.0000
  C   C193      1.0  0.23653  0.41084  0.69091  1.0000
  C   C194      1.0  0.31048  0.30088  0.50241  1.0000
  C   C195      1.0  0.30421  0.46565  0.74073  1.0000
  H   H178      1.0  0.25184  0.00564  0.54095  1.0000
  C   C196      1.0  0.28723  0.29901  0.50534  1.0000
  C   C197      1.0  0.11444  0.14348  0.65522  1.0000
  H   H179      1.0  0.31795  0.14318  0.59424  1.0000
  H   H180      1.0  0.27964  0.29353  0.51584  1.0000
  C   C198      1.0  0.23945  0.27230  0.58742  1.0000
  C   C199      1.0  0.22485  0.28320  0.59227  1.0000
  C   C200      1.0  0.20384  0.26972  0.60060  1.0000
  C   C201      1.0  0.19713  0.24509  0.60415  1.0000
  C   C202      1.0  0.21199  0.23435  0.59954  1.0000
  C   C203      1.0  0.23300  0.24783  0.59120  1.0000
  H   H181      1.0  0.22975  0.30216  0.58946  1.0000
  H   H182      1.0  0.19268  0.27828  0.60412  1.0000
  H   H183      1.0  0.20702  0.21534  0.60223  1.0000
  H   H184      1.0  0.24400  0.23918  0.58754  1.0000
  H   H185      1.0  0.26389  0.46009  0.69166  1.0000
  C   C204      1.0  0.26323  0.45226  0.70239  1.0000
  H   H186      1.0  0.11721  0.13226  0.61996  1.0000
  H   H187      1.0  0.21317  0.37347  0.68169  1.0000
  C   C205      1.0  0.29226  0.15013  0.56045  1.0000
  H   H188      1.0  0.29228  0.11453  0.56238  1.0000
  H   H189      1.0  0.27264  0.14244  0.56260  1.0000
  C   C206      1.0  0.29009  0.00059  0.50474  1.0000
  H   H190      1.0  0.09788  0.11521  0.67102  1.0000
  H   H191      1.0  0.13115  0.27944  0.71462  1.0000
  S   S73       1.0  0.31366  0.26201  0.57852  1.0000
  H   H192      1.0  0.12329  0.18491  0.64197  1.0000
  S   S74       1.0  0.25956  0.01661  0.58783  1.0000
  C   C207      1.0  0.13128  0.17401  0.63641  1.0000
  H   H193      1.0  0.11177  0.29887  0.69945  1.0000
  C   C208      1.0  0.26271  0.41406  0.71103  1.0000
  H   H194      1.0  0.11963  0.26918  0.58414  1.0000
  H   H195      1.0  0.25070  0.45627  0.70926  1.0000
  C   C209      1.0  0.10163  0.10383  0.63551  1.0000
  Fe  Fe38      1.0  0.30713  0.23783  0.55841  1.0000
  H   H196      1.0  0.08614  0.07974  0.65327  1.0000
  N   N16       1.0  0.11930  0.14807  0.64102  1.0000
  C   C210      1.0  0.04700  0.03476  0.73543  1.0000
  C   C211      1.0  0.25378  0.38812  0.71038  1.0000
  H   H197      1.0  0.26005  0.37934  0.71834  1.0000
  H   H198      1.0  0.02071  0.34877  0.49781  1.0000
  S   S75       1.0  0.14883  0.42835  0.73509  1.0000
  C   C212      1.0  0.14204  0.22793  0.57847  1.0000
  C   C213      1.0  0.31338  0.17640  0.59399  1.0000
  H   H199      1.0  0.13694  0.20845  0.58008  1.0000
  C   C214      1.0  0.32513  0.20213  0.59164  1.0000
  H   H200      1.0  0.04989  0.05387  0.73598  1.0000
  H   H201      1.0  0.00878  0.25622  0.56991  1.0000
  Fe  Fe39      1.0  0.00948  0.03225  0.65987  1.0000
  C   C215      1.0  0.12002  0.26936  0.70504  1.0000
  C   C216      1.0  0.23624  0.37352  0.69959  1.0000
  H   H202      1.0  0.06494  0.27403  0.67863  1.0000
  C   C217      1.0  0.00841  0.32900  0.49561  1.0000
  C   C218      1.0  0.11408  0.47194  0.73839  1.0000
  H   H203      1.0  0.29349  0.16645  0.59569  1.0000
  S   S76       1.0  0.30753  0.01085  0.55978  1.0000
  N   N17       1.0  0.25431  0.42514  0.70125  1.0000
  H   H204      1.0  0.12829  0.17506  0.62468  1.0000
  H   H205      1.0  0.02978  0.28846  0.61284  1.0000
  H   H206      1.0  0.22914  0.41944  0.68350  1.0000
  H   H207      1.0  0.31402  0.21185  0.59155  1.0000
  H   H208      1.0  0.27623  0.42523  0.71950  1.0000
  N   N18       1.0  0.16424  0.24352  0.57256  1.0000
  C   C219      1.0  0.17087  0.26823  0.57080  1.0000
  C   C220      1.0  0.15506  0.27791  0.57503  1.0000
  C   C221      1.0  0.18021  0.23322  0.56728  1.0000
  H   H209      1.0  0.18862  0.28065  0.56626  1.0000
  H   H210      1.0  0.16046  0.29756  0.57380  1.0000
  H   H211      1.0  0.19995  0.24806  0.56666  1.0000
  H   H212      1.0  0.18029  0.21913  0.57468  1.0000
  N   N19       1.0  0.09586  0.26822  0.68398  1.0000
  C   C222      1.0  0.09255  0.24485  0.68012  1.0000
  C   C223      1.0  0.10904  0.28031  0.69638  1.0000
  C   C224      1.0  0.10329  0.23336  0.68851  1.0000
  H   H213      1.0  0.09594  0.08836  0.62767  1.0000
  C   C225      1.0  0.11722  0.24579  0.70101  1.0000
  C   C226      1.0  0.08418  0.27985  0.67517  1.0000
  H   H214      1.0  0.08163  0.23492  0.67048  1.0000
  H   H215      1.0  0.10798  0.22453  0.58725  1.0000
  H   H216      1.0  0.10081  0.21494  0.68526  1.0000
  C   C227      1.0  0.13222  0.26205  0.58087  1.0000
  C   C228      1.0  0.12567  0.23692  0.58264  1.0000
  C   C229      1.0  0.30333  0.13422  0.56031  1.0000
  H   H217      1.0  0.22884  0.35330  0.69912  1.0000
  H   H218      1.0  0.04287  0.03149  0.71239  1.0000
  H   H219      1.0  0.11040  0.44008  0.72552  1.0000
  H   H220      1.0  0.25574  0.30274  0.49707  1.0000
  C   C230      1.0  0.14151  0.45253  0.74079  1.0000
  C   C231      1.0  0.04303  0.02199  0.72210  1.0000
  Fe  Fe40      1.0  0.31952  0.28195  0.53861  1.0000
  H   H221      1.0  0.09829  0.47240  0.73310  1.0000
  H   H222      1.0  0.25999  0.00075  0.49213  1.0000
  C   C232      1.0  0.27370  0.30423  0.49465  1.0000
  C   C233      1.0  0.00444  0.49694  0.69575  1.0000
  S   S77       1.0  0.02314  0.49277  0.70929  1.0000
  C   C234      1.0  0.32392  0.48905  0.73721  1.0000
  S   S78       1.0  0.27269  0.46031  0.73862  1.0000
  C   C235      1.0  0.32708  0.16335  0.59315  1.0000
  H   H223      1.0  0.21627  0.99775  0.60488  1.0000
  Fe  Fe41      1.0  0.29785  0.02900  0.90860  1.0000
  N   N20       1.0  0.14863  0.40395  0.78347  1.0000
  H   H224      1.0  0.28589  0.33392  0.98527  1.0000
  H   H225      1.0  0.28393  0.14476  0.90744  1.0000
  C   C236      1.0  0.08920  0.02034  0.82829  1.0000
  S   S79       1.0  0.29087  0.04732  0.92806  1.0000
  S   S80       1.0  0.30125  0.19684  0.91473  1.0000
  S   S81       1.0  0.28685  0.24851  0.93297  1.0000
  C   C237      1.0  0.30066  0.15104  0.91422  1.0000
  C   C238      1.0  0.13850  0.40686  0.77085  1.0000
  Fe  Fe42      1.0  0.29683  0.27819  0.91658  1.0000
  S   S82       1.0  0.26931  0.29060  0.90751  1.0000
  C   C239      1.0  0.24803  0.03292  0.96052  1.0000
  Fe  Fe43      1.0  0.01212  0.02580  0.81282  1.0000
  S   S83       1.0  0.04483  0.06551  0.81438  1.0000
  H   H226      1.0  0.31376  0.20580  0.86739  1.0000
  Fe  Fe44      1.0  0.10085  0.25342  0.86304  1.0000
  S   S84       1.0  0.08025  0.23664  0.84202  1.0000
  S   S85       1.0  0.08706  0.27065  0.88046  1.0000
  Fe  Fe45      1.0  0.14178  0.23872  0.85694  1.0000
  S   S86       1.0  0.12337  0.22046  0.83540  1.0000
  S   S87       1.0  0.17604  0.23404  0.86298  1.0000
  Fe  Fe46      1.0  0.11831  0.25468  0.83242  1.0000
  S   S88       1.0  0.12378  0.27014  0.80981  1.0000
  Fe  Fe47      1.0  0.08707  0.20396  0.84660  1.0000
  S   S89       1.0  0.05319  0.16486  0.84531  1.0000
  S   S90       1.0  0.13889  0.27397  0.85323  1.0000
  S   S91       1.0  0.10565  0.21984  0.86832  1.0000
  H   H227      1.0  0.02227  0.28313  0.98255  1.0000
  C   C240      1.0  0.30198  0.31052  0.97837  1.0000
  H   H228      1.0  0.30113  0.21119  0.88382  1.0000
  C   C241      1.0  0.19978  0.30440  0.81020  1.0000
  C   C242      1.0  0.11016  0.36244  0.76904  1.0000
  C   C243      1.0  0.31500  0.20608  0.87931  1.0000
  H   H229      1.0  0.04947  0.33866  0.97867  1.0000
  C   C244      1.0  0.00569  0.25397  0.88669  1.0000
  Fe  Fe48      1.0  0.19620  0.39071  0.76331  1.0000
  S   S92       1.0  0.19237  0.37942  0.78675  1.0000
  S   S93       1.0  0.20825  0.43128  0.75867  1.0000
  C   C245      1.0  0.08319  0.00143  0.83807  1.0000
  H   H230      1.0  0.14726  0.37861  0.79934  1.0000
  H   H231      1.0  0.00684  0.32385  0.87347  1.0000
  C   C246      1.0  0.00576  0.17316  0.86118  1.0000
  C   C247      1.0  0.99989  0.49023  0.78849  1.0000
  N   N21       1.0  0.20321  0.28783  0.83284  1.0000
  Fe  Fe49      1.0  0.30974  0.02916  0.94081  1.0000
  H   H232      1.0  0.09557  0.34616  0.76324  1.0000
  C   C248      1.0  0.14214  0.30099  0.80381  1.0000
  C   C249      1.0  0.14326  0.30478  0.78894  1.0000
  C   C250      1.0  0.15852  0.32861  0.78354  1.0000
  C   C251      1.0  0.17289  0.34899  0.79299  1.0000
  C   C252      1.0  0.17158  0.34532  0.80788  1.0000
  C   C253      1.0  0.15627  0.32147  0.81329  1.0000
  H   H233      1.0  0.13243  0.28906  0.78151  1.0000
  H   H234      1.0  0.15928  0.33115  0.77206  1.0000
  H   H235      1.0  0.18254  0.36100  0.81530  1.0000
  H   H236      1.0  0.15559  0.31885  0.82475  1.0000
  C   C254      1.0  0.04664  0.09281  0.82311  1.0000
  C   C255      1.0  0.06913  0.11544  0.82292  1.0000
  C   C256      1.0  0.07149  0.13762  0.82967  1.0000
  C   C257      1.0  0.05132  0.13741  0.83671  1.0000
  C   C258      1.0  0.02884  0.11475  0.83696  1.0000
  C   C259      1.0  0.02649  0.09255  0.83021  1.0000
  H   H237      1.0  0.08484  0.11587  0.81747  1.0000
  H   H238      1.0  0.08889  0.15487  0.82940  1.0000
  H   H239      1.0  0.01311  0.11436  0.84235  1.0000
  H   H240      1.0  0.00906  0.07532  0.83044  1.0000
  C   C260      1.0  0.01247  0.34046  0.95178  1.0000
  N   N22       1.0  0.26832  0.05870  0.95999  1.0000
  C   C261      1.0  0.99555  0.35800  0.97450  1.0000
  C   C262      1.0  0.30996  0.13415  0.91720  1.0000
  S   S94       1.0  0.32067  0.26581  0.90407  1.0000
  C   C263      1.0  0.31836  0.00953  0.98380  1.0000
  H   H241      1.0  0.10232  0.02286  0.81999  1.0000
  C   C264      1.0  0.03697  0.25089  0.87181  1.0000
  C   C265      1.0  0.05574  0.26476  0.88226  1.0000
  C   C266      1.0  0.04940  0.27366  0.89477  1.0000
  C   C267      1.0  0.02451  0.26825  0.89702  1.0000
  H   H242      1.0  0.04158  0.24404  0.86210  1.0000
  H   H243      1.0  0.06379  0.28445  0.90290  1.0000
  H   H244      1.0  0.01988  0.27474  0.90685  1.0000
  C   C268      1.0  0.29401  0.32236  0.98875  1.0000
  C   C269      1.0  0.30739  0.10704  0.95793  1.0000
  H   H245      1.0  0.02493  0.35660  0.98699  1.0000
  C   C270      1.0  0.24265  0.27371  0.89574  1.0000
  C   C271      1.0  0.23842  0.25178  0.88810  1.0000
  C   C272      1.0  0.21772  0.23974  0.87832  1.0000
  C   C273      1.0  0.20076  0.24916  0.87621  1.0000
  C   C274      1.0  0.20474  0.27087  0.88401  1.0000
  C   C275      1.0  0.22569  0.28316  0.89361  1.0000
  H   H246      1.0  0.25127  0.24428  0.88959  1.0000
  H   H247      1.0  0.21485  0.22297  0.87234  1.0000
  H   H248      1.0  0.19187  0.27835  0.88257  1.0000
  H   H249      1.0  0.22875  0.30009  0.89948  1.0000
  H   H250      1.0  0.29288  0.05263  0.97418  1.0000
  N   N23       1.0  0.02402  0.34463  0.96509  1.0000
  H   H251      1.0  0.22957  0.03245  0.96058  1.0000
  H   H252      1.0  0.28290  0.11254  0.94310  1.0000
  H   H253      1.0  0.06221  0.35511  0.96245  1.0000
  C   C276      1.0  0.18715  0.26408  0.82767  1.0000
  H   H254      1.0  0.99535  0.49511  0.75710  1.0000
  C   C277      1.0  0.17691  0.25994  0.81365  1.0000
  C   C278      1.0  0.18338  0.28024  0.80486  1.0000
  H   H255      1.0  0.18186  0.24820  0.83446  1.0000
  H   H256      1.0  0.16343  0.24119  0.80977  1.0000
  C   C279      1.0  0.00118  0.19064  0.88444  1.0000
  N   N24       1.0  0.01599  0.18639  0.87510  1.0000
  C   C280      1.0  0.04064  0.19459  0.87860  1.0000
  H   H257      1.0  0.01702  0.18479  0.85235  1.0000
  C   C281      1.0  0.05130  0.20801  0.89156  1.0000
  N   N25       1.0  0.05474  0.01318  0.84919  1.0000
  C   C282      1.0  0.03646  0.21272  0.90106  1.0000
  H   H258      1.0  0.11364  0.34133  0.78651  1.0000
  H   H259      1.0  0.05227  0.19114  0.87118  1.0000
  H   H260      1.0  0.01866  0.33308  0.94291  1.0000
  H   H261      1.0  0.07114  0.21547  0.89398  1.0000
  H   H262      1.0  0.24988  0.02369  0.97033  1.0000
  H   H263      1.0  0.04473  0.22391  0.91090  1.0000
  C   C283      1.0  0.04540  0.33992  0.96711  1.0000
  C   C284      1.0  0.28497  0.09958  0.95016  1.0000
  C   C285      1.0  0.01604  0.35362  0.97636  1.0000
  H   H264      1.0  0.17915  0.44124  0.78373  1.0000
  H   H265      1.0  0.99964  0.20809  0.90466  1.0000
  H   H266      1.0  0.19772  0.28904  0.85517  1.0000
  H   H267      1.0  0.17101  0.46997  0.75704  1.0000
  H   H268      1.0  0.04128  0.32162  0.96179  1.0000
  H   H269      1.0  0.21928  0.27778  0.85037  1.0000
  H   H270      1.0  0.22146  0.32684  0.82857  1.0000
  S   S95       1.0  0.31486  0.00933  0.92129  1.0000
  H   H271      1.0  0.11172  0.38863  0.75323  1.0000
  H   H272      1.0  0.30037  0.11511  0.91274  1.0000
  H   H273      1.0  0.20426  0.32036  0.80356  1.0000
  H   H274      1.0  0.16139  0.43265  0.79987  1.0000
  C   C286      1.0  0.13931  0.38088  0.78929  1.0000
  C   C287      1.0  0.16896  0.42576  0.79111  1.0000
  H   H275      1.0  0.29995  0.31301  0.96704  1.0000
  H   H276      1.0  0.00671  0.15525  0.86072  1.0000
  C   C288      1.0  0.31287  0.17596  0.91981  1.0000
  C   C289      1.0  0.11917  0.38619  0.76343  1.0000
  H   H277      1.0  0.14558  0.42516  0.76631  1.0000
  H   H278      1.0  0.03034  0.02359  0.86039  1.0000
  C   C290      1.0  0.20935  0.30792  0.82437  1.0000
  H   H279      1.0  0.22883  0.31063  0.84997  1.0000
  H   H280      1.0  0.30965  0.18674  0.88268  1.0000
  S   S96       1.0  0.27007  0.01098  0.88945  1.0000
  S   S97       1.0  0.32477  0.28168  0.97018  1.0000
  H   H281      1.0  0.18295  0.42073  0.79576  1.0000
  S   S98       1.0  0.28787  0.00846  0.96042  1.0000
  C   C291      1.0  0.12021  0.35972  0.78209  1.0000
  Fe  Fe50      1.0  0.31300  0.23785  0.92143  1.0000
  C   C292      1.0  0.31024  0.09004  0.96659  1.0000
  C   C293      1.0  0.01212  0.24566  0.87399  1.0000
  H   H282      1.0  0.00889  0.48408  0.78064  1.0000
  C   C294      1.0  0.07793  0.03573  0.82912  1.0000
  C   C295      1.0  0.21280  0.29166  0.84778  1.0000
  C   C296      1.0  0.06059  0.03183  0.83968  1.0000
  H   H283      1.0  0.08222  0.05037  0.82149  1.0000
  C   C297      1.0  0.00974  0.28960  0.98669  1.0000
  H   H284      1.0  0.24843  0.06925  0.94487  1.0000
  H   H285      1.0  0.17489  0.27734  0.79413  1.0000
  S   S99       1.0  0.16461  0.37570  0.74676  1.0000
  H   H286      1.0  0.24862  0.02167  0.95104  1.0000
  C   C298      1.0  0.29038  0.06581  0.96753  1.0000
  H   H287      1.0  0.04769  0.03158  0.75843  1.0000
  Fe  Fe51      1.0  0.23378  0.42746  0.74261  1.0000
  C   C299      1.0  0.04568  0.02222  0.74801  1.0000
  C   C300      1.0  0.26556  0.07513  0.95125  1.0000
  Fe  Fe52      1.0  0.32094  0.27715  0.94557  1.0000
  H   H288      1.0  0.05166  0.04368  0.84006  1.0000
  C   C301      1.0  0.31277  0.29571  0.98269  1.0000
  H   H289      1.0  0.04321  0.00747  0.87077  1.0000
  H   H290      1.0  0.99766  0.32849  0.89125  1.0000
  C   C302      1.0  0.15506  0.47025  0.75185  1.0000
  C   C303      1.0  0.14796  0.48845  0.75623  1.0000
  C   C304      1.0  0.03590  0.00854  0.85992  1.0000
  S   S100      1.0  0.22379  0.38814  0.74851  1.0000
  C   C305      1.0  0.12739  0.48943  0.74958  1.0000
  H   H291      1.0  0.29532  0.42915  0.74820  1.0000
  C   C306      1.0  0.29413  0.00150  0.97815  1.0000
  C   C307      1.0  0.01118  0.20384  0.89756  1.0000
  H   H292      1.0  0.99774  0.23471  0.86590  1.0000
  C   C308      1.0  0.31011  0.44721  0.74539  1.0000
  H   H293      1.0  0.32277  0.12580  0.95693  1.0000
  C   C309      1.0  0.06580  0.99809  0.84850  1.0000
  Fe  Fe53      1.0  0.03738  0.72503  0.04616  1.0000
  S   S101      1.0  0.05452  0.76206  0.05896  1.0000
  H   H294      1.0  0.05774  0.56168  0.22331  1.0000
  Fe  Fe54      1.0  0.04532  0.69731  0.07171  1.0000
  S   S102      1.0  0.06333  0.73265  0.08561  1.0000
  S   S103      1.0  0.03388  0.65859  0.08107  1.0000
  Fe  Fe55      1.0  0.03224  0.73983  0.07738  1.0000
  Fe  Fe56      1.0  0.08411  0.75222  0.06614  1.0000
  S   S104      1.0  0.12646  0.77836  0.06766  1.0000
  S   S105      1.0  0.01299  0.70366  0.06423  1.0000
  S   S106      1.0  0.06828  0.71607  0.05260  1.0000
  Fe  Fe57      1.0  0.28362  0.96135  0.04306  1.0000
  S   S107      1.0  0.24931  0.96102  0.05222  1.0000
  H   H295      1.0  0.06201  0.59229  0.07758  1.0000
  Fe  Fe58      1.0  0.28879  0.93071  0.06764  1.0000
  S   S108      1.0  0.25475  0.92783  0.07837  1.0000
  H   H296      1.0  0.01947  0.74078  0.99394  1.0000
  Fe  Fe59      1.0  0.23639  0.91997  0.05632  1.0000
  S   S109      1.0  0.19459  0.89285  0.05201  1.0000
  Fe  Fe60      1.0  0.26954  0.96868  0.07377  1.0000
  S   S110      1.0  0.26930  0.91986  0.04565  1.0000
  S   S111      1.0  0.30489  0.97199  0.06459  1.0000
  Fe  Fe61      1.0  0.08475  0.51946  0.11650  1.0000
  S   S112      1.0  0.08980  0.51431  0.13991  1.0000
  Fe  Fe62      1.0  0.08454  0.57006  0.12279  1.0000
  S   S113      1.0  0.08868  0.56738  0.14680  1.0000
  S   S114      1.0  0.09237  0.60731  0.11264  1.0000
  Fe  Fe63      1.0  0.11761  0.55545  0.14150  1.0000
  S   S115      1.0  0.15273  0.57099  0.15628  1.0000
  Fe  Fe64      1.0  0.06045  0.52650  0.14356  1.0000
  H   H297      1.0  0.27335  0.62275  0.23107  1.0000
  S   S116      1.0  0.11491  0.55991  0.11782  1.0000
  S   S117      1.0  0.05405  0.52985  0.11977  1.0000
  H   H298      1.0  0.32351  0.93633  0.04776  1.0000
  H   H299      1.0  0.27480  0.60150  0.14569  1.0000
  C   C310      1.0  0.30192  0.98950  0.00664  1.0000
  H   H300      1.0  0.17243  0.79142  0.02522  1.0000
  Fe  Fe65      1.0  0.30048  0.65729  0.16115  1.0000
  S   S118      1.0  0.26721  0.64446  0.14513  1.0000
  S   S119      1.0  0.30319  0.63416  0.17883  1.0000
  C   C311      1.0  0.30081  0.61596  0.12883  1.0000
  H   H301      1.0  0.17636  0.81732  0.03704  1.0000
  H   H302      1.0  0.23057  0.67888  0.13590  1.0000
  C   C312      1.0  0.29049  0.60108  0.14062  1.0000
  H   H303      1.0  0.07222  0.77827  0.01737  1.0000
  H   H304      1.0  0.23928  0.67453  0.16151  1.0000
  H   H305      1.0  0.02732  0.68943  0.10386  1.0000
  N   N26       1.0  0.03039  0.52437  0.22705  1.0000
  N   N27       1.0  0.05855  0.55635  0.08187  1.0000
  C   C313      1.0  0.18476  0.58898  0.15242  1.0000
  C   C314      1.0  0.20279  0.59583  0.16374  1.0000
  C   C315      1.0  0.22823  0.61211  0.16158  1.0000
  C   C316      1.0  0.23591  0.62178  0.14804  1.0000
  C   C317      1.0  0.21801  0.61434  0.13661  1.0000
  C   C318      1.0  0.19256  0.59801  0.13876  1.0000
  H   H306      1.0  0.19694  0.58893  0.17433  1.0000
  H   H307      1.0  0.24175  0.61769  0.17048  1.0000
  H   H308      1.0  0.22379  0.62164  0.12608  1.0000
  H   H309      1.0  0.17895  0.59280  0.12994  1.0000
  H   H310      1.0  0.03082  0.49941  0.21056  1.0000
  C   C319      1.0  0.07549  0.62156  0.10453  1.0000
  C   C320      1.0  0.04939  0.60962  0.10319  1.0000
  C   C321      1.0  0.03709  0.62126  0.09602  1.0000
  C   C322      1.0  0.05058  0.64511  0.09022  1.0000
  C   C323      1.0  0.07666  0.65714  0.09170  1.0000
  C   C324      1.0  0.08897  0.64539  0.09874  1.0000
  H   H311      1.0  0.03867  0.59145  0.10768  1.0000
  H   H312      1.0  0.01692  0.61174  0.09500  1.0000
  H   H313      1.0  0.08738  0.67543  0.08732  1.0000
  H   H314      1.0  0.10915  0.65488  0.09967  1.0000
  C   C325      1.0  0.14450  0.81106  0.06478  1.0000
  C   C326      1.0  0.13418  0.82500  0.05849  1.0000
  C   C327      1.0  0.14974  0.85010  0.05491  1.0000
  C   C328      1.0  0.17575  0.86172  0.05770  1.0000
  C   C329      1.0  0.18596  0.84803  0.06439  1.0000
  C   C330      1.0  0.17043  0.82288  0.06787  1.0000
  H   H315      1.0  0.11430  0.81623  0.05603  1.0000
  H   H316      1.0  0.14158  0.86050  0.04979  1.0000
  H   H317      1.0  0.20590  0.85662  0.06663  1.0000
  H   H318      1.0  0.17866  0.81233  0.07274  1.0000
  H   H319      1.0  0.13212  0.62418  0.14687  1.0000
  H   H320      1.0  0.21116  0.93566  0.11729  1.0000
  H   H321      1.0  0.14290  0.60572  0.13668  1.0000
  H   H322      1.0  0.14331  0.63316  0.12925  1.0000
  C   C331      1.0  0.00927  0.70989  0.00795  1.0000
  H   H323      1.0  0.18719  0.65613  0.12572  1.0000
  C   C332      1.0  0.32117  0.61576  0.12232  1.0000
  Fe  Fe66      1.0  0.32112  0.67019  0.19233  1.0000
  C   C333      1.0  0.28934  0.57113  0.15823  1.0000
  H   H324      1.0  0.15027  0.83005  0.02430  1.0000
  N   N28       1.0  0.30031  0.58657  0.14584  1.0000
  H   H325      1.0  0.30401  0.56991  0.16500  1.0000
  N   N29       1.0  0.20687  0.94448  0.09576  1.0000
  H   H326      1.0  0.20436  0.64735  0.17676  1.0000
  C   C334      1.0  0.07061  0.54228  0.08325  1.0000
  H   H327      1.0  0.12243  0.75352  0.03455  1.0000
  H   H328      1.0  0.16137  0.62441  0.16615  1.0000
  S   S120      1.0  0.26988  0.99344  0.09284  1.0000
  S   S121      1.0  0.01076  0.97956  0.16964  1.0000
  C   C335      1.0  0.27770  0.98163  0.00102  1.0000
  C   C336      1.0  0.07141  0.58094  0.07837  1.0000
  C   C337      1.0  0.09621  0.55278  0.08103  1.0000
  H   H329      1.0  0.10728  0.61187  0.07397  1.0000
  C   C338      1.0  0.32342  0.67464  0.23123  1.0000
  S   S122      1.0  0.30747  0.67291  0.21470  1.0000
  S   S123      1.0  0.00926  0.98595  0.21076  1.0000
  C   C339      1.0  0.18845  0.96461  0.07515  1.0000
  S   S124      1.0  0.30910  0.90959  0.07600  1.0000
  S   S125      1.0  0.31575  0.69287  0.17499  1.0000
  S   S126      1.0  0.30809  0.98237  0.02435  1.0000
  H   H330      1.0  0.10570  0.54158  0.08232  1.0000
  C   C340      1.0  0.21790  0.93479  0.10641  1.0000
  C   C341      1.0  0.04050  0.54634  0.21811  1.0000
  H   H331      1.0  0.10773  0.82161  0.01646  1.0000
  C   C342      1.0  0.09707  0.59213  0.07624  1.0000
  N   N30       1.0  0.17163  0.63995  0.14553  1.0000
  C   C343      1.0  0.19074  0.65478  0.13704  1.0000
  C   C344      1.0  0.17631  0.63734  0.15966  1.0000
  C   C345      1.0  0.21528  0.66779  0.14273  1.0000
  C   C346      1.0  0.20059  0.65016  0.16571  1.0000
  C   C347      1.0  0.22018  0.66541  0.15715  1.0000
  C   C348      1.0  0.14631  0.62510  0.13925  1.0000
  H   H332      1.0  0.00793  0.80677  0.09594  1.0000
  C   C349      1.0  0.10952  0.57792  0.07763  1.0000
  C   C350      1.0  0.00865  0.72071  0.99482  1.0000
  C   C351      1.0  0.16410  0.79713  0.03410  1.0000
  H   H333      1.0  0.07997  0.74420  0.02602  1.0000
  H   H334      1.0  0.16365  0.78658  0.04381  1.0000
  N   N31       1.0  0.13882  0.79224  0.02978  1.0000
  C   C352      1.0  0.13490  0.81114  0.02465  1.0000
  C   C353      1.0  0.11942  0.76844  0.03031  1.0000
  H   H335      1.0  0.01584  0.82998  0.11938  1.0000
  C   C354      1.0  0.11091  0.80651  0.02021  1.0000
  S   S127      1.0  0.02817  0.72988  0.02270  1.0000
  C   C355      1.0  0.01515  0.52636  0.17723  1.0000
  H   H336      1.0  0.21307  0.91495  0.10382  1.0000
  H   H337      1.0  0.18358  0.93317  0.06145  1.0000
  C   C356      1.0  0.19881  0.93262  0.08251  1.0000
  C   C357      1.0  0.00175  0.52792  0.18905  1.0000
  H   H338      1.0  0.02637  0.55290  0.21657  1.0000
  C   C358      1.0  0.20588  0.96617  0.09892  1.0000
  H   H339      1.0  0.29333  0.62795  0.12499  1.0000
  H   H340      1.0  0.00280  0.54576  0.19210  1.0000
  C   C359      1.0  0.09102  0.78229  0.02073  1.0000
  H   H341      1.0  0.27510  0.55200  0.15450  1.0000
  S   S128      1.0  0.01541  0.75447  0.09459  1.0000
  C   C360      1.0  0.19651  0.97647  0.08872  1.0000
  C   C361      1.0  0.09532  0.76309  0.02569  1.0000
  C   C362      1.0  0.00245  0.98585  0.23979  1.0000
  H   H342      1.0  0.26190  0.97080  0.00751  1.0000
  H   H343      1.0  0.18170  0.97271  0.06703  1.0000
  H   H344      1.0  0.28050  0.57953  0.16529  1.0000
  H   H345      1.0  0.23859  0.94623  0.10665  1.0000
  H   H346      1.0  0.02628  0.54283  0.17125  1.0000
  H   H347      1.0  0.12949  0.58643  0.07627  1.0000
  H   H348      1.0  0.19978  0.91554  0.07991  1.0000
  H   H349      1.0  0.19631  0.99401  0.09119  1.0000
  C   C363      1.0  0.03209  0.54556  0.08517  1.0000
  C   C364      1.0  0.18953  0.94250  0.07202  1.0000
  H   H350      1.0  0.02807  0.71822  0.10995  1.0000
  S   S129      1.0  0.02958  0.49995  0.15795  1.0000
  H   H351      1.0  0.21308  0.97605  0.10924  1.0000
  C   C365      1.0  0.01812  0.69751  0.11088  1.0000
  C   C366      1.0  0.31968  0.58557  0.13921  1.0000
  H   H352      1.0  0.04516  0.54198  0.20727  1.0000
  H   H353      1.0  0.00413  0.96884  0.23951  1.0000
  H   H354      1.0  0.02029  0.69290  0.12211  1.0000
  H   H355      1.0  0.03043  0.54923  0.09675  1.0000
  C   C367      1.0  0.99791  0.82312  0.11371  1.0000
  C   C368      1.0  0.02442  0.52689  0.24086  1.0000
  C   C369      1.0  0.01370  0.50338  0.17299  1.0000
  H   H356      1.0  0.02258  0.55392  0.07865  1.0000
  H   H357      1.0  0.06057  0.52289  0.08628  1.0000
  C   C370      1.0  0.99509  0.68388  0.00888  1.0000
  H   H358      1.0  0.99649  0.93566  0.19820  1.0000
  H   H359      1.0  0.99531  0.67519  0.01884  1.0000
  H   H360      1.0  0.02214  0.52495  0.08286  1.0000
  C   C371      1.0  0.02672  0.50160  0.22164  1.0000
  Fe  Fe67      1.0  0.08132  0.75348  0.42574  1.0000
  S   S130      1.0  0.06418  0.71617  0.43651  1.0000
  S   S131      1.0  0.12410  0.77677  0.42700  1.0000
  Fe  Fe68      1.0  0.02980  0.74457  0.41364  1.0000
  S   S132      1.0  0.00926  0.70692  0.42335  1.0000
  C   C372      1.0  0.11075  0.66241  0.37626  1.0000
  Fe  Fe69      1.0  0.03368  0.72517  0.44332  1.0000
  H   H361      1.0  0.23587  0.64821  0.26645  1.0000
  Fe  Fe70      1.0  0.04121  0.70055  0.41581  1.0000
  S   S133      1.0  0.03404  0.66623  0.40146  1.0000
  S   S134      1.0  0.05265  0.76353  0.43391  1.0000
  S   S135      1.0  0.05999  0.73726  0.40475  1.0000
  Fe  Fe71      1.0  0.28228  0.95079  0.44242  1.0000
  S   S136      1.0  0.25042  0.95732  0.43514  1.0000
  S   S137      1.0  0.30072  0.95959  0.46509  1.0000
  Fe  Fe72      1.0  0.28959  0.93451  0.41186  1.0000
  S   S138      1.0  0.25828  0.94073  0.40263  1.0000
  S   S139      1.0  0.30662  0.91743  0.39595  1.0000
  Fe  Fe73      1.0  0.27405  0.97624  0.41640  1.0000
  H   H362      1.0  0.08080  0.69698  0.38131  1.0000
  Fe  Fe74      1.0  0.23683  0.92097  0.42196  1.0000
  S   S140      1.0  0.19488  0.89378  0.41838  1.0000
  S   S141      1.0  0.30687  0.97149  0.42433  1.0000
  S   S142      1.0  0.26715  0.91297  0.43051  1.0000
  Fe  Fe75      1.0  0.07782  0.51712  0.36791  1.0000
  S   S143      1.0  0.09382  0.52629  0.34581  1.0000
  Fe  Fe76      1.0  0.08787  0.57209  0.37438  1.0000
  S   S144      1.0  0.10440  0.58452  0.35282  1.0000
  S   S145      1.0  0.08934  0.59973  0.39231  1.0000
  Fe  Fe77      1.0  0.07241  0.54806  0.34380  1.0000
  S   S146      1.0  0.04810  0.54912  0.32492  1.0000
  Fe  Fe78      1.0  0.12462  0.56200  0.35644  1.0000
  S   S147      1.0  0.16729  0.57788  0.35597  1.0000
  S   S148      1.0  0.05474  0.53722  0.36525  1.0000
  S   S149      1.0  0.10972  0.55122  0.37867  1.0000
  C   C373      1.0  0.09418  0.69016  0.38321  1.0000
  H   H363      1.0  0.02669  0.54476  0.24502  1.0000
  C   C374      1.0  0.99994  0.70647  0.47858  1.0000
  H   H364      1.0  0.13723  0.66108  0.39144  1.0000
  Fe  Fe79      1.0  0.29458  0.64894  0.31495  1.0000
  S   S150      1.0  0.25227  0.62935  0.31050  1.0000
  S   S151      1.0  0.31419  0.62902  0.30508  1.0000
  H   H365      1.0  0.23140  0.62474  0.27934  1.0000
  H   H366      1.0  0.29943  0.60443  0.35535  1.0000
  H   H367      1.0  0.25746  0.65574  0.28153  1.0000
  H   H368      1.0  0.18462  0.81878  0.40023  1.0000
  C   C375      1.0  0.99541  0.49895  0.33931  1.0000
  C   C376      1.0  0.03011  0.52659  0.31104  1.0000
  C   C377      1.0  0.00212  0.92194  0.31630  1.0000
  C   C378      1.0  0.24057  0.88033  0.38936  1.0000
  C   C379      1.0  0.19000  0.59524  0.34328  1.0000
  C   C380      1.0  0.18415  0.59374  0.32854  1.0000
  C   C381      1.0  0.20340  0.60480  0.31870  1.0000
  C   C382      1.0  0.22866  0.61759  0.32344  1.0000
  C   C383      1.0  0.23444  0.61981  0.33820  1.0000
  C   C384      1.0  0.21522  0.60867  0.34803  1.0000
  H   H369      1.0  0.16488  0.58336  0.32471  1.0000
  H   H370      1.0  0.19865  0.60307  0.30731  1.0000
  H   H371      1.0  0.25372  0.62976  0.34205  1.0000
  H   H372      1.0  0.21996  0.61010  0.35940  1.0000
  H   H373      1.0  0.11053  0.64779  0.36915  1.0000
  C   C385      1.0  0.04815  0.64635  0.39983  1.0000
  C   C386      1.0  0.04189  0.62991  0.38765  1.0000
  C   C387      1.0  0.05375  0.61499  0.38533  1.0000
  C   C388      1.0  0.07189  0.61612  0.39526  1.0000
  C   C389      1.0  0.07757  0.63197  0.40766  1.0000
  C   C390      1.0  0.06589  0.64707  0.40992  1.0000
  H   H374      1.0  0.02808  0.62905  0.37981  1.0000
  H   H375      1.0  0.04911  0.60288  0.37576  1.0000
  H   H376      1.0  0.09142  0.63285  0.41548  1.0000
  H   H377      1.0  0.07066  0.65926  0.41944  1.0000
  C   C391      1.0  0.14303  0.80991  0.42610  1.0000
  C   C392      1.0  0.13336  0.82550  0.42146  1.0000
  C   C393      1.0  0.14940  0.85130  0.41979  1.0000
  C   C394      1.0  0.17531  0.86196  0.42274  1.0000
  C   C395      1.0  0.18487  0.84655  0.42786  1.0000
  C   C396      1.0  0.16885  0.82068  0.42941  1.0000
  H   H378      1.0  0.11358  0.81760  0.41889  1.0000
  H   H379      1.0  0.14171  0.86301  0.41591  1.0000
  H   H380      1.0  0.20469  0.85443  0.43026  1.0000
  H   H381      1.0  0.17655  0.80889  0.43312  1.0000
  S   S152      1.0  0.01331  0.76583  0.40131  1.0000
  H   H382      1.0  0.01971  0.92032  0.35617  1.0000
  S   S153      1.0  0.00646  0.98509  0.29638  1.0000
  H   H383      1.0  0.01455  0.76845  0.45402  1.0000
  H   H384      1.0  0.26526  0.58908  0.37279  1.0000
  N   N32       1.0  0.10911  0.69752  0.39547  1.0000
  C   C397      1.0  0.20027  0.83608  0.39705  1.0000
  C   C398      1.0  0.24482  0.86269  0.39652  1.0000
  H   H385      1.0  0.08228  0.66606  0.36398  1.0000
  C   C399      1.0  0.10691  0.71485  0.40590  1.0000
  N   N33       1.0  0.19631  0.85384  0.39037  1.0000
  C   C400      1.0  0.09488  0.67263  0.37338  1.0000
  C   C401      1.0  0.01501  0.92094  0.34494  1.0000
  H   H386      1.0  0.06126  0.97394  0.34139  1.0000
  C   C402      1.0  0.26095  0.58442  0.36139  1.0000
  H   H387      1.0  0.99837  0.98603  0.26280  1.0000
  C   C403      1.0  0.24557  0.64066  0.27344  1.0000
  H   H388      1.0  0.15670  0.83293  0.39248  1.0000
  N   N34       1.0  0.26089  0.63243  0.26525  1.0000
  H   H389      1.0  0.12195  0.72191  0.41446  1.0000
  C   C404      1.0  0.27665  0.98164  0.48036  1.0000
  H   H390      1.0  0.22766  0.82667  0.40616  1.0000
  C   C405      1.0  0.04241  0.96665  0.34589  1.0000
  C   C406      1.0  0.00196  0.78569  0.43812  1.0000
  H   H391      1.0  0.23988  0.98974  0.39139  1.0000
  C   C407      1.0  0.29213  0.61878  0.26511  1.0000
  H   H392      1.0  0.16870  0.86584  0.39050  1.0000
  C   C408      1.0  0.27687  0.62629  0.27254  1.0000
  H   H393      1.0  0.16684  0.84595  0.37512  1.0000
  C   C409      1.0  0.27392  0.62299  0.24275  1.0000
  C   C410      1.0  0.12472  0.68757  0.39839  1.0000
  H   H394      1.0  0.99650  0.92268  0.30525  1.0000
  H   H395      1.0  0.21296  0.89002  0.38146  1.0000
  C   C411      1.0  0.12579  0.66991  0.38883  1.0000
  C   C412      1.0  0.00020  0.76563  0.44596  1.0000
  C   C413      1.0  0.99916  0.99554  0.25300  1.0000
  N   N35       1.0  0.23067  0.56431  0.34192  1.0000
  C   C414      1.0  0.23620  0.56978  0.35633  1.0000
  C   C415      1.0  0.24932  0.57282  0.33229  1.0000
  C   C416      1.0  0.27427  0.58726  0.33700  1.0000
  C   C417      1.0  0.28008  0.59312  0.35164  1.0000
  C   C418      1.0  0.20476  0.54839  0.33676  1.0000
  H   H396      1.0  0.22136  0.56327  0.36395  1.0000
  H   H397      1.0  0.24495  0.56876  0.32086  1.0000
  H   H398      1.0  0.28909  0.59395  0.32939  1.0000
  H   H399      1.0  0.03626  0.98115  0.34466  1.0000
  S   S154      1.0  0.31708  0.65808  0.33577  1.0000
  H   H400      1.0  0.30027  0.68566  0.24346  1.0000
  H   H401      1.0  0.13580  0.69257  0.40837  1.0000
  H   H402      1.0  0.26447  0.97763  0.47092  1.0000
  N   N36       1.0  0.02484  0.94325  0.33817  1.0000
  C   C419      1.0  0.29514  0.97412  0.48045  1.0000
  H   H403      1.0  0.25621  0.89765  0.38623  1.0000
  C   C420      1.0  0.22457  0.84039  0.40042  1.0000
  H   H404      1.0  0.10799  0.73148  0.40050  1.0000
  C   C421      1.0  0.21608  0.87575  0.38653  1.0000
  C   C422      1.0  0.99836  0.51360  0.29139  1.0000
  C   C423      1.0  0.17086  0.84932  0.38688  1.0000
  H   H405      1.0  0.26383  0.86650  0.39913  1.0000
  C   C424      1.0  0.01430  0.53154  0.30192  1.0000
  S   S155      1.0  0.02035  0.72757  0.46601  1.0000
  H   H406      1.0  0.08865  0.70515  0.41110  1.0000
  C   C425      1.0  0.01503  0.50642  0.24975  1.0000
  H   H407      1.0  0.07009  0.98996  0.26553  1.0000
  H   H408      1.0  0.27813  0.62767  0.28419  1.0000
  H   H409      1.0  0.04396  0.96418  0.35759  1.0000
  H   H410      1.0  0.01403  0.54922  0.30323  1.0000
  H   H411      1.0  0.19127  0.54816  0.34473  1.0000
  C   C426      1.0  0.25911  0.63067  0.25053  1.0000
  H   H412      1.0  0.01787  0.80416  0.43992  1.0000
  C   C427      1.0  0.29066  0.61722  0.25011  1.0000
  H   H413      1.0  0.30566  0.61510  0.27093  1.0000
  H   H414      1.0  0.20132  0.52889  0.33466  1.0000
  H   H415      1.0  0.02639  0.96160  0.31869  1.0000
  H   H416      1.0  0.20073  0.55569  0.32676  1.0000
  C   C428      1.0  0.31515  0.68068  0.24401  1.0000
  C   C429      1.0  0.01868  0.94392  0.32403  1.0000
  C   C430      1.0  0.99846  0.89856  0.33751  1.0000
  H   H417      1.0  0.32493  0.89477  0.37519  1.0000
  C   C431      1.0  0.03034  0.50369  0.30920  1.0000
  H   H418      1.0  0.24672  0.63582  0.24467  1.0000
  S   S156      1.0  0.99632  0.99289  0.33031  1.0000
  H   H419      1.0  0.04256  0.49970  0.31602  1.0000
  S   S157      1.0  0.31998  0.68618  0.30539  1.0000
  H   H420      1.0  0.30311  0.61244  0.24420  1.0000
  H   H421      1.0  0.31880  0.68407  0.26727  1.0000
  H   H422      1.0  0.01028  0.50848  0.26069  1.0000
  H   H423      1.0  0.00729  0.51455  0.34662  1.0000
  C   C432      1.0  0.32557  0.67972  0.25752  1.0000
  H   H424      1.0  0.05384  0.70208  0.48532  1.0000
  H   H425      1.0  0.99507  0.67244  0.46790  1.0000
  C   C433      1.0  0.99411  0.71649  0.49085  1.0000
  N   N37       1.0  0.20294  0.89543  0.64388  1.0000
  S   S158      1.0  0.27276  0.83389  0.72806  1.0000
  H   H426      1.0  0.10989  0.66370  0.69724  1.0000
  S   S159      1.0  0.02628  0.95832  0.67336  1.0000
  Fe  Fe80      1.0  0.08992  0.85417  0.62155  1.0000
  S   S160      1.0  0.08996  0.87345  0.64268  1.0000
  S   S161      1.0  0.05067  0.82302  0.61487  1.0000
  Fe  Fe81      1.0  0.14415  0.89422  0.61605  1.0000
  S   S162      1.0  0.14713  0.91598  0.63649  1.0000
  S   S163      1.0  0.17653  0.90520  0.60082  1.0000
  Fe  Fe82      1.0  0.12869  0.87823  0.64667  1.0000
  S   S164      1.0  0.14557  0.87769  0.66881  1.0000
  Fe  Fe83      1.0  0.10813  0.90915  0.63091  1.0000
  S   S165      1.0  0.09519  0.93882  0.62973  1.0000
  S   S166      1.0  0.12763  0.85649  0.62644  1.0000
  S   S167      1.0  0.10643  0.88992  0.60959  1.0000
  Fe  Fe84      1.0  0.04845  0.51999  0.72728  1.0000
  H   H427      1.0  0.26518  0.97125  0.53539  1.0000
  S   S168      1.0  0.09042  0.54118  0.72636  1.0000
  Fe  Fe85      1.0  0.17965  0.79727  0.72257  1.0000
  S   S169      1.0  0.20215  0.77652  0.72403  1.0000
  S   S170      1.0  0.15560  0.79155  0.70219  1.0000
  H   H428      1.0  0.09211  0.64153  0.71012  1.0000
  Fe  Fe86      1.0  0.00829  0.98357  0.67010  1.0000
  C   C434      1.0  0.27412  0.99471  0.49244  1.0000
  H   H429      1.0  0.01457  0.53510  0.70196  1.0000
  H   H430      1.0  0.03401  0.88485  0.59745  1.0000
  S   S171      1.0  0.99472  0.99321  0.64984  1.0000
  C   C435      1.0  0.14797  0.85327  0.67780  1.0000
  C   C436      1.0  0.13715  0.82862  0.67211  1.0000
  C   C437      1.0  0.13974  0.81000  0.67967  1.0000
  C   C438      1.0  0.15335  0.81581  0.69291  1.0000
  C   C439      1.0  0.16443  0.84053  0.69848  1.0000
  C   C440      1.0  0.16167  0.85909  0.69098  1.0000
  H   H431      1.0  0.12658  0.82383  0.66198  1.0000
  H   H432      1.0  0.13109  0.79094  0.67526  1.0000
  H   H433      1.0  0.17491  0.84531  0.70864  1.0000
  H   H434      1.0  0.17015  0.87809  0.69547  1.0000
  H   H435      1.0  0.02180  0.74449  0.61634  1.0000
  C   C441      1.0  0.04665  0.95434  0.66148  1.0000
  C   C442      1.0  0.05340  0.96686  0.64861  1.0000
  C   C443      1.0  0.06876  0.96229  0.63918  1.0000
  C   C444      1.0  0.07736  0.94507  0.64246  1.0000
  C   C445      1.0  0.07088  0.93278  0.65542  1.0000
  C   C446      1.0  0.05569  0.93751  0.66491  1.0000
  H   H436      1.0  0.19258  0.98105  0.57054  1.0000
  H   H437      1.0  0.07378  0.97197  0.62920  1.0000
  H   H438      1.0  0.07745  0.91957  0.65810  1.0000
  H   H439      1.0  0.05067  0.92782  0.67488  1.0000
  H   H440      1.0  0.19273  0.87195  0.66189  1.0000
  H   H441      1.0  0.31970  0.50352  0.73361  1.0000
  C   C447      1.0  0.30423  0.84579  0.73484  1.0000
  C   C448      1.0  0.03100  0.87096  0.63091  1.0000
  C   C449      1.0  0.02414  0.68578  0.51688  1.0000
  C   C450      1.0  0.23628  0.99048  0.54593  1.0000
  C   C451      1.0  0.09467  0.65892  0.70490  1.0000
  H   H442      1.0  0.01222  0.66916  0.52262  1.0000
  C   C452      1.0  0.19852  0.95731  0.60318  1.0000
  C   C453      1.0  0.19944  0.93630  0.59730  1.0000
  C   C454      1.0  0.21943  0.93999  0.58857  1.0000
  C   C455      1.0  0.23823  0.96437  0.58571  1.0000
  C   C456      1.0  0.09937  0.69358  0.73968  1.0000
  H   H443      1.0  0.18333  0.95482  0.60994  1.0000
  H   H444      1.0  0.22040  0.92388  0.58399  1.0000
  H   H445      1.0  0.25341  0.96692  0.57893  1.0000
  C   C457      1.0  0.11348  0.71840  0.73585  1.0000
  C   C458      1.0  0.23719  0.98538  0.59152  1.0000
  H   H446      1.0  0.24260  0.96717  0.52134  1.0000
  C   C459      1.0  0.22542  0.92203  0.62487  1.0000
  C   C460      1.0  0.02115  0.75505  0.58265  1.0000
  C   C461      1.0  0.00484  0.76217  0.58916  1.0000
  C   C462      1.0  0.01428  0.78318  0.59887  1.0000
  C   C463      1.0  0.04009  0.79747  0.60205  1.0000
  C   C464      1.0  0.05641  0.79052  0.59539  1.0000
  C   C465      1.0  0.04695  0.76938  0.58579  1.0000
  C   C466      1.0  0.16001  0.58167  0.72535  1.0000
  H   H447      1.0  0.03170  0.96528  0.73307  1.0000
  H   H448      1.0  0.07628  0.80127  0.59775  1.0000
  H   H449      1.0  0.05975  0.76404  0.58083  1.0000
  H   H450      1.0  0.00950  0.92113  0.63614  1.0000
  C   C467      1.0  0.02639  0.90501  0.62202  1.0000
  Fe  Fe87      1.0  0.23234  0.81175  0.73547  1.0000
  H   H451      1.0  0.21301  0.88250  0.62486  1.0000
  N   N38       1.0  0.02876  0.70899  0.52203  1.0000
  C   C468      1.0  0.15434  0.68865  0.73352  1.0000
  H   H452      1.0  0.14152  0.52839  0.72658  1.0000
  H   H453      1.0  0.01418  0.97998  0.70304  1.0000
  C   C469      1.0  0.01029  0.70869  0.60530  1.0000
  H   H454      1.0  0.15779  0.57716  0.71388  1.0000
  H   H455      1.0  0.08285  0.65493  0.73250  1.0000
  C   C470      1.0  0.01494  0.90657  0.63460  1.0000
  C   C471      1.0  0.03662  0.98499  0.73362  1.0000
  C   C472      1.0  0.03349  0.68297  0.50375  1.0000
  H   H456      1.0  0.02424  0.73088  0.53917  1.0000
  H   H457      1.0  0.23351  0.96064  0.62723  1.0000
  C   C473      1.0  0.01755  0.71107  0.53542  1.0000
  C   C474      1.0  0.20257  0.91532  0.65098  1.0000
  C   C475      1.0  0.21362  0.93908  0.64515  1.0000
  C   C476      1.0  0.19059  0.87053  0.64995  1.0000
  H   H458      1.0  0.19340  0.91283  0.66112  1.0000
  H   H459      1.0  0.21278  0.95465  0.65065  1.0000
  H   H460      1.0  0.17033  0.86122  0.64697  1.0000
  H   H461      1.0  0.19858  0.85845  0.64607  1.0000
  C   C477      1.0  0.04250  0.72981  0.51436  1.0000
  C   C478      1.0  0.14185  0.66345  0.72818  1.0000
  C   C479      1.0  0.00321  0.51933  0.69469  1.0000
  C   C480      1.0  0.22521  0.94243  0.63203  1.0000
  H   H462      1.0  0.02211  0.70159  0.54418  1.0000
  H   H463      1.0  0.03401  0.96647  0.70769  1.0000
  H   H464      1.0  0.26197  0.89056  0.73294  1.0000
  H   H465      1.0  0.17239  0.54570  0.71952  1.0000
  N   N39       1.0  0.23021  0.96611  0.54256  1.0000
  H   H466      1.0  0.23373  0.92427  0.61446  1.0000
  S   S172      1.0  0.11017  0.61261  0.72935  1.0000
  C   C481      1.0  0.21729  0.98165  0.60032  1.0000
  H   H467      1.0  0.06430  0.90327  0.60642  1.0000
  C   C482      1.0  0.16016  0.60372  0.73033  1.0000
  C   C483      1.0  0.19638  0.95198  0.55877  1.0000
  S   S173      1.0  0.01029  0.72761  0.57126  1.0000
  H   H468      1.0  0.31955  0.86632  0.71579  1.0000
  Fe  Fe88      1.0  0.08789  0.57299  0.73826  1.0000
  H   H469      1.0  0.32058  0.99681  0.51435  1.0000
  H   H470      1.0  0.18122  0.93679  0.56406  1.0000
  C   C484      1.0  0.01182  0.89012  0.64553  1.0000
  S   S174      1.0  0.21050  0.83285  0.73238  1.0000
  C   C485      1.0  0.12725  0.64372  0.73710  1.0000
  H   H471      1.0  0.02974  0.91855  0.61383  1.0000
  H   H472      1.0  0.14327  0.65930  0.71697  1.0000
  C   C486      1.0  0.04595  0.88612  0.60695  1.0000
  H   H473      1.0  0.00625  0.67763  0.58318  1.0000
  H   H474      1.0  0.00387  0.89185  0.65555  1.0000
  C   C487      1.0  0.21370  0.89843  0.63083  1.0000
  H   H475      1.0  0.16518  0.70358  0.72645  1.0000
  C   C488      1.0  0.04744  0.70407  0.49583  1.0000
  H   H476      1.0  0.00096  0.73652  0.49200  1.0000
  H   H477      1.0  0.13212  0.74293  0.71866  1.0000
  H   H478      1.0  0.30793  0.90850  0.73099  1.0000
  C   C489      1.0  0.00651  0.72581  0.61387  1.0000
  H   H479      1.0  0.12068  0.70810  0.70076  1.0000
  N   N40       1.0  0.03399  0.88719  0.62025  1.0000
  C   C490      1.0  0.11453  0.70382  0.71166  1.0000
  H   H480      1.0  0.32495  0.97353  0.49314  1.0000
  H   H481      1.0  0.99695  0.70208  0.53378  1.0000
  N   N41       1.0  0.16220  0.56582  0.73479  1.0000
  C   C491      1.0  0.21049  0.94692  0.54880  1.0000
  H   H482      1.0  0.02865  0.71441  0.60114  1.0000
  H   H483      1.0  0.20571  0.92757  0.54625  1.0000
  H   H484      1.0  0.06202  0.74399  0.49477  1.0000
  C   C492      1.0  0.12100  0.72365  0.72174  1.0000
  C   C493      1.0  0.16124  0.54248  0.72926  1.0000
  C   C494      1.0  0.03309  0.98434  0.70725  1.0000
  H   H485      1.0  0.23965  0.94063  0.53111  1.0000
  C   C495      1.0  0.32387  0.86199  0.72635  1.0000
  H   H486      1.0  0.03739  0.85709  0.62963  1.0000
  H   H487      1.0  0.04665  0.97991  0.64586  1.0000
  H   H488      1.0  0.04551  0.74811  0.51820  1.0000
  C   C496      1.0  0.30818  0.99252  0.50499  1.0000
  S   S175      1.0  0.04571  0.55245  0.73765  1.0000
  H   H489      1.0  0.02897  0.66444  0.49944  1.0000
  C   C497      1.0  0.24500  0.96087  0.53210  1.0000
  C   C498      1.0  0.05204  0.72766  0.50116  1.0000
  C   C499      1.0  0.31063  0.97934  0.49292  1.0000
  H   H490      1.0  0.04922  0.86954  0.60631  1.0000
  C   C500      1.0  0.09319  0.67422  0.72932  1.0000
  C   C501      1.0  0.20269  0.97682  0.56240  1.0000
  H   H491      1.0  0.15815  0.61615  0.72284  1.0000
  N   N42       1.0  0.10115  0.67947  0.71559  1.0000
  H   H492      1.0  0.07714  0.65490  0.69888  1.0000
  H   H493      1.0  0.01818  0.85971  0.65226  1.0000
  H   H494      1.0  0.00148  0.78837  0.60395  1.0000
  H   H495      1.0  0.00609  0.66058  0.59898  1.0000
  C   C502      1.0  0.01996  0.87223  0.64372  1.0000
  H   H496      1.0  0.16876  0.53434  0.73737  1.0000
  C   C503      1.0  0.99550  0.66799  0.59266  1.0000
  H   H497      1.0  0.04697  0.99604  0.69941  1.0000
  C   C504      1.0  0.22279  0.99622  0.55597  1.0000
  N   N43       1.0  0.03819  0.99750  0.72133  1.0000
  C   C505      1.0  0.29904  0.89967  0.74075  1.0000
  H   H498      1.0  0.20191  0.89583  0.89882  1.0000
  H   H499      1.0  0.27463  0.86896  0.78766  1.0000
  H   H500      1.0  0.04924  0.82819  0.90509  1.0000
  C   C506      1.0  0.21801  0.89912  0.89211  1.0000
  Fe  Fe89      1.0  0.10432  0.89298  0.84277  1.0000
  S   S176      1.0  0.09890  0.88943  0.86660  1.0000
  S   S177      1.0  0.09561  0.91660  0.82721  1.0000
  Fe  Fe90      1.0  0.12531  0.85594  0.84130  1.0000
  S   S178      1.0  0.12119  0.84946  0.86505  1.0000
  S   S179      1.0  0.13731  0.83157  0.82801  1.0000
  Fe  Fe91      1.0  0.08368  0.84775  0.86226  1.0000
  S   S180      1.0  0.04573  0.81861  0.87006  1.0000
  Fe  Fe92      1.0  0.13703  0.89149  0.86767  1.0000
  S   S181      1.0  0.16528  0.91051  0.88646  1.0000
  S   S182      1.0  0.08665  0.85136  0.83828  1.0000
  S   S183      1.0  0.14366  0.89792  0.84408  1.0000
  C   C507      1.0  0.10096  0.83665  0.79850  1.0000
  S   S184      1.0  0.16155  0.78429  0.74373  1.0000
  H   H501      1.0  0.03813  0.98692  0.75688  1.0000
  H   H502      1.0  0.12121  0.88602  0.81242  1.0000
  Fe  Fe93      1.0  0.04916  0.53642  0.75876  1.0000
  S   S185      1.0  0.02431  0.53761  0.77671  1.0000
  S   S186      1.0  0.09133  0.55901  0.75995  1.0000
  Fe  Fe94      1.0  0.19427  0.81843  0.75382  1.0000
  S   S187      1.0  0.21759  0.79906  0.75746  1.0000
  S   S188      1.0  0.19365  0.84836  0.76906  1.0000
  C   C508      1.0  0.00787  0.64074  0.89340  1.0000
  H   H503      1.0  0.09164  0.83106  0.80859  1.0000
  H   H504      1.0  0.13795  0.85704  0.76386  1.0000
  H   H505      1.0  0.11493  0.63462  0.75867  1.0000
  H   H506      1.0  0.16834  0.84669  0.85475  1.0000
  C   C509      1.0  0.24034  0.98373  0.88906  1.0000
  H   H507      1.0  0.02739  0.68511  0.91477  1.0000
  H   H508      1.0  0.04154  0.70216  0.89906  1.0000
  H   H509      1.0  0.03587  0.84606  0.91365  1.0000
  H   H510      1.0  0.13735  0.67883  0.76820  1.0000
  H   H511      1.0  0.26152  0.84078  0.77612  1.0000
  C   C510      1.0  0.19110  0.87081  0.87261  1.0000
  H   H512      1.0  0.10884  0.89546  0.79741  1.0000
  N   N44       1.0  0.01086  0.80726  0.91006  1.0000
  C   C511      1.0  0.00473  0.51525  0.78909  1.0000
  C   C512      1.0  0.19426  0.88351  0.84807  1.0000
  C   C513      1.0  0.15396  0.83709  0.81194  1.0000
  C   C514      1.0  0.16563  0.86071  0.80597  1.0000
  C   C515      1.0  0.17815  0.86392  0.79299  1.0000
  C   C516      1.0  0.17875  0.84354  0.78573  1.0000
  C   C517      1.0  0.16717  0.81998  0.79174  1.0000
  C   C518      1.0  0.15502  0.81686  0.80483  1.0000
  H   H513      1.0  0.16495  0.87643  0.81130  1.0000
  H   H514      1.0  0.18711  0.88223  0.78843  1.0000
  H   H515      1.0  0.16756  0.80416  0.78632  1.0000
  H   H516      1.0  0.14611  0.79853  0.80939  1.0000
  C   C519      1.0  0.03454  0.94043  0.83312  1.0000
  C   C520      1.0  0.03946  0.92717  0.84381  1.0000
  C   C521      1.0  0.05792  0.91959  0.84211  1.0000
  C   C522      1.0  0.07180  0.92530  0.82969  1.0000
  C   C523      1.0  0.06693  0.93861  0.81900  1.0000
  C   C524      1.0  0.04835  0.94609  0.82067  1.0000
  H   H517      1.0  0.02891  0.92272  0.85348  1.0000
  H   H518      1.0  0.06144  0.90937  0.85042  1.0000
  H   H519      1.0  0.07755  0.94313  0.80936  1.0000
  H   H520      1.0  0.04483  0.95634  0.81237  1.0000
  C   C525      1.0  0.26361  0.85996  0.77755  1.0000
  C   C526      1.0  0.03346  0.68337  0.90381  1.0000
  H   H521      1.0  0.29543  0.82783  0.75508  1.0000
  H   H522      1.0  0.31222  0.88173  0.77256  1.0000
  S   S189      1.0  0.01652  0.72859  0.91246  1.0000
  H   H523      1.0  0.99884  0.77631  0.87576  1.0000
  C   C527      1.0  0.16362  0.59268  0.75466  1.0000
  C   C528      1.0  0.16178  0.60913  0.74509  1.0000
  H   H524      1.0  0.22586  0.88675  0.89549  1.0000
  C   C529      1.0  0.23080  0.96968  0.90123  1.0000
  C   C530      1.0  0.20740  0.94785  0.90033  1.0000
  C   C531      1.0  0.19332  0.93963  0.88726  1.0000
  C   C532      1.0  0.20267  0.95387  0.87513  1.0000
  C   C533      1.0  0.22606  0.97574  0.87604  1.0000
  H   H525      1.0  0.12118  0.81315  0.77128  1.0000
  H   H526      1.0  0.20032  0.93709  0.90981  1.0000
  H   H527      1.0  0.19205  0.94788  0.86501  1.0000
  C   C534      1.0  0.31021  0.84034  0.74844  1.0000
  C   C535      1.0  0.02426  0.75222  0.89969  1.0000
  C   C536      1.0  0.04952  0.76971  0.89822  1.0000
  C   C537      1.0  0.05654  0.78958  0.88877  1.0000
  C   C538      1.0  0.03831  0.79222  0.88070  1.0000
  C   C539      1.0  0.01308  0.77443  0.88196  1.0000
  C   C540      1.0  0.00606  0.75446  0.89135  1.0000
  H   H528      1.0  0.06376  0.76813  0.90460  1.0000
  H   H529      1.0  0.07600  0.80317  0.88796  1.0000
  H   H530      1.0  0.99675  0.54215  0.80023  1.0000
  H   H531      1.0  0.08813  0.87061  0.80804  1.0000
  C   C541      1.0  0.11751  0.82634  0.77755  1.0000
  N   N45       1.0  0.01203  0.66497  0.89497  1.0000
  S   S190      1.0  0.01204  0.95069  0.83626  1.0000
  H   H532      1.0  0.13100  0.88746  0.77882  1.0000
  H   H533      1.0  0.23534  0.93079  0.87052  1.0000
  Fe  Fe95      1.0  0.18561  0.76524  0.74575  1.0000
  Fe  Fe96      1.0  0.09098  0.52566  0.74800  1.0000
  Fe  Fe97      1.0  0.00036  0.97280  0.82123  1.0000
  C   C542      1.0  0.01434  0.79307  0.92017  1.0000
  H   H534      1.0  0.01891  0.99048  0.85713  1.0000
  H   H535      1.0  0.18794  0.87935  0.83686  1.0000
  H   H536      1.0  0.99854  0.69091  0.89043  1.0000
  H   H537      1.0  0.09413  0.68937  0.75073  1.0000
  H   H538      1.0  0.06050  0.98273  0.85571  1.0000
  C   C543      1.0  0.99560  0.67187  0.88892  1.0000
  H   H539      1.0  0.24150  0.97560  0.91133  1.0000
  C   C544      1.0  0.10440  0.81904  0.79017  1.0000
  H   H540      1.0  0.09789  0.80017  0.79384  1.0000
  N   N46       1.0  0.11000  0.86076  0.79424  1.0000
  C   C545      1.0  0.03221  0.83052  0.90579  1.0000
  N   N47       1.0  0.20982  0.89402  0.87690  1.0000
  C   C546      1.0  0.15269  0.69448  0.74797  1.0000
  C   C547      1.0  0.10697  0.87909  0.80343  1.0000
  C   C548      1.0  0.12598  0.64948  0.75161  1.0000
  C   C549      1.0  0.21310  0.90727  0.85256  1.0000
  H   H541      1.0  0.24470  0.85825  0.77876  1.0000
  H   H542      1.0  0.02888  0.83581  0.89490  1.0000
  H   H543      1.0  0.15852  0.50191  0.76485  1.0000
  N   N48       1.0  0.27592  0.87466  0.76514  1.0000
  H   H544      1.0  0.16110  0.62579  0.74908  1.0000
  S   S191      1.0  0.16692  0.72600  0.75527  1.0000
  C   C550      1.0  0.13869  0.67464  0.75698  1.0000
  C   C551      1.0  0.31320  0.89741  0.75205  1.0000
  H   H545      1.0  0.18194  0.85664  0.88044  1.0000
  C   C552      1.0  0.22085  0.91218  0.86709  1.0000
  C   C553      1.0  0.26196  0.87717  0.75421  1.0000
  C   C554      1.0  0.18322  0.86513  0.85814  1.0000
  H   H546      1.0  0.16433  0.59640  0.76617  1.0000
  C   C555      1.0  0.12310  0.86815  0.78195  1.0000
  C   C556      1.0  0.12696  0.85104  0.77339  1.0000
  H   H547      1.0  0.22149  0.92190  0.84489  1.0000
  H   H548      1.0  0.23250  0.91894  0.89429  1.0000
  H   H549      1.0  0.04856  0.67804  0.90472  1.0000
  S   S192      1.0  0.11973  0.51325  0.75549  1.0000
  C   C557      1.0  0.30122  0.88449  0.76416  1.0000
  H   H550      1.0  0.24189  0.86914  0.75490  1.0000
  H   H551      1.0  0.16506  0.55821  0.75683  1.0000
  C   C558      1.0  0.16394  0.57105  0.74929  1.0000
  H   H552      1.0  0.23319  0.98657  0.86658  1.0000
  C   C559      1.0  0.27389  0.98760  0.98690  1.0000
  H   H553      1.0  0.25504  0.98118  0.98269  1.0000
  H   H554      1.0  0.03291  0.79828  0.92453  1.0000
  H   H555      1.0  0.09137  0.98892  0.83735  1.0000
  C   C560      1.0  0.04040  0.99716  0.74714  1.0000
  S   S193      1.0  0.04913  0.50249  0.74836  1.0000
  H   H556      1.0  0.99716  0.75965  0.93242  1.0000
  H   H557      1.0  0.02040  0.63500  0.89857  1.0000
  C   C561      1.0  0.99413  0.77117  0.92469  1.0000
  C   C562      1.0  0.27326  0.88958  0.74183  1.0000
  S   S194      1.0  0.02259  0.99724  0.80368  1.0000
  H   H558      1.0  0.11909  0.73348  0.74393  1.0000
  C   C563      1.0  0.99407  0.70585  0.98280  1.0000
  H   H559      1.0  0.43408  0.10667  0.23178  1.0000
  Fe  Fe98      1.0  0.52808  0.47554  0.22419  1.0000
  S   S195      1.0  0.54174  0.44711  0.22766  1.0000
  Fe  Fe99      1.0  0.41928  0.18322  0.23985  1.0000
  Fe  Fe100     1.0  0.52322  0.05684  0.22168  1.0000
  S   S196      1.0  0.55097  0.09747  0.22674  1.0000
  S   S197      1.0  0.50875  0.04477  0.19836  1.0000
  Fe  Fe101     1.0  0.38195  0.20033  0.22858  1.0000
  S   S198      1.0  0.42156  0.21087  0.22322  1.0000
  N   N49       1.0  0.49998  0.14064  0.21225  1.0000
  C   C564      1.0  0.34568  0.32981  0.08892  1.0000
  H   H560      1.0  0.48941  0.02503  0.16978  1.0000
  C   C565      1.0  0.46738  0.41493  0.20975  1.0000
  C   C566      1.0  0.51607  0.39902  0.19636  1.0000
  C   C567      1.0  0.45090  0.12062  0.23738  1.0000
  H   H561      1.0  0.36084  0.40768  0.07362  1.0000
  C   C568      1.0  0.51386  0.16690  0.21743  1.0000
  S   S199      1.0  0.54454  0.04304  0.23534  1.0000
  C   C569      1.0  0.50731  0.37475  0.20117  1.0000
  H   H562      1.0  0.52657  0.16894  0.22675  1.0000
  H   H563      1.0  0.47905  0.43543  0.20844  1.0000
  H   H564      1.0  0.47822  0.34485  0.21242  1.0000
  C   C570      1.0  0.48511  0.36362  0.20848  1.0000
  H   H565      1.0  0.50957  0.43084  0.19538  1.0000
  C   C571      1.0  0.46284  0.10641  0.20144  1.0000
  H   H566      1.0  0.50622  0.99820  0.20855  1.0000
  S   S200      1.0  0.42070  0.48578  0.09991  1.0000
  H   H567      1.0  0.50099  0.17389  0.22129  1.0000
  H   H568      1.0  0.33716  0.36794  0.09649  1.0000
  H   H569      1.0  0.33814  0.31229  0.08203  1.0000
  H   H570      1.0  0.51024  0.32748  0.24023  1.0000
  H   H571      1.0  0.53336  0.40797  0.19071  1.0000
  H   H572      1.0  0.36213  0.33182  0.09537  1.0000
  H   H573      1.0  0.36291  0.16552  0.19582  1.0000
  C   C572      1.0  0.50256  0.41194  0.19910  1.0000
  C   C573      1.0  0.47219  0.37715  0.21112  1.0000
  H   H574      1.0  0.65114  0.03385  0.03493  1.0000
  C   C574      1.0  0.64113  0.01478  0.03048  1.0000
  C   C575      1.0  0.36295  0.42144  0.08192  1.0000
  C   C576      1.0  0.38677  0.44189  0.08543  1.0000
  C   C577      1.0  0.39005  0.46026  0.09611  1.0000
  C   C578      1.0  0.36905  0.45778  0.10327  1.0000
  C   C579      1.0  0.34524  0.43733  0.09976  1.0000
  H   H575      1.0  0.40279  0.44355  0.07978  1.0000
  H   H576      1.0  0.37113  0.47164  0.11149  1.0000
  C   C580      1.0  0.47414  0.09103  0.20198  1.0000
  C   C581      1.0  0.51125  0.12573  0.21271  1.0000
  H   H577      1.0  0.35172  0.34558  0.08150  1.0000
  N   N50       1.0  0.48121  0.40115  0.20668  1.0000
  H   H578      1.0  0.46710  0.14312  0.20639  1.0000
  S   S201      1.0  0.34903  0.19648  0.21443  1.0000
  C   C582      1.0  0.47620  0.13141  0.20655  1.0000
  H   H579      1.0  0.53001  0.13296  0.21736  1.0000
  C   C583      1.0  0.49850  0.10075  0.20759  1.0000
  H   H580      1.0  0.46410  0.07154  0.19817  1.0000
  C   C584      1.0  0.49885  0.01458  0.19005  1.0000
  H   H581      1.0  0.45069  0.40808  0.20237  1.0000
  H   H582      1.0  0.50735  0.08888  0.20808  1.0000
  H   H583      1.0  0.51776  0.36462  0.19932  1.0000
  H   H584      1.0  0.52501  0.17873  0.20869  1.0000
  C   C585      1.0  0.49011  0.01011  0.17558  1.0000
  H   H585      1.0  0.45533  0.36864  0.21719  1.0000
  H   H586      1.0  0.51554  0.49025  0.17096  1.0000
  H   H587      1.0  0.46145  0.41246  0.22108  1.0000
  H   H588      1.0  0.44376  0.09897  0.19730  1.0000
  C   C586      1.0  0.34707  0.16632  0.19084  1.0000
  C   C587      1.0  0.50597  0.49649  0.19230  1.0000
  C   C588      1.0  0.33738  0.18067  0.19745  1.0000
  S   S202      1.0  0.49758  0.05500  0.23923  1.0000
  S   S203      1.0  0.52187  0.48147  0.20055  1.0000
  H   H589      1.0  0.34351  0.14147  0.17285  1.0000
  S   S204      1.0  0.49824  0.45928  0.24038  1.0000
  C   C589      1.0  0.45315  0.14437  0.24098  1.0000
  H   H590      1.0  0.32920  0.43575  0.10536  1.0000
  C   C590      1.0  0.34194  0.41904  0.08904  1.0000
  H   H591      1.0  0.34100  0.00977  0.00209  1.0000
  H   H592      1.0  0.46847  0.09668  0.23757  1.0000
  H   H593      1.0  0.65263  0.02505  0.00894  1.0000
  C   C591      1.0  0.33599  0.15267  0.17784  1.0000
  C   C592      1.0  0.64194  0.00964  0.01581  1.0000
  S   S205      1.0  0.42901  0.15132  0.23504  1.0000
  C   C593      1.0  0.47039  0.11487  0.24068  1.0000
  H   H594      1.0  0.53054  0.00747  0.15427  1.0000
  H   H595      1.0  0.54245  0.01787  0.12893  1.0000
  C   C594      1.0  0.54030  0.00042  0.13310  1.0000
  H   H596      1.0  0.62657  0.99873  0.05080  1.0000
  H   H597      1.0  0.33161  0.13060  0.22930  1.0000
  S   S206      1.0  0.46677  0.27906  0.24093  1.0000
  S   S207      1.0  0.50297  0.00671  0.26555  1.0000
  Fe  Fe102     1.0  0.52740  0.48530  0.25677  1.0000
  S   S208      1.0  0.54033  0.45728  0.26224  1.0000
  Fe  Fe103     1.0  0.57089  0.08361  0.24175  1.0000
  S   S209      1.0  0.38173  0.48202  0.37838  1.0000
  H   H598      1.0  0.40478  0.45242  0.38998  1.0000
  H   H599      1.0  0.49352  0.46580  0.28756  1.0000
  C   C595      1.0  0.34903  0.17846  0.29033  1.0000
  Fe  Fe104     1.0  0.52073  0.04347  0.25348  1.0000
  S   S210      1.0  0.54822  0.08309  0.26082  1.0000
  H   H600      1.0  0.58900  0.49117  0.27902  1.0000
  H   H601      1.0  0.45490  0.48449  0.27187  1.0000
  H   H602      1.0  0.34979  0.37069  0.37821  1.0000
  H   H603      1.0  0.51694  0.37130  0.24248  1.0000
  H   H604      1.0  0.47702  0.18040  0.25126  1.0000
  H   H605      1.0  0.51141  0.17039  0.25710  1.0000
  H   H606      1.0  0.42188  0.23172  0.29977  1.0000
  Fe  Fe105     1.0  0.39263  0.20169  0.26100  1.0000
  S   S211      1.0  0.43319  0.21239  0.25806  1.0000
  S   S212      1.0  0.37742  0.20142  0.28329  1.0000
  N   N51       1.0  0.43612  0.26225  0.28563  1.0000
  H   H607      1.0  0.33645  0.36389  0.36002  1.0000
  S   S213      1.0  0.46300  0.48979  0.33058  1.0000
  C   C596      1.0  0.58151  0.03908  0.26324  1.0000
  H   H608      1.0  0.43824  0.34305  0.24713  1.0000
  H   H609      1.0  0.56713  0.00096  0.24512  1.0000
  H   H610      1.0  0.42816  0.42656  0.36097  1.0000
  H   H611      1.0  0.58826  0.04398  0.25249  1.0000
  H   H612      1.0  0.43151  0.29926  0.24475  1.0000
  C   C597      1.0  0.41362  0.26532  0.28568  1.0000
  H   H613      1.0  0.62977  0.14736  0.24668  1.0000
  S   S214      1.0  0.61248  0.09294  0.24227  1.0000
  C   C598      1.0  0.49254  0.13287  0.24762  1.0000
  C   C599      1.0  0.45531  0.27699  0.27718  1.0000
  C   C600      1.0  0.48132  0.47688  0.30686  1.0000
  H   H614      1.0  0.44983  0.99961  0.36563  1.0000
  H   H615      1.0  0.40194  0.25614  0.27578  1.0000
  Fe  Fe106     1.0  0.52644  0.09466  0.24524  1.0000
  H   H616      1.0  0.65067  0.00306  0.39436  1.0000
  H   H617      1.0  0.60302  0.07715  0.27170  1.0000
  C   C601      1.0  0.40950  0.42458  0.36002  1.0000
  N   N52       1.0  0.56459  0.01496  0.26603  1.0000
  H   H618      1.0  0.32929  0.38248  0.37275  1.0000
  H   H619      1.0  0.39199  0.38870  0.36966  1.0000
  C   C602      1.0  0.50278  0.00874  0.30960  1.0000
  H   H620      1.0  0.47011  0.45780  0.31006  1.0000
  S   S215      1.0  0.39360  0.23070  0.24604  1.0000
  H   H621      1.0  0.49148  0.28522  0.26946  1.0000
  H   H622      1.0  0.49418  0.25214  0.28353  1.0000
  C   C603      1.0  0.40584  0.44358  0.35410  1.0000
  C   C604      1.0  0.47806  0.25521  0.28432  1.0000
  C   C605      1.0  0.38184  0.44105  0.35309  1.0000
  C   C606      1.0  0.58106  0.05200  0.28790  1.0000
  C   C607      1.0  0.43737  0.24392  0.29337  1.0000
  C   C608      1.0  0.34110  0.18384  0.30344  1.0000
  C   C609      1.0  0.64251  0.12032  0.24234  1.0000
  C   C610      1.0  0.33293  0.02899  0.46831  1.0000
  H   H623      1.0  0.33242  0.44833  0.38727  1.0000
  C   C611      1.0  0.36997  0.45336  0.38770  1.0000
  C   C612      1.0  0.34430  0.44034  0.39042  1.0000
  C   C613      1.0  0.49445  0.15633  0.25166  1.0000
  C   C614      1.0  0.34870  0.40615  0.40109  1.0000
  C   C615      1.0  0.37444  0.41929  0.39852  1.0000
  C   C616      1.0  0.38502  0.44270  0.39190  1.0000
  C   C617      1.0  0.64585  0.14461  0.24493  1.0000
  H   H624      1.0  0.45895  0.22520  0.29874  1.0000
  H   H625      1.0  0.38627  0.41121  0.40159  1.0000
  C   C618      1.0  0.47660  0.27382  0.27647  1.0000
  H   H626      1.0  0.40206  0.25642  0.29504  1.0000
  C   C619      1.0  0.45406  0.33975  0.24564  1.0000
  H   H627      1.0  0.34076  0.15036  0.27354  1.0000
  H   H628      1.0  0.50914  0.02279  0.31830  1.0000
  C   C620      1.0  0.49461  0.48135  0.29409  1.0000
  H   H629      1.0  0.34332  0.41815  0.35769  1.0000
  C   C621      1.0  0.33459  0.15498  0.28342  1.0000
  C   C622      1.0  0.45833  0.24014  0.29285  1.0000
  H   H630      1.0  0.33806  0.30979  0.48629  1.0000
  H   H631      1.0  0.45404  0.29100  0.27069  1.0000
  H   H632      1.0  0.41855  0.28549  0.28612  1.0000
  C   C623      1.0  0.38899  0.40327  0.36491  1.0000
  C   C624      1.0  0.56399  0.02731  0.29070  1.0000
  H   H633      1.0  0.42164  0.46037  0.35048  1.0000
  H   H634      1.0  0.55648  0.02250  0.30131  1.0000
  C   C625      1.0  0.33373  0.41696  0.39706  1.0000
  C   C626      1.0  0.50582  0.01636  0.29524  1.0000
  H   H635      1.0  0.51453  0.03608  0.29298  1.0000
  Fe  Fe107     1.0  0.56815  0.47471  0.24475  1.0000
  C   C627      1.0  0.34241  0.03885  0.48218  1.0000
  C   C628      1.0  0.58999  0.05795  0.27410  1.0000
  Fe  Fe108     1.0  0.51311  0.43200  0.24468  1.0000
  C   C629      1.0  0.36177  0.41954  0.35809  1.0000
  H   H636      1.0  0.65895  0.49520  0.25867  1.0000
  N   N53       1.0  0.36554  0.40109  0.36402  1.0000
  H   H637      1.0  0.58708  0.06657  0.29634  1.0000
  C   C630      1.0  0.47035  0.31014  0.24234  1.0000
  C   C631      1.0  0.47812  0.36041  0.24502  1.0000
  H   H638      1.0  0.35215  0.20188  0.30893  1.0000
  C   C632      1.0  0.55580  0.00895  0.27955  1.0000
  H   H639      1.0  0.37890  0.45610  0.34899  1.0000
  C   C633      1.0  0.49832  0.35572  0.24302  1.0000
  C   C634      1.0  0.34423  0.37838  0.36889  1.0000
  C   C635      1.0  0.48204  0.49679  0.31536  1.0000
  C   C636      1.0  0.49442  0.33078  0.24171  1.0000
  C   C637      1.0  0.47495  0.16208  0.24837  1.0000
  H   H640      1.0  0.42872  0.46802  0.29314  1.0000
  H   H641      1.0  0.34027  0.01815  0.46263  1.0000
  C   C638      1.0  0.33196  0.05140  0.48989  1.0000
  S   S216      1.0  0.60880  0.48397  0.25033  1.0000
  S   S217      1.0  0.37855  0.17085  0.24393  1.0000
  S   S218      1.0  0.51905  0.12794  0.25047  1.0000
  S   S219      1.0  0.33606  0.37545  0.40812  1.0000
  H   H642      1.0  0.35698  0.03578  0.48715  1.0000
  C   C639      1.0  0.45016  0.31483  0.24430  1.0000
  S   S220      1.0  0.48148  0.39141  0.24627  1.0000
  C   C640      1.0  0.43731  0.48786  0.29108  1.0000
  C   C641      1.0  0.49790  0.99844  0.28386  1.0000
  Fe  Fe109     1.0  0.43297  0.23951  0.24179  1.0000
  H   H643      1.0  0.33085  0.11303  0.34824  1.0000
  H   H644      1.0  0.32958  0.08504  0.36777  1.0000
  C   C642      1.0  0.45203  0.49710  0.27917  1.0000
  H   H645      1.0  0.42455  0.49736  0.31042  1.0000
  H   H646      1.0  0.32757  0.17683  0.24153  1.0000
  C   C643      1.0  0.36137  0.24115  0.58534  1.0000
  S   S221      1.0  0.34625  0.06482  0.54627  1.0000
  C   C644      1.0  0.33176  0.18560  0.55540  1.0000
  H   H647      1.0  0.33832  0.05812  0.50092  1.0000
  Fe  Fe110     1.0  0.34587  0.04340  0.56591  1.0000
  S   S222      1.0  0.37784  0.03457  0.57194  1.0000
  C   C645      1.0  0.51537  0.12327  0.58492  1.0000
  Fe  Fe111     1.0  0.34798  0.29093  0.56802  1.0000
  S   S223      1.0  0.38643  0.30745  0.57980  1.0000
  S   S224      1.0  0.34250  0.26549  0.54860  1.0000
  Fe  Fe112     1.0  0.55898  0.48115  0.61744  1.0000
  S   S225      1.0  0.56486  0.46445  0.63771  1.0000
  Fe  Fe113     1.0  0.50624  0.43567  0.61175  1.0000
  S   S226      1.0  0.50929  0.41658  0.63147  1.0000
  S   S227      1.0  0.47071  0.41980  0.59701  1.0000
  Fe  Fe114     1.0  0.52533  0.45475  0.64275  1.0000
  H   H648      1.0  0.43823  0.45324  0.68624  1.0000
  Fe  Fe115     1.0  0.54854  0.42795  0.62509  1.0000
  S   S228      1.0  0.56358  0.39983  0.62438  1.0000
  S   S229      1.0  0.52019  0.47368  0.62341  1.0000
  S   S230      1.0  0.54476  0.44474  0.60442  1.0000
  C   C646      1.0  0.59228  0.43755  0.58444  1.0000
  C   C647      1.0  0.60818  0.02363  0.56024  1.0000
  Fe  Fe116     1.0  0.63789  0.30121  0.66700  1.0000
  S   S231      1.0  0.60421  0.26196  0.66454  1.0000
  S   S232      1.0  0.63441  0.32530  0.68481  1.0000
  Fe  Fe117     1.0  0.51071  0.08482  0.62053  1.0000
  S   S233      1.0  0.52441  0.10487  0.64220  1.0000
  S   S234      1.0  0.47793  0.09050  0.61199  1.0000
  Fe  Fe118     1.0  0.55279  0.06963  0.62057  1.0000
  S   S235      1.0  0.56827  0.08834  0.64235  1.0000
  S   S236      1.0  0.56965  0.04710  0.60935  1.0000
  Fe  Fe119     1.0  0.52816  0.07114  0.64872  1.0000
  S   S237      1.0  0.51437  0.05765  0.67119  1.0000
  Fe  Fe120     1.0  0.56308  0.12038  0.63415  1.0000
  S   S238      1.0  0.59492  0.16075  0.63573  1.0000
  S   S239      1.0  0.51242  0.05021  0.62753  1.0000
  S   S240      1.0  0.54961  0.10251  0.61194  1.0000
  H   H649      1.0  0.47617  0.07027  0.65844  1.0000
  H   H650      1.0  0.56310  0.04933  0.68024  1.0000
  C   C648      1.0  0.50133  0.02735  0.67848  1.0000
  C   C649      1.0  0.49360  0.02458  0.69276  1.0000
  H   H651      1.0  0.49511  0.04069  0.69890  1.0000
  C   C650      1.0  0.60243  0.23385  0.65697  1.0000
  C   C651      1.0  0.58019  0.21116  0.65803  1.0000
  C   C652      1.0  0.57774  0.18846  0.65195  1.0000
  C   C653      1.0  0.59748  0.18827  0.64461  1.0000
  C   C654      1.0  0.61974  0.21094  0.64363  1.0000
  C   C655      1.0  0.62228  0.23358  0.64981  1.0000
  H   H652      1.0  0.56472  0.21114  0.66354  1.0000
  H   H653      1.0  0.56050  0.17120  0.65279  1.0000
  H   H654      1.0  0.63510  0.21103  0.63793  1.0000
  H   H655      1.0  0.63945  0.25086  0.64884  1.0000
  S   S241      1.0  0.34454  0.12567  0.55959  1.0000
  H   H656      1.0  0.58164  0.42020  0.57813  1.0000
  S   S242      1.0  0.45207  0.49501  0.73594  1.0000
  C   C656      1.0  0.53440  0.41152  0.66828  1.0000
  C   C657      1.0  0.40292  0.45905  0.71239  1.0000
  C   C658      1.0  0.58531  0.39743  0.63644  1.0000
  C   C659      1.0  0.59604  0.41386  0.64840  1.0000
  C   C660      1.0  0.61231  0.41048  0.65805  1.0000
  C   C661      1.0  0.61780  0.39053  0.65595  1.0000
  C   C662      1.0  0.60745  0.37441  0.64382  1.0000
  C   C663      1.0  0.59137  0.37793  0.63410  1.0000
  H   H657      1.0  0.59152  0.42890  0.65038  1.0000
  H   H658      1.0  0.62027  0.42307  0.66739  1.0000
  H   H659      1.0  0.61155  0.35902  0.64206  1.0000
  H   H660      1.0  0.58320  0.36512  0.62486  1.0000
  C   C664      1.0  0.64525  0.07198  0.58751  1.0000
  C   C665      1.0  0.63141  0.04756  0.59222  1.0000
  C   C666      1.0  0.60857  0.04041  0.59904  1.0000
  C   C667      1.0  0.59950  0.05766  0.60160  1.0000
  C   C668      1.0  0.61370  0.08224  0.59723  1.0000
  C   C669      1.0  0.63623  0.08923  0.59012  1.0000
  H   H661      1.0  0.59446  0.25818  0.69526  1.0000
  H   H662      1.0  0.59784  0.02135  0.60238  1.0000
  H   H663      1.0  0.60707  0.09577  0.59906  1.0000
  C   C670      1.0  0.44668  0.38824  0.59354  1.0000
  C   C671      1.0  0.42369  0.38393  0.58713  1.0000
  C   C672      1.0  0.40469  0.35938  0.58335  1.0000
  C   C673      1.0  0.40859  0.33871  0.58567  1.0000
  C   C674      1.0  0.43144  0.34299  0.59223  1.0000
  C   C675      1.0  0.45029  0.36750  0.59621  1.0000
  H   H664      1.0  0.42059  0.39976  0.58505  1.0000
  H   H665      1.0  0.38725  0.35650  0.57838  1.0000
  H   H666      1.0  0.43474  0.32723  0.59413  1.0000
  H   H667      1.0  0.46781  0.37040  0.60107  1.0000
  N   N54       1.0  0.52995  0.14395  0.59537  1.0000
  C   C676      1.0  0.40590  0.05084  0.58286  1.0000
  C   C677      1.0  0.41214  0.07339  0.59047  1.0000
  C   C678      1.0  0.43436  0.08530  0.59913  1.0000
  C   C679      1.0  0.45072  0.07493  0.60035  1.0000
  C   C680      1.0  0.44462  0.05248  0.59269  1.0000
  C   C681      1.0  0.42235  0.04054  0.58404  1.0000
  H   H668      1.0  0.39976  0.08158  0.58971  1.0000
  H   H669      1.0  0.43875  0.10261  0.60502  1.0000
  H   H670      1.0  0.45695  0.04424  0.59343  1.0000
  H   H671      1.0  0.41780  0.02316  0.57818  1.0000
  C   C682      1.0  0.55545  0.15454  0.59587  1.0000
  S   S243      1.0  0.33058  0.06318  0.58013  1.0000
  H   H672      1.0  0.54180  0.04538  0.72421  1.0000
  Fe  Fe121     1.0  0.65027  0.35657  0.66925  1.0000
  H   H673      1.0  0.43918  0.39454  0.55575  1.0000
  H   H674      1.0  0.36255  0.17743  0.55339  1.0000
  H   H675      1.0  0.58988  0.26744  0.72094  1.0000
  H   H676      1.0  0.59449  0.02321  0.56769  1.0000
  C   C683      1.0  0.53953  0.35550  0.65472  1.0000
  H   H677      1.0  0.64431  0.33455  0.72063  1.0000
  C   C684      1.0  0.55773  0.39071  0.67744  1.0000
  H   H678      1.0  0.52356  0.12750  0.57416  1.0000
  N   N55       1.0  0.34992  0.21456  0.58869  1.0000
  H   H679      1.0  0.46617  0.02720  0.65829  1.0000
  C   C685      1.0  0.56978  0.17394  0.60592  1.0000
  C   C686      1.0  0.60687  0.26753  0.71756  1.0000
  H   H680      1.0  0.56483  0.14761  0.58869  1.0000
  C   C687      1.0  0.43704  0.03829  0.63056  1.0000
  H   H681      1.0  0.53502  0.41836  0.67955  1.0000
  C   C688      1.0  0.49311  0.48882  0.69721  1.0000
  C   C689      1.0  0.42772  0.46049  0.69222  1.0000
  C   C690      1.0  0.53238  0.37426  0.65607  1.0000
  C   C691      1.0  0.62477  0.04620  0.55438  1.0000
  H   H682      1.0  0.53314  0.34254  0.64543  1.0000
  C   C692      1.0  0.63162  0.26294  0.69898  1.0000
  C   C693      1.0  0.53921  0.01149  0.71438  1.0000
  C   C694      1.0  0.60942  0.26236  0.70318  1.0000
  C   C695      1.0  0.45580  0.02419  0.64819  1.0000
  C   C696      1.0  0.48443  0.00128  0.69932  1.0000
  H   H683      1.0  0.54740  0.42757  0.66201  1.0000
  H   H684      1.0  0.62629  0.44159  0.62244  1.0000
  S   S244      1.0  0.63628  0.38569  0.66926  1.0000
  C   C697      1.0  0.50054  0.47299  0.68975  1.0000
  H   H685      1.0  0.50244  0.45861  0.69545  1.0000
  C   C698      1.0  0.40320  0.48109  0.70797  1.0000
  C   C699      1.0  0.34284  0.16970  0.55529  1.0000
  C   C700      1.0  0.64426  0.02481  0.54213  1.0000
  N   N56       1.0  0.45099  0.04249  0.64304  1.0000
  H   H686      1.0  0.36271  0.16581  0.58865  1.0000
  H   H687      1.0  0.64089  0.47515  0.62410  1.0000
  C   C701      1.0  0.42841  0.01568  0.62256  1.0000
  C   C702      1.0  0.36347  0.20187  0.58776  1.0000
  C   C703      1.0  0.55698  0.03897  0.69000  1.0000
  C   C704      1.0  0.64852  0.27392  0.72290  1.0000
  H   H688      1.0  0.49569  0.11965  0.58375  1.0000
  H   H689      1.0  0.62421  0.06338  0.55736  1.0000
  H   H690      1.0  0.38280  0.21142  0.58478  1.0000
  C   C705      1.0  0.51812  0.15181  0.60498  1.0000
  H   H691      1.0  0.65870  0.02554  0.53522  1.0000
  H   H692      1.0  0.46577  0.08216  0.64388  1.0000
  C   C706      1.0  0.41546  0.44885  0.70452  1.0000
  C   C707      1.0  0.53190  0.17122  0.61515  1.0000
  C   C708      1.0  0.62308  0.45806  0.62113  1.0000
  H   H693      1.0  0.56276  0.34082  0.66371  1.0000
  C   C709      1.0  0.61015  0.00197  0.55698  1.0000
  H   H694      1.0  0.56556  0.40489  0.68611  1.0000
  H   H695      1.0  0.59816  0.41933  0.60247  1.0000
  H   H696      1.0  0.38201  0.25062  0.58696  1.0000
  H   H697      1.0  0.35673  0.24299  0.57399  1.0000
  C   C710      1.0  0.44758  0.00139  0.64045  1.0000
  H   H698      1.0  0.43274  0.05260  0.62664  1.0000
  H   H699      1.0  0.53193  0.00084  0.72391  1.0000
  N   N57       1.0  0.61457  0.45892  0.60640  1.0000
  H   H700      1.0  0.41611  0.43226  0.70811  1.0000
  H   H701      1.0  0.44458  0.06571  0.65791  1.0000
  H   H702      1.0  0.60867  0.45665  0.62870  1.0000
  N   N58       1.0  0.38694  0.35565  0.53594  1.0000
  C   C711      1.0  0.40541  0.37747  0.54219  1.0000
  C   C712      1.0  0.38711  0.33341  0.53786  1.0000
  C   C713      1.0  0.42484  0.37736  0.55049  1.0000
  C   C714      1.0  0.40612  0.33260  0.54619  1.0000
  C   C715      1.0  0.42516  0.35476  0.55245  1.0000
  C   C716      1.0  0.36662  0.35577  0.52721  1.0000
  H   H703      1.0  0.40513  0.39508  0.54093  1.0000
  H   H704      1.0  0.37233  0.31609  0.53306  1.0000
  C   C717      1.0  0.54486  0.03675  0.71464  1.0000
  H   H705      1.0  0.40569  0.31480  0.54813  1.0000
  C   C718      1.0  0.35230  0.17612  0.59005  1.0000
  H   H706      1.0  0.34837  0.34380  0.53203  1.0000
  H   H707      1.0  0.62491  0.27773  0.73869  1.0000
  H   H708      1.0  0.36609  0.34805  0.51617  1.0000
  H   H709      1.0  0.43772  0.49179  0.67875  1.0000
  C   C719      1.0  0.45974  0.06631  0.65125  1.0000
  H   H710      1.0  0.36863  0.37488  0.52634  1.0000
  C   C720      1.0  0.42728  0.48228  0.68799  1.0000
  H   H711      1.0  0.52251  0.17725  0.62285  1.0000
  C   C721      1.0  0.55616  0.35456  0.66495  1.0000
  N   N59       1.0  0.54122  0.39134  0.66743  1.0000
  H   H712      1.0  0.51496  0.10575  0.58858  1.0000
  C   C722      1.0  0.56535  0.37226  0.67639  1.0000
  H   H713      1.0  0.43961  0.35429  0.55930  1.0000
  H   H714      1.0  0.58997  0.18180  0.60664  1.0000
  S   S245      1.0  0.51519  0.45536  0.66624  1.0000
  H   H715      1.0  0.51508  0.40512  0.66391  1.0000
  S   S246      1.0  0.65133  0.33192  0.65098  1.0000
  C   C723      1.0  0.50573  0.47577  0.67504  1.0000
  H   H716      1.0  0.35447  0.25146  0.59240  1.0000
  C   C724      1.0  0.55790  0.18246  0.61550  1.0000
  C   C725      1.0  0.64304  0.04689  0.54534  1.0000
  H   H717      1.0  0.57920  0.37233  0.68400  1.0000
  H   H718      1.0  0.49788  0.14283  0.60495  1.0000
  C   C726      1.0  0.50319  0.49447  0.66783  1.0000
  H   H719      1.0  0.52034  0.37555  0.64772  1.0000
  H   H720      1.0  0.39375  0.45051  0.72216  1.0000
  H   H721      1.0  0.64671  0.10818  0.58657  1.0000
  H   H722      1.0  0.50496  0.00811  0.65967  1.0000
  C   C727      1.0  0.32882  0.14400  0.55796  1.0000
  H   H723      1.0  0.34288  0.20535  0.55355  1.0000
  H   H724      1.0  0.55729  0.06984  0.70216  1.0000
  C   C728      1.0  0.49910  0.00631  0.67066  1.0000
  H   H725      1.0  0.63345  0.25902  0.68776  1.0000
  H   H726      1.0  0.56886  0.19742  0.62339  1.0000
  N   N60       1.0  0.62780  0.00270  0.54784  1.0000
  C   C729      1.0  0.60164  0.43718  0.59824  1.0000
  H   H727      1.0  0.63804  0.03405  0.59036  1.0000
  N   N61       1.0  0.65075  0.26856  0.70881  1.0000
  C   C730      1.0  0.55368  0.05049  0.70232  1.0000
  Fe  Fe122     1.0  0.32865  0.08288  0.56020  1.0000
  C   C731      1.0  0.55111  0.01368  0.69012  1.0000
  C   C732      1.0  0.62646  0.27319  0.72752  1.0000
  N   N62       1.0  0.41524  0.49237  0.69588  1.0000
  H   H728      1.0  0.58886  0.46095  0.56838  1.0000
  H   H729      1.0  0.41767  0.01265  0.61255  1.0000
  C   C733      1.0  0.59627  0.46036  0.57900  1.0000
  H   H730      1.0  0.55315  0.00470  0.68038  1.0000
  H   H731      1.0  0.65666  0.06461  0.54125  1.0000
  C   C734      1.0  0.60947  0.48241  0.58739  1.0000
  N   N63       1.0  0.54210  0.00023  0.70216  1.0000
  C   C735      1.0  0.61833  0.48131  0.60121  1.0000
  H   H732      1.0  0.47890  0.99957  0.71038  1.0000
  H   H733      1.0  0.48930  0.48651  0.70852  1.0000
  H   H734      1.0  0.39413  0.48933  0.71446  1.0000
  C   C736      1.0  0.65401  0.33409  0.73041  1.0000
  H   H735      1.0  0.50707  0.49683  0.65652  1.0000
  C   C737      1.0  0.34913  0.49409  0.73845  1.0000
  S   S247      1.0  0.32755  0.30930  0.55739  1.0000
  S   S248      1.0  0.32811  0.29380  0.51528  1.0000
  S   S249      1.0  0.34772  0.06260  0.93935  1.0000
  H   H736      1.0  0.61524  0.39975  0.86964  1.0000
  Fe  Fe123     1.0  0.35177  0.04436  0.91878  1.0000
  S   S250      1.0  0.38890  0.04367  0.91532  1.0000
  H   H737      1.0  0.62781  0.42395  0.80490  1.0000
  Fe  Fe124     1.0  0.35285  0.29326  0.91850  1.0000
  C   C738      1.0  0.46093  0.13228  0.90173  1.0000
  S   S251      1.0  0.39393  0.31454  0.91212  1.0000
  C   C739      1.0  0.58284  0.02095  0.88267  1.0000
  S   S252      1.0  0.34640  0.26439  0.93506  1.0000
  Fe  Fe125     1.0  0.51341  0.09171  0.86582  1.0000
  S   S253      1.0  0.52249  0.09482  0.84225  1.0000
  S   S254      1.0  0.47691  0.09282  0.87087  1.0000
  Fe  Fe126     1.0  0.56147  0.08847  0.87416  1.0000
  S   S255      1.0  0.57329  0.09147  0.85136  1.0000
  S   S256      1.0  0.58102  0.08042  0.89319  1.0000
  Fe  Fe127     1.0  0.56196  0.12204  0.84983  1.0000
  S   S257      1.0  0.58764  0.15594  0.83689  1.0000
  Fe  Fe128     1.0  0.53313  0.06441  0.84554  1.0000
  S   S258      1.0  0.52158  0.02725  0.83315  1.0000
  S   S259      1.0  0.55253  0.12081  0.87321  1.0000
  S   S260      1.0  0.52160  0.05956  0.86856  1.0000
  Fe  Fe129     1.0  0.52861  0.47135  0.84694  1.0000
  S   S261      1.0  0.52402  0.47606  0.87061  1.0000
  C   C740      1.0  0.35682  0.35910  0.95895  1.0000
  Fe  Fe130     1.0  0.54465  0.43115  0.85249  1.0000
  S   S262      1.0  0.54010  0.43306  0.87636  1.0000
  S   S263      1.0  0.55167  0.39974  0.84327  1.0000
  Fe  Fe131     1.0  0.50416  0.43378  0.87093  1.0000
  S   S264      1.0  0.46452  0.41515  0.87981  1.0000
  Fe  Fe132     1.0  0.56031  0.47520  0.87401  1.0000
  S   S265      1.0  0.50738  0.42932  0.84715  1.0000
  S   S266      1.0  0.56643  0.47306  0.85030  1.0000
  H   H738      1.0  0.38706  0.09267  0.91550  1.0000
  S   S267      1.0  0.62514  0.32575  0.81225  1.0000
  H   H739      1.0  0.56173  0.04346  0.86786  1.0000
  C   C741      1.0  0.65530  0.25115  0.85695  1.0000
  H   H740      1.0  0.60124  0.33889  0.78404  1.0000
  C   C742      1.0  0.64693  0.08074  0.88416  1.0000
  H   H741      1.0  0.46255  0.06561  0.84281  1.0000
  C   C743      1.0  0.62193  0.40554  0.79992  1.0000
  C   C744      1.0  0.58929  0.36328  0.79470  1.0000
  C   C745      1.0  0.45655  0.00866  0.85052  1.0000
  C   C746      1.0  0.38018  0.37090  0.93731  1.0000
  H   H742      1.0  0.52032  0.47589  0.78233  1.0000
  C   C747      1.0  0.64985  0.20854  0.85303  1.0000
  Fe  Fe133     1.0  0.63970  0.30419  0.82526  1.0000
  C   C748      1.0  0.51454  0.48556  0.79008  1.0000
  H   H743      1.0  0.40404  0.27375  0.90122  1.0000
  C   C749      1.0  0.57998  0.39909  0.83995  1.0000
  C   C750      1.0  0.60280  0.42096  0.83934  1.0000
  C   C751      1.0  0.62470  0.41942  0.83638  1.0000
  C   C752      1.0  0.62407  0.39605  0.83410  1.0000
  C   C753      1.0  0.60124  0.37420  0.83468  1.0000
  C   C754      1.0  0.57933  0.37575  0.83754  1.0000
  H   H744      1.0  0.60354  0.43905  0.84105  1.0000
  H   H745      1.0  0.64224  0.43645  0.83582  1.0000
  H   H746      1.0  0.60042  0.35609  0.83287  1.0000
  H   H747      1.0  0.56173  0.35871  0.83790  1.0000
  C   C755      1.0  0.51240  0.01949  0.81467  1.0000
  C   C756      1.0  0.50372  0.02973  0.79080  1.0000
  C   C757      1.0  0.51249  0.03708  0.80519  1.0000
  H   H748      1.0  0.50389  0.04348  0.78355  1.0000
  H   H749      1.0  0.51938  0.05635  0.80893  1.0000
  C   C758      1.0  0.59271  0.18743  0.83688  1.0000
  C   C759      1.0  0.58333  0.19728  0.84740  1.0000
  C   C760      1.0  0.58958  0.22291  0.84760  1.0000
  C   C761      1.0  0.60525  0.23904  0.83734  1.0000
  C   C762      1.0  0.61448  0.22915  0.82675  1.0000
  C   C763      1.0  0.60819  0.20352  0.82652  1.0000
  H   H750      1.0  0.57152  0.18524  0.85547  1.0000
  H   H751      1.0  0.64136  0.24431  0.86508  1.0000
  H   H752      1.0  0.62656  0.24128  0.81879  1.0000
  H   H753      1.0  0.61558  0.19612  0.81834  1.0000
  C   C764      1.0  0.45734  0.00006  0.83659  1.0000
  S   S268      1.0  0.34466  0.12176  0.92975  1.0000
  C   C765      1.0  0.62516  0.08350  0.88283  1.0000
  C   C766      1.0  0.60990  0.07944  0.89456  1.0000
  C   C767      1.0  0.61702  0.07307  0.90768  1.0000
  C   C768      1.0  0.63880  0.07031  0.90902  1.0000
  H   H754      1.0  0.62006  0.08847  0.87267  1.0000
  H   H755      1.0  0.60543  0.06993  0.91685  1.0000
  H   H756      1.0  0.59955  0.01353  0.90140  1.0000
  C   C769      1.0  0.60432  0.02655  0.86096  1.0000
  C   C770      1.0  0.41291  0.34234  0.90280  1.0000
  C   C771      1.0  0.40430  0.35892  0.89839  1.0000
  C   C772      1.0  0.42035  0.38098  0.89139  1.0000
  C   C773      1.0  0.44515  0.38677  0.88857  1.0000
  C   C774      1.0  0.45369  0.37008  0.89291  1.0000
  C   C775      1.0  0.43771  0.34813  0.90002  1.0000
  H   H757      1.0  0.38532  0.35483  0.90040  1.0000
  H   H758      1.0  0.41347  0.39369  0.88811  1.0000
  H   H759      1.0  0.47266  0.37420  0.89090  1.0000
  H   H760      1.0  0.44470  0.33558  0.90341  1.0000
  C   C776      1.0  0.41179  0.05530  0.90186  1.0000
  C   C777      1.0  0.41069  0.06989  0.89073  1.0000
  C   C778      1.0  0.43045  0.08057  0.88114  1.0000
  C   C779      1.0  0.45158  0.07683  0.88249  1.0000
  C   C780      1.0  0.45235  0.06163  0.89335  1.0000
  C   C781      1.0  0.43262  0.05100  0.90296  1.0000
  H   H761      1.0  0.39482  0.07330  0.88964  1.0000
  H   H762      1.0  0.42952  0.09218  0.87276  1.0000
  H   H763      1.0  0.46840  0.05854  0.89460  1.0000
  H   H764      1.0  0.43371  0.03973  0.91150  1.0000
  C   C782      1.0  0.65380  0.07387  0.89720  1.0000
  N   N64       1.0  0.34014  0.22418  0.88476  1.0000
  H   H765      1.0  0.63842  0.02361  0.86219  1.0000
  N   N65       1.0  0.45379  0.44878  0.83248  1.0000
  H   H766      1.0  0.57004  0.34886  0.79535  1.0000
  S   S269      1.0  0.61377  0.27150  0.83878  1.0000
  C   C783      1.0  0.35504  0.47569  0.74317  1.0000
  C   C784      1.0  0.43765  0.12921  0.90579  1.0000
  H   H767      1.0  0.46826  0.42411  0.82642  1.0000
  C   C785      1.0  0.60571  0.44675  0.88255  1.0000
  C   C786      1.0  0.51854  0.48383  0.80489  1.0000
  H   H768      1.0  0.47546  0.46164  0.85198  1.0000
  H   H769      1.0  0.62416  0.32971  0.74411  1.0000
  C   C787      1.0  0.64263  0.33134  0.74375  1.0000
  H   H770      1.0  0.38552  0.38159  0.92765  1.0000
  H   H771      1.0  0.44823  0.45719  0.79173  1.0000
  C   C788      1.0  0.56602  0.03073  0.86108  1.0000
  C   C789      1.0  0.45696  0.44653  0.84795  1.0000
  H   H772      1.0  0.46458  0.42904  0.80033  1.0000
  H   H773      1.0  0.36084  0.17332  0.93801  1.0000
  C   C790      1.0  0.36345  0.37301  0.94657  1.0000
  H   H774      1.0  0.34025  0.25404  0.87304  1.0000
  C   C791      1.0  0.35268  0.21724  0.89451  1.0000
  N   N66       1.0  0.60133  0.42280  0.87932  1.0000
  H   H775      1.0  0.59161  0.45018  0.88755  1.0000
  H   H776      1.0  0.40928  0.33208  0.96222  1.0000
  C   C792      1.0  0.45804  0.03220  0.85272  1.0000
  C   C793      1.0  0.63167  0.37624  0.78811  1.0000
  S   S270      1.0  0.33517  0.06274  0.90473  1.0000
  H   H777      1.0  0.54861  0.01282  0.85887  1.0000
  C   C794      1.0  0.40104  0.11065  0.92079  1.0000
  C   C795      1.0  0.60674  0.35767  0.78839  1.0000
  C   C796      1.0  0.57704  0.40150  0.88214  1.0000
  C   C797      1.0  0.64676  0.46324  0.87297  1.0000
  H   H778      1.0  0.32785  0.09543  0.97234  1.0000
  H   H779      1.0  0.46965  0.14266  0.89231  1.0000
  H   H780      1.0  0.39714  0.12586  0.91718  1.0000
  C   C798      1.0  0.46072  0.04703  0.84093  1.0000
  H   H781      1.0  0.64373  0.06500  0.91911  1.0000
  C   C799      1.0  0.46602  0.05504  0.81526  1.0000
  C   C800      1.0  0.36675  0.34294  0.96176  1.0000
  H   H782      1.0  0.37790  0.30603  0.96079  1.0000
  N   N67       1.0  0.42616  0.11516  0.91727  1.0000
  H   H783      1.0  0.43619  0.48049  0.80947  1.0000
  S   S271      1.0  0.65213  0.39527  0.83021  1.0000
  H   H784      1.0  0.56788  0.02131  0.88865  1.0000
  H   H785      1.0  0.52722  0.47282  0.80848  1.0000
  C   C801      1.0  0.43708  0.10355  0.92479  1.0000
  H   H786      1.0  0.40257  0.35287  0.93318  1.0000
  C   C802      1.0  0.46038  0.10630  0.92106  1.0000
  C   C803      1.0  0.44260  0.46757  0.81313  1.0000
  C   C804      1.0  0.47231  0.12071  0.90942  1.0000
  H   H787      1.0  0.57896  0.38470  0.88480  1.0000
  H   H788      1.0  0.35557  0.38531  0.94414  1.0000
  H   H789      1.0  0.64517  0.19617  0.84316  1.0000
  H   H790      1.0  0.46855  0.09634  0.92673  1.0000
  H   H791      1.0  0.63163  0.48625  0.88194  1.0000
  H   H792      1.0  0.48984  0.12206  0.90598  1.0000
  H   H793      1.0  0.45767  0.03920  0.86351  1.0000
  H   H794      1.0  0.63199  0.20250  0.85857  1.0000
  Fe  Fe134     1.0  0.32927  0.07945  0.92525  1.0000
  H   H795      1.0  0.39851  0.10944  0.93258  1.0000
  H   H796      1.0  0.58235  0.23035  0.85585  1.0000
  C   C805      1.0  0.45848  0.43862  0.80798  1.0000
  H   H797      1.0  0.42725  0.09116  0.93333  1.0000
  H   H798      1.0  0.58357  0.39181  0.80573  1.0000
  H   H799      1.0  0.60604  0.03071  0.84965  1.0000
  H   H800      1.0  0.56818  0.40587  0.89132  1.0000
  C   C806      1.0  0.64214  0.43877  0.86966  1.0000
  C   C807      1.0  0.59685  0.38740  0.80044  1.0000
  H   H801      1.0  0.45462  0.06490  0.81608  1.0000
  N   N68       1.0  0.46159  0.03850  0.82731  1.0000
  C   C808      1.0  0.38968  0.35448  0.94046  1.0000
  H   H802      1.0  0.48609  0.06919  0.81536  1.0000
  H   H803      1.0  0.64525  0.37159  0.78351  1.0000
  H   H804      1.0  0.63528  0.01510  0.88820  1.0000
  C   C809      1.0  0.38637  0.25965  0.89637  1.0000
  C   C810      1.0  0.39199  0.32268  0.95529  1.0000
  H   H805      1.0  0.39610  0.31547  0.94514  1.0000
  C   C811      1.0  0.45977  0.01527  0.82504  1.0000
  H   H806      1.0  0.56438  0.39679  0.87246  1.0000
  H   H807      1.0  0.42850  0.13750  0.89944  1.0000
  C   C812      1.0  0.34397  0.16697  0.93136  1.0000
  C   C813      1.0  0.62070  0.01734  0.88252  1.0000
  C   C814      1.0  0.37586  0.23487  0.90054  1.0000
  N   N69       1.0  0.58496  0.02611  0.86840  1.0000
  H   H808      1.0  0.57243  0.03988  0.85068  1.0000
  H   H809      1.0  0.38147  0.28590  0.88327  1.0000
  N   N70       1.0  0.38237  0.34026  0.95235  1.0000
  H   H810      1.0  0.36152  0.33221  0.97141  1.0000
  S   S272      1.0  0.63879  0.32523  0.77286  1.0000
  N   N71       1.0  0.63894  0.39983  0.79377  1.0000
  C   C815      1.0  0.49499  0.00481  0.78565  1.0000
  C   C816      1.0  0.37369  0.26648  0.88623  1.0000
  C   C817      1.0  0.44930  0.45443  0.80316  1.0000
  H   H811      1.0  0.34450  0.19811  0.89796  1.0000
  C   C818      1.0  0.46065  0.43604  0.82277  1.0000
  H   H812      1.0  0.46114  0.04442  0.80473  1.0000
  H   H813      1.0  0.33416  0.02021  0.97727  1.0000
  H   H814      1.0  0.45587  0.42815  0.85036  1.0000
  C   C819      1.0  0.44527  0.46474  0.82785  1.0000
  C   C820      1.0  0.62844  0.46730  0.87943  1.0000
  H   H815      1.0  0.34382  0.36051  0.96625  1.0000
  Fe  Fe135     1.0  0.65378  0.32947  0.79611  1.0000
  C   C821      1.0  0.62256  0.02233  0.86793  1.0000
  H   H816      1.0  0.44220  0.44795  0.85408  1.0000
  C   C822      1.0  0.60066  0.01649  0.88995  1.0000
  H   H817      1.0  0.38530  0.22943  0.90862  1.0000
  Fe  Fe136     1.0  0.65561  0.36057  0.82306  1.0000
  S   S273      1.0  0.38645  0.48058  0.74480  1.0000
  C   C823      1.0  0.35043  0.24839  0.88051  1.0000
  C   C824      1.0  0.61906  0.41866  0.87278  1.0000
  H   H818      1.0  0.44088  0.47567  0.83555  1.0000
  H   H819      1.0  0.65601  0.43534  0.86434  1.0000
  H   H820      1.0  0.34426  0.20291  0.93280  1.0000
  S   S274      1.0  0.51564  0.49484  0.83378  1.0000
  C   C825      1.0  0.65482  0.33041  0.75656  1.0000
  C   C826      1.0  0.33530  0.45220  0.74655  1.0000
  H   H821      1.0  0.33954  0.43779  0.75024  1.0000
  S   S275      1.0  0.32970  0.30772  0.92998  1.0000
  H   H822      1.0  0.46097  0.00864  0.81429  1.0000
  C   C827      1.0  0.33459  0.18381  0.92845  1.0000
  H   H823      1.0  0.65836  0.08359  0.87495  1.0000
  C   C828      1.0  0.33177  0.14205  0.92575  1.0000
  C   C829      1.0  0.51155  0.49659  0.81499  1.0000
  Fe  Fe137     1.0  0.63912  0.95160  0.06510  1.0000
  C   C830      1.0  0.34284  0.66847  0.23205  1.0000
  S   S276      1.0  0.60687  0.95941  0.07129  1.0000
  N   N72       1.0  0.50366  0.53946  0.08671  1.0000
  C   C831      1.0  0.61639  0.96610  0.01894  1.0000
  H   H824      1.0  0.42228  0.89972  0.16900  1.0000
  S   S277      1.0  0.63647  0.92899  0.04497  1.0000
  C   C832      1.0  0.42156  0.84483  0.17661  1.0000
  H   H825      1.0  0.60406  0.95523  0.04046  1.0000
  Fe  Fe138     1.0  0.63367  0.70190  0.06455  1.0000
  Fe  Fe139     1.0  0.34195  0.64533  0.17122  1.0000
  S   S278      1.0  0.59177  0.67881  0.06872  1.0000
  N   N73       1.0  0.53344  0.95511  0.14359  1.0000
  C   C833      1.0  0.65504  0.83155  0.04975  1.0000
  S   S279      1.0  0.64397  0.73431  0.04980  1.0000
  H   H826      1.0  0.35132  0.82246  0.15240  1.0000
  Fe  Fe140     1.0  0.45971  0.92309  0.14447  1.0000
  S   S280      1.0  0.47492  0.94194  0.12378  1.0000
  S   S281      1.0  0.47381  0.93700  0.16763  1.0000
  Fe  Fe141     1.0  0.42428  0.87248  0.12887  1.0000
  S   S282      1.0  0.43693  0.88779  0.10695  1.0000
  S   S283      1.0  0.39147  0.83356  0.13219  1.0000
  Fe  Fe142     1.0  0.47622  0.90663  0.11686  1.0000
  S   S284      1.0  0.50995  0.90258  0.10911  1.0000
  Fe  Fe143     1.0  0.43446  0.92186  0.11531  1.0000
  S   S285      1.0  0.41875  0.94397  0.10284  1.0000
  S   S286      1.0  0.46327  0.88881  0.13819  1.0000
  S   S287      1.0  0.41954  0.90554  0.13660  1.0000
  Fe  Fe144     1.0  0.48904  0.56924  0.11901  1.0000
  S   S288      1.0  0.47764  0.58118  0.13936  1.0000
  S   S289      1.0  0.52947  0.59041  0.11143  1.0000
  Fe  Fe145     1.0  0.43794  0.52054  0.11552  1.0000
  S   S290      1.0  0.42317  0.52972  0.13562  1.0000
  Fe  Fe146     1.0  0.44050  0.56924  0.12798  1.0000
  S   S291      1.0  0.42516  0.59726  0.12799  1.0000
  Fe  Fe147     1.0  0.46139  0.54103  0.14580  1.0000
  S   S292      1.0  0.46471  0.53445  0.16973  1.0000
  S   S293      1.0  0.45287  0.55956  0.10705  1.0000
  S   S294      1.0  0.47519  0.52957  0.12626  1.0000
  C   C834      1.0  0.49916  0.56859  0.07143  1.0000
  S   S295      1.0  0.35321  0.61414  0.17068  1.0000
  Fe  Fe148     1.0  0.35358  0.70018  0.16776  1.0000
  S   S296      1.0  0.38665  0.73822  0.16301  1.0000
  S   S297      1.0  0.35999  0.67971  0.18609  1.0000
  H   H827      1.0  0.37828  0.87015  0.16210  1.0000
  H   H828      1.0  0.34152  0.94586  0.03178  1.0000
  C   C835      1.0  0.48085  0.51812  0.19315  1.0000
  C   C836      1.0  0.64080  0.52442  0.23412  1.0000
  H   H829      1.0  0.50747  0.58652  0.06634  1.0000
  C   C837      1.0  0.46308  0.52999  0.07701  1.0000
  C   C838      1.0  0.53049  0.97184  0.15243  1.0000
  C   C839      1.0  0.65978  0.85349  0.05776  1.0000
  H   H830      1.0  0.35164  0.95946  0.08313  1.0000
  C   C840      1.0  0.40398  0.60076  0.13949  1.0000
  C   C841      1.0  0.40033  0.62194  0.13827  1.0000
  C   C842      1.0  0.38482  0.62633  0.14768  1.0000
  C   C843      1.0  0.37263  0.60943  0.15836  1.0000
  C   C844      1.0  0.37576  0.58792  0.15935  1.0000
  C   C845      1.0  0.39141  0.58362  0.15000  1.0000
  H   H831      1.0  0.40993  0.63529  0.13015  1.0000
  H   H832      1.0  0.38249  0.64289  0.14674  1.0000
  H   H833      1.0  0.36624  0.57461  0.16750  1.0000
  H   H834      1.0  0.39384  0.56713  0.15097  1.0000
  C   C846      1.0  0.48279  0.96696  0.17599  1.0000
  H   H835      1.0  0.51428  0.92402  0.15687  1.0000
  H   H836      1.0  0.38931  0.97973  0.05270  1.0000
  H   H837      1.0  0.47532  0.98329  0.15748  1.0000
  C   C847      1.0  0.39101  0.80662  0.13973  1.0000
  C   C848      1.0  0.36792  0.78484  0.14077  1.0000
  C   C849      1.0  0.36622  0.76370  0.14776  1.0000
  C   C850      1.0  0.38769  0.76398  0.15368  1.0000
  C   C851      1.0  0.41085  0.78561  0.15242  1.0000
  C   C852      1.0  0.41254  0.80680  0.14548  1.0000
  H   H838      1.0  0.35117  0.78438  0.13625  1.0000
  H   H839      1.0  0.34831  0.74718  0.14856  1.0000
  H   H840      1.0  0.42760  0.78598  0.15689  1.0000
  H   H841      1.0  0.43044  0.82334  0.14473  1.0000
  H   H842      1.0  0.45047  0.88348  0.17772  1.0000
  C   C853      1.0  0.34505  0.90192  0.09018  1.0000
  C   C854      1.0  0.36907  0.90898  0.09623  1.0000
  C   C855      1.0  0.38708  0.93427  0.09735  1.0000
  C   C856      1.0  0.38038  0.95239  0.09279  1.0000
  C   C857      1.0  0.35628  0.94533  0.08683  1.0000
  H   H843      1.0  0.37388  0.89479  0.09963  1.0000
  H   H844      1.0  0.39412  0.97200  0.09361  1.0000
  H   H845      1.0  0.40777  0.92411  0.06808  1.0000
  C   C858      1.0  0.57498  0.65476  0.08104  1.0000
  C   C859      1.0  0.58654  0.64423  0.08958  1.0000
  C   C860      1.0  0.57235  0.62489  0.09892  1.0000
  C   C861      1.0  0.54646  0.61593  0.10002  1.0000
  C   C862      1.0  0.53490  0.62656  0.09154  1.0000
  C   C863      1.0  0.54905  0.64573  0.08209  1.0000
  H   H846      1.0  0.60638  0.65080  0.08892  1.0000
  H   H847      1.0  0.58156  0.61681  0.10535  1.0000
  H   H848      1.0  0.51504  0.61991  0.09220  1.0000
  H   H849      1.0  0.53981  0.65365  0.07556  1.0000
  C   C864      1.0  0.57986  0.94305  0.08171  1.0000
  C   C865      1.0  0.57476  0.92089  0.08853  1.0000
  C   C866      1.0  0.55320  0.90874  0.09669  1.0000
  C   C867      1.0  0.53633  0.91843  0.09815  1.0000
  C   C868      1.0  0.54140  0.94060  0.09134  1.0000
  C   C869      1.0  0.56301  0.95280  0.08321  1.0000
  H   H850      1.0  0.58744  0.91310  0.08754  1.0000
  H   H851      1.0  0.54957  0.89166  0.10192  1.0000
  H   H852      1.0  0.52864  0.94829  0.09228  1.0000
  H   H853      1.0  0.56666  0.96987  0.07798  1.0000
  C   C870      1.0  0.39020  0.86295  0.16647  1.0000
  C   C871      1.0  0.51952  0.53237  0.09545  1.0000
  H   H854      1.0  0.44308  0.51756  0.07621  1.0000
  C   C872      1.0  0.51411  0.56141  0.07961  1.0000
  C   C873      1.0  0.37102  0.91034  0.05816  1.0000
  C   C874      1.0  0.38413  0.96017  0.05406  1.0000
  C   C875      1.0  0.39638  0.82860  0.17309  1.0000
  N   N74       1.0  0.60802  0.75801  0.07836  1.0000
  C   C876      1.0  0.61430  0.78269  0.08085  1.0000
  C   C877      1.0  0.59567  0.74565  0.06581  1.0000
  C   C878      1.0  0.60816  0.79566  0.07066  1.0000
  C   C879      1.0  0.58957  0.75816  0.05529  1.0000
  C   C880      1.0  0.59587  0.78333  0.05776  1.0000
  H   H855      1.0  0.52490  0.52020  0.08895  1.0000
  H   H856      1.0  0.62457  0.79263  0.09065  1.0000
  C   C881      1.0  0.39485  0.92899  0.06253  1.0000
  C   C882      1.0  0.49958  0.99508  0.19743  1.0000
  C   C883      1.0  0.41513  0.87974  0.17021  1.0000
  C   C884      1.0  0.35405  0.91711  0.05189  1.0000
  N   N75       1.0  0.62984  0.98550  0.01026  1.0000
  H   H857      1.0  0.53404  0.57396  0.08069  1.0000
  C   C885      1.0  0.49341  0.50954  0.17015  1.0000
  H   H858      1.0  0.41981  0.96866  0.06416  1.0000
  H   H859      1.0  0.54696  0.93330  0.15439  1.0000
  H   H860      1.0  0.49322  0.50563  0.21181  1.0000
  H   H861      1.0  0.50960  0.52229  0.10504  1.0000
  C   C886      1.0  0.48081  0.51970  0.17807  1.0000
  C   C887      1.0  0.40155  0.95406  0.06040  1.0000
  C   C888      1.0  0.52950  0.93109  0.14907  1.0000
  S   S298      1.0  0.64932  0.87396  0.05052  1.0000
  H   H862      1.0  0.60694  0.94695  0.01458  1.0000
  C   C889      1.0  0.49335  0.50663  0.20023  1.0000
  H   H863      1.0  0.53666  0.54923  0.09966  1.0000
  H   H864      1.0  0.58013  0.74839  0.04527  1.0000
  C   C890      1.0  0.61480  0.97063  0.03358  1.0000
  N   N76       1.0  0.36059  0.94178  0.05012  1.0000
  C   C891      1.0  0.61415  0.74483  0.08944  1.0000
  N   N77       1.0  0.44256  0.60283  0.17223  1.0000
  C   C892      1.0  0.45384  0.62074  0.16233  1.0000
  C   C893      1.0  0.42686  0.60495  0.18183  1.0000
  C   C894      1.0  0.44982  0.64165  0.16201  1.0000
  C   C895      1.0  0.42239  0.62561  0.18179  1.0000
  C   C896      1.0  0.43397  0.64404  0.17180  1.0000
  C   C897      1.0  0.44622  0.58057  0.17187  1.0000
  H   H865      1.0  0.46534  0.61850  0.15428  1.0000
  H   H866      1.0  0.41720  0.59034  0.18933  1.0000
  H   H867      1.0  0.45812  0.65531  0.15380  1.0000
  H   H868      1.0  0.40924  0.62684  0.18904  1.0000
  H   H869      1.0  0.42992  0.65966  0.17132  1.0000
  H   H870      1.0  0.46628  0.58590  0.17081  1.0000
  H   H871      1.0  0.44019  0.56985  0.18182  1.0000
  H   H872      1.0  0.43544  0.56785  0.16258  1.0000
  C   C898      1.0  0.50585  0.49800  0.17722  1.0000
  C   C899      1.0  0.35487  0.82073  0.16399  1.0000
  H   H873      1.0  0.49230  0.95656  0.19626  1.0000
  C   C900      1.0  0.34235  0.94837  0.04368  1.0000
  H   H874      1.0  0.34691  0.96808  0.04646  1.0000
  H   H875      1.0  0.34992  0.80080  0.16556  1.0000
  H   H876      1.0  0.34652  0.60009  0.12256  1.0000
  C   C901      1.0  0.33059  0.60033  0.12746  1.0000
  H   H877      1.0  0.59063  0.72604  0.06383  1.0000
  C   C902      1.0  0.63030  0.98027  0.99484  1.0000
  S   S299      1.0  0.33815  0.66617  0.15252  1.0000
  H   H878      1.0  0.34942  0.66385  0.22230  1.0000
  N   N78       1.0  0.38111  0.83776  0.16800  1.0000
  H   H879      1.0  0.62420  0.52366  0.22915  1.0000
  C   C903      1.0  0.49163  0.97145  0.19042  1.0000
  C   C904      1.0  0.43094  0.87058  0.17517  1.0000
  H   H880      1.0  0.34248  0.82540  0.17053  1.0000
  H   H881      1.0  0.54434  0.94831  0.12305  1.0000
  H   H882      1.0  0.36534  0.89087  0.06022  1.0000
  S   S300      1.0  0.65922  0.93481  0.07782  1.0000
  H   H883      1.0  0.52366  0.91650  0.14021  1.0000
  C   C905      1.0  0.47857  0.52358  0.08527  1.0000
  C   C906      1.0  0.33856  0.91996  0.08526  1.0000
  H   H884      1.0  0.59156  0.79342  0.04965  1.0000
  H   H885      1.0  0.63429  0.75555  0.09268  1.0000
  H   H886      1.0  0.61361  0.81539  0.07255  1.0000
  H   H887      1.0  0.38938  0.80856  0.17398  1.0000
  C   C907      1.0  0.53358  0.99460  0.14729  1.0000
  C   C908      1.0  0.47345  0.55278  0.07019  1.0000
  H   H888      1.0  0.52540  0.96750  0.16348  1.0000
  H   H889      1.0  0.61036  0.72579  0.08556  1.0000
  C   C909      1.0  0.54103  0.96112  0.12986  1.0000
  H   H890      1.0  0.43375  0.83739  0.18018  1.0000
  H   H891      1.0  0.33520  0.90258  0.04908  1.0000
  H   H892      1.0  0.60275  0.74264  0.09898  1.0000
  Fe  Fe149     1.0  0.65916  0.91448  0.05710  1.0000
  H   H893      1.0  0.32970  0.62766  0.11339  1.0000
  C   C910      1.0  0.54431  0.98371  0.12435  1.0000
  C   C911      1.0  0.48209  0.98644  0.16858  1.0000
  H   H894      1.0  0.63422  0.96423  0.99313  1.0000
  H   H895      1.0  0.49357  0.51056  0.15857  1.0000
  H   H896      1.0  0.46152  0.55824  0.06408  1.0000
  C   C912      1.0  0.62738  0.99511  0.03938  1.0000
  H   H897      1.0  0.47116  0.52588  0.19940  1.0000
  H   H898      1.0  0.54972  0.98800  0.11332  1.0000
  H   H899      1.0  0.65755  0.79701  0.04912  1.0000
  H   H900      1.0  0.64589  0.82795  0.03921  1.0000
  H   H901      1.0  0.47029  0.50601  0.09074  1.0000
  H   H902      1.0  0.33154  0.88224  0.08903  1.0000
  S   S301      1.0  0.55642  0.50389  0.24012  1.0000
  H   H903      1.0  0.32730  0.57384  0.14325  1.0000
  Fe  Fe150     1.0  0.64698  0.95039  0.41820  1.0000
  S   S302      1.0  0.61603  0.95566  0.40647  1.0000
  Fe  Fe151     1.0  0.33842  0.64041  0.32529  1.0000
  S   S303      1.0  0.65004  0.93868  0.44086  1.0000
  Fe  Fe152     1.0  0.64177  0.69322  0.41285  1.0000
  S   S304      1.0  0.61665  0.66307  0.39573  1.0000
  S   S305      1.0  0.63183  0.71320  0.43008  1.0000
  Fe  Fe153     1.0  0.43341  0.88082  0.34382  1.0000
  S   S306      1.0  0.43745  0.88147  0.36793  1.0000
  S   S307      1.0  0.40862  0.84681  0.32894  1.0000
  Fe  Fe154     1.0  0.46888  0.93733  0.34233  1.0000
  S   S308      1.0  0.47537  0.94134  0.36647  1.0000
  S   S309      1.0  0.48831  0.97485  0.33112  1.0000
  Fe  Fe155     1.0  0.47878  0.90604  0.36485  1.0000
  S   S310      1.0  0.50542  0.89570  0.37748  1.0000
  Fe  Fe156     1.0  0.43375  0.91687  0.36777  1.0000
  S   S311      1.0  0.41618  0.93080  0.38507  1.0000
  S   S312      1.0  0.47487  0.90332  0.34060  1.0000
  S   S313      1.0  0.42713  0.91491  0.34380  1.0000
  H   H904      1.0  0.60619  0.57359  0.25255  1.0000
  H   H905      1.0  0.64500  0.85778  0.41700  1.0000
  Fe  Fe157     1.0  0.47348  0.55322  0.37236  1.0000
  S   S314      1.0  0.47681  0.55860  0.34851  1.0000
  S   S315      1.0  0.50132  0.57872  0.39029  1.0000
  Fe  Fe158     1.0  0.43796  0.55461  0.34890  1.0000
  S   S316      1.0  0.43174  0.58201  0.33512  1.0000
  Fe  Fe159     1.0  0.45752  0.51642  0.34616  1.0000
  H   H906      1.0  0.47477  0.94553  0.30364  1.0000
  S   S317      1.0  0.43555  0.55157  0.37282  1.0000
  C   C913      1.0  0.65260  0.76071  0.47027  1.0000
  C   C914      1.0  0.48340  0.96526  0.30141  1.0000
  C   C915      1.0  0.34460  0.67298  0.25834  1.0000
  Fe  Fe160     1.0  0.34423  0.69392  0.32556  1.0000
  S   S318      1.0  0.36598  0.72994  0.33950  1.0000
  S   S319      1.0  0.36690  0.67661  0.31652  1.0000
  H   H907      1.0  0.44609  0.56400  0.30416  1.0000
  H   H908      1.0  0.51518  0.63495  0.37884  1.0000
  H   H909      1.0  0.49934  0.93470  0.39495  1.0000
  C   C916      1.0  0.58904  0.50873  0.28289  1.0000
  S   S320      1.0  0.52428  0.51257  0.27311  1.0000
  N   N79       1.0  0.47028  0.90581  0.40590  1.0000
  C   C917      1.0  0.65475  0.84842  0.42155  1.0000
  H   H910      1.0  0.44148  0.60121  0.40458  1.0000
  C   C918      1.0  0.65302  0.79883  0.46298  1.0000
  C   C919      1.0  0.40658  0.58924  0.33580  1.0000
  C   C920      1.0  0.40711  0.60834  0.32728  1.0000
  C   C921      1.0  0.38793  0.61520  0.32776  1.0000
  C   C922      1.0  0.36797  0.60303  0.33680  1.0000
  C   C923      1.0  0.36745  0.58391  0.34532  1.0000
  C   C924      1.0  0.38659  0.57699  0.34481  1.0000
  H   H911      1.0  0.42247  0.61797  0.32027  1.0000
  H   H912      1.0  0.38862  0.62993  0.32114  1.0000
  H   H913      1.0  0.35209  0.57432  0.35233  1.0000
  H   H914      1.0  0.38587  0.56225  0.35143  1.0000
  C   C925      1.0  0.49165  0.98318  0.31278  1.0000
  C   C926      1.0  0.63845  0.50701  0.24439  1.0000
  C   C927      1.0  0.46140  0.53902  0.28702  1.0000
  H   H915      1.0  0.60639  0.74784  0.43177  1.0000
  C   C928      1.0  0.39513  0.81439  0.33266  1.0000
  C   C929      1.0  0.37905  0.79644  0.32220  1.0000
  C   C930      1.0  0.36945  0.77050  0.32420  1.0000
  C   C931      1.0  0.37570  0.76221  0.33678  1.0000
  C   C932      1.0  0.39127  0.78015  0.34738  1.0000
  C   C933      1.0  0.40100  0.80607  0.34534  1.0000
  H   H916      1.0  0.37428  0.80267  0.31239  1.0000
  H   H917      1.0  0.35737  0.75698  0.31599  1.0000
  H   H918      1.0  0.39618  0.77395  0.35716  1.0000
  H   H919      1.0  0.41330  0.81959  0.35348  1.0000
  H   H920      1.0  0.47146  0.55905  0.28556  1.0000
  S   S321      1.0  0.41903  0.51290  0.34482  1.0000
  C   C934      1.0  0.36465  0.90994  0.37934  1.0000
  C   C935      1.0  0.38539  0.92629  0.38801  1.0000
  C   C936      1.0  0.38188  0.94009  0.39931  1.0000
  C   C937      1.0  0.35805  0.93771  0.40192  1.0000
  H   H921      1.0  0.36691  0.89909  0.37064  1.0000
  H   H922      1.0  0.39772  0.95282  0.40612  1.0000
  H   H923      1.0  0.35574  0.94847  0.41066  1.0000
  C   C938      1.0  0.58430  0.64024  0.39440  1.0000
  C   C939      1.0  0.56849  0.63510  0.40596  1.0000
  C   C940      1.0  0.54328  0.61624  0.40446  1.0000
  C   C941      1.0  0.53338  0.60232  0.39140  1.0000
  C   C942      1.0  0.54906  0.60776  0.37976  1.0000
  C   C943      1.0  0.57432  0.62647  0.38129  1.0000
  H   H924      1.0  0.57577  0.64535  0.41613  1.0000
  H   H925      1.0  0.53144  0.61223  0.41358  1.0000
  H   H926      1.0  0.54187  0.59727  0.36965  1.0000
  H   H927      1.0  0.58630  0.63016  0.37226  1.0000
  C   C944      1.0  0.58532  0.93838  0.39838  1.0000
  C   C945      1.0  0.57147  0.91223  0.39862  1.0000
  C   C946      1.0  0.54721  0.89960  0.39210  1.0000
  C   C947      1.0  0.53645  0.91280  0.38515  1.0000
  C   C948      1.0  0.55029  0.93893  0.38489  1.0000
  C   C949      1.0  0.57450  0.95158  0.39148  1.0000
  H   H928      1.0  0.57940  0.90175  0.40388  1.0000
  H   H929      1.0  0.53674  0.87939  0.39241  1.0000
  H   H930      1.0  0.54240  0.94943  0.37961  1.0000
  H   H931      1.0  0.58494  0.97179  0.39121  1.0000
  C   C950      1.0  0.42994  0.77194  0.32464  1.0000
  S   S322      1.0  0.65110  0.77962  0.41670  1.0000
  C   C951      1.0  0.48659  0.97288  0.28706  1.0000
  H   H932      1.0  0.36999  0.72631  0.29664  1.0000
  C   C952      1.0  0.43502  0.50458  0.30082  1.0000
  H   H933      1.0  0.56948  0.50557  0.28198  1.0000
  H   H934      1.0  0.41314  0.96183  0.31143  1.0000
  N   N80       1.0  0.42288  0.96919  0.33390  1.0000
  C   C953      1.0  0.46422  0.52283  0.27711  1.0000
  H   H935      1.0  0.40679  0.97270  0.37355  1.0000
  S   S323      1.0  0.35772  0.67049  0.27503  1.0000
  H   H936      1.0  0.65075  0.58331  0.25109  1.0000
  C   C954      1.0  0.49514  0.92772  0.40600  1.0000
  H   H937      1.0  0.44763  0.81221  0.32756  1.0000
  S   S324      1.0  0.65390  0.70237  0.46773  1.0000
  Fe  Fe161     1.0  0.41911  0.50962  0.36891  1.0000
  H   H938      1.0  0.43240  0.81823  0.30383  1.0000
  H   H939      1.0  0.38522  0.94026  0.33076  1.0000
  H   H940      1.0  0.40442  0.84836  0.40357  1.0000
  H   H941      1.0  0.55211  0.97745  0.25810  1.0000
  C   C955      1.0  0.42564  0.88865  0.40520  1.0000
  H   H942      1.0  0.58580  0.75058  0.44457  1.0000
  H   H943      1.0  0.42100  0.61624  0.36288  1.0000
  C   C956      1.0  0.43469  0.61562  0.37029  1.0000
  H   H944      1.0  0.49624  0.94297  0.41334  1.0000
  N   N81       1.0  0.44669  0.52976  0.29859  1.0000
  C   C957      1.0  0.34081  0.90754  0.38195  1.0000
  C   C958      1.0  0.41288  0.77851  0.29806  1.0000
  C   C959      1.0  0.39304  0.95513  0.35253  1.0000
  C   C960      1.0  0.63169  0.74699  0.46108  1.0000
  H   H945      1.0  0.40931  0.89153  0.40492  1.0000
  H   H946      1.0  0.40839  0.73261  0.31928  1.0000
  H   H947      1.0  0.59518  0.51247  0.29441  1.0000
  H   H948      1.0  0.40564  0.78126  0.28790  1.0000
  H   H949      1.0  0.43544  0.76903  0.33529  1.0000
  C   C961      1.0  0.63825  0.56863  0.25787  1.0000
  C   C962      1.0  0.43538  0.98705  0.35794  1.0000
  H   H950      1.0  0.43546  0.95238  0.31816  1.0000
  C   C963      1.0  0.51008  0.52584  0.29838  1.0000
  H   H951      1.0  0.44225  0.84242  0.40338  1.0000
  H   H952      1.0  0.48415  0.87938  0.40472  1.0000
  C   C964      1.0  0.39928  0.95384  0.33826  1.0000
  H   H953      1.0  0.49756  0.53687  0.31757  1.0000
  C   C965      1.0  0.64829  0.82365  0.41692  1.0000
  H   H954      1.0  0.40978  0.60294  0.38786  1.0000
  C   C966      1.0  0.44497  0.54709  0.30923  1.0000
  N   N82       1.0  0.40653  0.75484  0.30234  1.0000
  C   C967      1.0  0.42846  0.60827  0.38434  1.0000
  H   H955      1.0  0.39411  0.71737  0.29414  1.0000
  C   C968      1.0  0.38943  0.73298  0.29327  1.0000
  H   H956      1.0  0.59163  0.72414  0.44472  1.0000
  C   C969      1.0  0.44410  0.86111  0.40434  1.0000
  H   H957      1.0  0.39038  0.73738  0.28171  1.0000
  H   H958      1.0  0.36831  0.66277  0.24606  1.0000
  C   C970      1.0  0.63041  0.53505  0.27375  1.0000
  N   N83       1.0  0.62182  0.75897  0.45297  1.0000
  C   C971      1.0  0.61329  0.56311  0.25863  1.0000
  C   C972      1.0  0.42929  0.96695  0.31904  1.0000
  C   C973      1.0  0.35344  0.66779  0.24554  1.0000
  H   H959      1.0  0.48037  0.95883  0.27835  1.0000
  Fe  Fe162     1.0  0.34089  0.66664  0.29699  1.0000
  H   H960      1.0  0.62365  0.72671  0.46041  1.0000
  H   H961      1.0  0.47654  0.53020  0.26820  1.0000
  H   H962      1.0  0.50992  0.92298  0.40960  1.0000
  C   C974      1.0  0.41458  0.75137  0.31551  1.0000
  C   C975      1.0  0.60031  0.74463  0.44305  1.0000
  H   H963      1.0  0.45978  0.99725  0.34022  1.0000
  C   C976      1.0  0.42816  0.79951  0.30695  1.0000
  C   C977      1.0  0.46778  0.88213  0.40511  1.0000
  H   H964      1.0  0.45150  0.92800  0.40595  1.0000
  C   C978      1.0  0.44960  0.90925  0.40581  1.0000
  S   S325      1.0  0.34339  0.61107  0.33795  1.0000
  C   C979      1.0  0.41124  0.97190  0.36239  1.0000
  H   H965      1.0  0.37438  0.94287  0.35602  1.0000
  N   N84       1.0  0.47601  0.62108  0.37505  1.0000
  C   C980      1.0  0.47008  0.61398  0.38887  1.0000
  C   C981      1.0  0.45856  0.62161  0.36573  1.0000
  C   C982      1.0  0.44622  0.60738  0.39371  1.0000
  H   H966      1.0  0.44477  0.98493  0.31560  1.0000
  H   H967      1.0  0.53611  0.99329  0.25044  1.0000
  C   C983      1.0  0.50069  0.62673  0.36998  1.0000
  H   H968      1.0  0.48368  0.61296  0.39619  1.0000
  H   H969      1.0  0.46288  0.62636  0.35461  1.0000
  H   H970      1.0  0.52114  0.54490  0.29511  1.0000
  H   H971      1.0  0.65821  0.67601  0.37650  1.0000
  H   H972      1.0  0.63348  0.81410  0.40881  1.0000
  H   H973      1.0  0.50034  0.60918  0.36587  1.0000
  H   H974      1.0  0.50646  0.64036  0.36128  1.0000
  C   C984      1.0  0.49670  0.52136  0.31112  1.0000
  H   H975      1.0  0.62497  0.79410  0.44699  1.0000
  C   C985      1.0  0.43672  0.79614  0.32031  1.0000
  C   C986      1.0  0.42291  0.86445  0.40442  1.0000
  C   C987      1.0  0.50888  0.50588  0.28970  1.0000
  C   C988      1.0  0.33728  0.92137  0.39325  1.0000
  H   H976      1.0  0.63702  0.52350  0.27913  1.0000
  C   C989      1.0  0.44090  0.98551  0.34356  1.0000
  C   C990      1.0  0.55457  0.99571  0.25434  1.0000
  H   H977      1.0  0.42690  0.53820  0.31471  1.0000
  S   S326      1.0  0.45668  0.51085  0.37014  1.0000
  H   H978      1.0  0.46037  0.55313  0.31748  1.0000
  N   N85       1.0  0.60594  0.52966  0.27438  1.0000
  C   C991      1.0  0.63233  0.78455  0.45374  1.0000
  C   C992      1.0  0.64697  0.55472  0.26559  1.0000
  H   H979      1.0  0.57791  0.53931  0.26756  1.0000
  C   C993      1.0  0.59733  0.54358  0.26710  1.0000
  H   H980      1.0  0.64856  0.96449  0.38316  1.0000
  H   H981      1.0  0.54167  0.99004  0.28165  1.0000
  C   C994      1.0  0.66042  0.50849  0.25072  1.0000
  H   H982      1.0  0.66055  0.75109  0.47650  1.0000
  S   S327      1.0  0.59392  0.51873  0.61346  1.0000
  Fe  Fe163     1.0  0.47109  0.52823  0.72225  1.0000
  S   S328      1.0  0.44474  0.54360  0.72785  1.0000
  H   H983      1.0  0.59765  0.98469  0.56194  1.0000
  H   H984      1.0  0.63008  0.79744  0.69659  1.0000
  S   S329      1.0  0.65143  0.83574  0.72015  1.0000
  S   S330      1.0  0.44868  0.90017  0.72894  1.0000
  C   C995      1.0  0.58012  0.81426  0.68341  1.0000
  Fe  Fe164     1.0  0.46474  0.94099  0.72318  1.0000
  S   S331      1.0  0.47240  0.95081  0.69954  1.0000
  C   C996      1.0  0.58236  0.82776  0.69627  1.0000
  Fe  Fe165     1.0  0.61581  0.80873  0.73105  1.0000
  S   S332      1.0  0.57693  0.78492  0.72190  1.0000
  H   H985      1.0  0.64586  0.98061  0.55127  1.0000
  H   H986      1.0  0.59759  0.55239  0.56502  1.0000
  C   C997      1.0  0.60027  0.82265  0.67436  1.0000
  C   C998      1.0  0.49574  0.51028  0.67528  1.0000
  H   H987      1.0  0.63386  0.97872  0.53317  1.0000
  Fe  Fe166     1.0  0.56456  0.80458  0.73827  1.0000
  H   H988      1.0  0.62332  0.86481  0.72011  1.0000
  C   C999      1.0  0.48258  0.98033  0.69160  1.0000
  H   H989      1.0  0.56296  0.79726  0.68060  1.0000
  C   C1000     1.0  0.51548  0.84911  0.72745  1.0000
  H   H990      1.0  0.64227  0.56152  0.61165  1.0000
  H   H991      1.0  0.51042  0.84151  0.71652  1.0000
  H   H992      1.0  0.49618  0.87134  0.72584  1.0000
  C   C1001     1.0  0.34907  0.87281  0.73138  1.0000
  H   H993      1.0  0.36383  0.88524  0.72470  1.0000
  H   H994      1.0  0.64308  0.68443  0.49640  1.0000
  C   C1002     1.0  0.59744  0.58529  0.61273  1.0000
  H   H995      1.0  0.59904  0.81216  0.66447  1.0000
  S   S333      1.0  0.53946  0.82016  0.72897  1.0000
  H   H996      1.0  0.43556  0.53181  0.69462  1.0000
  H   H997      1.0  0.41317  0.51599  0.67996  1.0000
  H   H998      1.0  0.61243  0.50022  0.58336  1.0000
  H   H999      1.0  0.57680  0.57638  0.59243  1.0000
  H   H1000     1.0  0.52378  0.96369  0.71081  1.0000
  H   H1001     1.0  0.63826  0.85076  0.67140  1.0000
  C   C1003     1.0  0.62229  0.84438  0.67823  1.0000
  C   C1004     1.0  0.60671  0.86264  0.71371  1.0000
  H   H1002     1.0  0.65411  0.64432  0.58136  1.0000
  H   H1003     1.0  0.56658  0.82110  0.70324  1.0000
  H   H1004     1.0  0.45188  0.98715  0.64449  1.0000
  S   S334      1.0  0.48077  0.52769  0.69871  1.0000
  C   C1005     1.0  0.53003  0.84188  0.73619  1.0000
  C   C1006     1.0  0.53028  0.66406  0.72921  1.0000
  H   H1005     1.0  0.48825  0.96681  0.67109  1.0000
  H   H1006     1.0  0.62790  0.49848  0.60782  1.0000
  S   S335      1.0  0.49988  0.55132  0.73951  1.0000
  N   N86       1.0  0.60427  0.84871  0.70014  1.0000
  C   C1007     1.0  0.62407  0.85710  0.69131  1.0000
  H   H1007     1.0  0.51002  0.62351  0.72672  1.0000
  H   H1008     1.0  0.41620  0.82226  0.72313  1.0000
  H   H1009     1.0  0.53746  0.66644  0.71851  1.0000
  C   C1008     1.0  0.63172  0.57459  0.57753  1.0000
  C   C1009     1.0  0.64422  0.57685  0.59073  1.0000
  C   C1010     1.0  0.63247  0.55933  0.60144  1.0000
  C   C1011     1.0  0.60809  0.53933  0.59916  1.0000
  C   C1012     1.0  0.59575  0.53681  0.58587  1.0000
  C   C1013     1.0  0.60750  0.55433  0.57516  1.0000
  H   H1010     1.0  0.61276  0.96271  0.54702  1.0000
  C   C1014     1.0  0.61144  0.61101  0.59206  1.0000
  H   H1011     1.0  0.57699  0.52163  0.58392  1.0000
  C   C1015     1.0  0.59339  0.58977  0.59854  1.0000
  N   N87       1.0  0.63293  0.62733  0.59952  1.0000
  C   C1016     1.0  0.48969  0.98293  0.67718  1.0000
  C   C1017     1.0  0.50739  0.86609  0.73270  1.0000
  H   H1012     1.0  0.64164  0.87334  0.69454  1.0000
  H   H1013     1.0  0.49396  0.52474  0.66959  1.0000
  H   H1014     1.0  0.62267  0.59869  0.63130  1.0000
  H   H1015     1.0  0.59016  0.85277  0.72040  1.0000
  S   S336      1.0  0.64462  0.59725  0.56403  1.0000
  C   C1018     1.0  0.61926  0.60221  0.62032  1.0000
  H   H1016     1.0  0.36396  0.51227  0.73583  1.0000
  C   C1019     1.0  0.64698  0.81304  0.69305  1.0000
  S   S337      1.0  0.55644  0.71588  0.73158  1.0000
  H   H1017     1.0  0.60859  0.61389  0.58085  1.0000
  H   H1018     1.0  0.55357  0.97216  0.70305  1.0000
  H   H1019     1.0  0.42754  0.97969  0.62133  1.0000
  H   H1020     1.0  0.64520  0.66402  0.59200  1.0000
  H   H1021     1.0  0.58403  0.56836  0.61770  1.0000
  C   C1020     1.0  0.65457  0.81293  0.67884  1.0000
  H   H1022     1.0  0.64338  0.79715  0.67153  1.0000
  C   C1021     1.0  0.63007  0.98002  0.54471  1.0000
  C   C1022     1.0  0.41663  0.51618  0.69173  1.0000
  C   C1023     1.0  0.42418  0.82905  0.73389  1.0000
  C   C1024     1.0  0.63686  0.62337  0.61353  1.0000
  C   C1025     1.0  0.49078  0.50765  0.69001  1.0000
  C   C1026     1.0  0.43392  0.99721  0.62750  1.0000
  C   C1027     1.0  0.51470  0.63960  0.73386  1.0000
  H   H1023     1.0  0.60871  0.88141  0.71153  1.0000
  S   S338      1.0  0.49663  0.95434  0.73955  1.0000
  C   C1028     1.0  0.44444  0.82618  0.73891  1.0000
  H   H1024     1.0  0.65383  0.63638  0.61947  1.0000
  C   C1029     1.0  0.53618  0.97377  0.70197  1.0000
  C   C1030     1.0  0.53649  0.68549  0.73817  1.0000
  H   H1025     1.0  0.45248  0.81726  0.73210  1.0000
  C   C1031     1.0  0.65142  0.64950  0.59247  1.0000
  H   H1026     1.0  0.40273  0.52004  0.69727  1.0000
  H   H1027     1.0  0.52576  0.96396  0.69182  1.0000
  H   H1028     1.0  0.39868  0.84338  0.73894  1.0000
  S   S339      1.0  0.43962  0.94843  0.73774  1.0000
  Fe  Fe167     1.0  0.57259  0.75749  0.73915  1.0000
  N   N88       1.0  0.54470  0.60328  0.76322  1.0000
  Fe  Fe168     1.0  0.47886  0.51902  0.75384  1.0000
  S   S340      1.0  0.45337  0.53370  0.76162  1.0000
  C   C1032     1.0  0.53941  0.56832  0.77714  1.0000
  H   H1029     1.0  0.64687  0.78553  0.86416  1.0000
  C   C1033     1.0  0.65591  0.81142  0.78659  1.0000
  S   S341      1.0  0.61291  0.78044  0.74722  1.0000
  C   C1034     1.0  0.50320  0.49971  0.78520  1.0000
  Fe  Fe169     1.0  0.47074  0.95942  0.75464  1.0000
  C   C1035     1.0  0.50520  0.63611  0.74766  1.0000
  C   C1036     1.0  0.52783  0.59858  0.78672  1.0000
  H   H1030     1.0  0.63497  0.83661  0.81246  1.0000
  S   S342      1.0  0.45537  0.92038  0.76252  1.0000
  Fe  Fe170     1.0  0.59818  0.79995  0.76195  1.0000
  S   S343      1.0  0.55753  0.77558  0.75490  1.0000
  S   S344      1.0  0.61127  0.81354  0.78522  1.0000
  C   C1037     1.0  0.52816  0.86877  0.75557  1.0000
  H   H1031     1.0  0.64159  0.65186  0.95568  1.0000
  H   H1032     1.0  0.53308  0.87620  0.76653  1.0000
  C   C1038     1.0  0.53010  0.57689  0.78830  1.0000
  Fe  Fe171     1.0  0.47916  0.91424  0.74623  1.0000
  C   C1039     1.0  0.63168  0.61359  0.92673  1.0000
  H   H1033     1.0  0.63280  0.58887  0.94975  1.0000
  C   C1040     1.0  0.63069  0.65755  0.93460  1.0000
  H   H1034     1.0  0.65416  0.88612  0.79092  1.0000
  C   C1041     1.0  0.64755  0.56688  0.90524  1.0000
  C   C1042     1.0  0.45648  0.85753  0.77560  1.0000
  H   H1035     1.0  0.61209  0.97573  0.98949  1.0000
  H   H1036     1.0  0.54059  0.55106  0.77808  1.0000
  H   H1037     1.0  0.62065  0.65858  0.91235  1.0000
  H   H1038     1.0  0.62143  0.61908  0.90530  1.0000
  H   H1039     1.0  0.49493  0.52086  0.81786  1.0000
  S   S345      1.0  0.60373  0.82979  0.74644  1.0000
  Fe  Fe172     1.0  0.42564  0.90869  0.74469  1.0000
  H   H1040     1.0  0.52432  0.56652  0.79805  1.0000
  N   N89       1.0  0.44540  0.84762  0.76119  1.0000
  C   C1043     1.0  0.62493  0.64834  0.92037  1.0000
  C   C1044     1.0  0.53524  0.61161  0.77403  1.0000
  C   C1045     1.0  0.49594  0.51224  0.79531  1.0000
  H   H1041     1.0  0.55584  0.63647  0.75132  1.0000
  C   C1046     1.0  0.35506  0.86742  0.74499  1.0000
  C   C1047     1.0  0.63990  0.81855  0.79347  1.0000
  S   S346      1.0  0.48636  0.60562  0.75449  1.0000
  C   C1048     1.0  0.51143  0.65751  0.75664  1.0000
  H   H1042     1.0  0.48838  0.96804  0.79133  1.0000
  H   H1043     1.0  0.50347  0.98078  0.81677  1.0000
  C   C1049     1.0  0.64728  0.83108  0.80706  1.0000
  H   H1044     1.0  0.47063  0.83333  0.75649  1.0000
  C   C1050     1.0  0.63084  0.54089  0.90360  1.0000
  C   C1051     1.0  0.61256  0.53117  0.89229  1.0000
  C   C1052     1.0  0.61122  0.54787  0.88263  1.0000
  C   C1053     1.0  0.62790  0.57383  0.88428  1.0000
  H   H1045     1.0  0.50416  0.65518  0.76731  1.0000
  C   C1054     1.0  0.52691  0.68198  0.75196  1.0000
  H   H1046     1.0  0.59734  0.54080  0.87388  1.0000
  H   H1047     1.0  0.62661  0.58647  0.87671  1.0000
  H   H1048     1.0  0.53138  0.69814  0.75900  1.0000
  S   S347      1.0  0.49919  0.50163  0.76642  1.0000
  H   H1049     1.0  0.63097  0.67503  0.93778  1.0000
  H   H1050     1.0  0.33315  0.90445  0.75111  1.0000
  C   C1055     1.0  0.63674  0.64434  0.94469  1.0000
  H   H1051     1.0  0.65031  0.80148  0.77624  1.0000
  H   H1052     1.0  0.51993  0.60506  0.79513  1.0000
  S   S348      1.0  0.48377  0.99661  0.76745  1.0000
  H   H1053     1.0  0.44424  0.84535  0.78389  1.0000
  H   H1054     1.0  0.54745  0.84654  0.75719  1.0000
  H   H1055     1.0  0.53277  0.62808  0.77273  1.0000
  H   H1056     1.0  0.56778  0.61607  0.74510  1.0000
  H   H1057     1.0  0.55314  0.57458  0.75581  1.0000
  C   C1056     1.0  0.33543  0.85106  0.75345  1.0000
  S   S349      1.0  0.38650  0.88050  0.75206  1.0000
  H   H1058     1.0  0.63212  0.52822  0.91114  1.0000
  C   C1057     1.0  0.49504  0.98725  0.79512  1.0000
  Fe  Fe173     1.0  0.47279  0.56492  0.74604  1.0000
  C   C1058     1.0  0.53637  0.85191  0.75030  1.0000
  S   S350      1.0  0.50266  0.89619  0.75448  1.0000
  H   H1059     1.0  0.48699  0.52299  0.79170  1.0000
  C   C1059     1.0  0.64619  0.58356  0.89556  1.0000
  C   C1060     1.0  0.42531  0.85017  0.75643  1.0000
  H   H1060     1.0  0.33977  0.84660  0.76396  1.0000
  C   C1061     1.0  0.41437  0.84090  0.74273  1.0000
  C   C1062     1.0  0.54658  0.58178  0.76458  1.0000
  H   H1061     1.0  0.64630  0.86141  0.76815  1.0000
  N   N90       1.0  0.63710  0.62260  0.94069  1.0000
  C   C1063     1.0  0.62527  0.62616  0.91641  1.0000
  C   C1064     1.0  0.45470  0.83539  0.75274  1.0000
  H   H1062     1.0  0.45922  0.87692  0.77731  1.0000
  C   C1065     1.0  0.50043  0.51095  0.81011  1.0000
  H   H1063     1.0  0.45516  0.99729  0.85961  1.0000
  H   H1064     1.0  0.47533  0.85893  0.77694  1.0000
  H   H1065     1.0  0.41781  0.85975  0.76315  1.0000
  H   H1066     1.0  0.63272  0.59681  0.92343  1.0000
  C   C1066     1.0  0.64459  0.60950  0.95116  1.0000
  H   H1067     1.0  0.64302  0.61511  0.96240  1.0000
  C   C1067     1.0  0.55129  0.61646  0.74972  1.0000
  C   C1068     1.0  0.51365  0.87602  0.74683  1.0000
  H   H1068     1.0  0.45695  0.98212  0.83476  1.0000
  H   H1069     1.0  0.65635  0.83480  0.75337  1.0000
  H   H1070     1.0  0.64528  0.99651  0.98954  1.0000
  C   C1069     1.0  0.50365  0.99457  0.80954  1.0000
  Fe  Fe174     1.0  0.42728  0.51148  0.74283  1.0000
  S   S351      1.0  0.59208  0.49813  0.89070  1.0000
  H   H1071     1.0  0.53523  0.60743  0.74184  1.0000
  H   H1072     1.0  0.93372  0.27009  0.06031  1.0000
  C   C1070     1.0  0.90897  0.20338  0.15458  1.0000
  S   S352      1.0  0.87381  0.39513  0.23366  1.0000
  C   C1071     1.0  0.97925  0.25653  0.03483  1.0000
  Fe  Fe175     1.0  0.84520  0.11076  0.11579  1.0000
  S   S353      1.0  0.84875  0.09073  0.13490  1.0000
  S   S354      1.0  0.80982  0.09732  0.10155  1.0000
  Fe  Fe176     1.0  0.89612  0.15758  0.12301  1.0000
  S   S355      1.0  0.90297  0.14052  0.14280  1.0000
  S   S356      1.0  0.92029  0.19921  0.11878  1.0000
  Fe  Fe177     1.0  0.88877  0.10511  0.12893  1.0000
  S   S357      1.0  0.90529  0.07828  0.12705  1.0000
  Fe  Fe178     1.0  0.86247  0.12769  0.14717  1.0000
  S   S358      1.0  0.84785  0.12730  0.16955  1.0000
  S   S359      1.0  0.88440  0.12300  0.10872  1.0000
  S   S360      1.0  0.85649  0.14691  0.12851  1.0000
  C   C1072     1.0  0.79043  0.07228  0.14774  1.0000
  C   C1073     1.0  0.88854  0.19377  0.19820  1.0000
  S   S361      1.0  0.90578  0.46762  0.22946  1.0000
  C   C1074     1.0  0.75577  0.04448  0.12592  1.0000
  H   H1073     1.0  0.89192  0.19190  0.14773  1.0000
  Fe  Fe179     1.0  0.94772  0.48368  0.22931  1.0000
  C   C1075     1.0  0.76551  0.07051  0.12729  1.0000
  Fe  Fe180     1.0  0.80515  0.20390  0.22231  1.0000
  S   S362      1.0  0.78877  0.22950  0.22796  1.0000
  S   S363      1.0  0.81789  0.20495  0.19928  1.0000
  H   H1074     1.0  0.80915  0.12046  0.14669  1.0000
  H   H1075     1.0  0.96555  0.31338  0.00160  1.0000
  H   H1076     1.0  0.82211  0.41984  0.23053  1.0000
  N   N91       1.0  0.95463  0.25101  0.05558  1.0000
  H   H1077     1.0  0.89486  0.16162  0.19687  1.0000
  C   C1076     1.0  0.78141  0.04632  0.14652  1.0000
  H   H1078     1.0  0.91697  0.22319  0.15144  1.0000
  C   C1077     1.0  0.75247  0.01576  0.08839  1.0000
  C   C1078     1.0  0.89552  0.21645  0.17637  1.0000
  H   H1079     1.0  0.90732  0.16793  0.17165  1.0000
  H   H1080     1.0  0.95944  0.11725  0.12817  1.0000
  C   C1079     1.0  0.70350  0.03467  0.99709  1.0000
  C   C1080     1.0  0.89579  0.17761  0.19136  1.0000
  C   C1081     1.0  0.83766  0.14794  0.17717  1.0000
  C   C1082     1.0  0.83743  0.16742  0.16952  1.0000
  C   C1083     1.0  0.83066  0.18430  0.17633  1.0000
  C   C1084     1.0  0.82412  0.18194  0.19084  1.0000
  C   C1085     1.0  0.82389  0.16217  0.19839  1.0000
  C   C1086     1.0  0.83056  0.14525  0.19156  1.0000
  H   H1081     1.0  0.84276  0.16971  0.15843  1.0000
  H   H1082     1.0  0.83079  0.19947  0.17038  1.0000
  H   H1083     1.0  0.81886  0.16007  0.20954  1.0000
  H   H1084     1.0  0.83061  0.13021  0.19758  1.0000
  C   C1087     1.0  0.95167  0.06156  0.16041  1.0000
  C   C1088     1.0  0.94662  0.08170  0.16292  1.0000
  C   C1089     1.0  0.93105  0.08615  0.15328  1.0000
  C   C1090     1.0  0.92070  0.07066  0.14092  1.0000
  C   C1091     1.0  0.92498  0.04996  0.13872  1.0000
  C   C1092     1.0  0.94030  0.04534  0.14843  1.0000
  H   H1085     1.0  0.95524  0.09426  0.17220  1.0000
  H   H1086     1.0  0.92789  0.10211  0.15512  1.0000
  H   H1087     1.0  0.91693  0.03779  0.12922  1.0000
  H   H1088     1.0  0.94392  0.02970  0.14642  1.0000
  H   H1089     1.0  0.92309  0.19721  0.15212  1.0000
  C   C1093     1.0  0.84361  0.34375  0.23397  1.0000
  H   H1090     1.0  0.81885  0.25414  0.19652  1.0000
  N   N92       1.0  0.90285  0.20066  0.16980  1.0000
  H   H1091     1.0  0.88165  0.22525  0.19572  1.0000
  C   C1094     1.0  0.89022  0.31254  0.22495  1.0000
  C   C1095     1.0  0.97592  0.25198  0.09587  1.0000
  C   C1096     1.0  0.95597  0.23967  0.10511  1.0000
  C   C1097     1.0  0.94514  0.21360  0.10678  1.0000
  C   C1098     1.0  0.95451  0.19996  0.09906  1.0000
  C   C1099     1.0  0.96602  0.21942  0.04854  1.0000
  H   H1092     1.0  0.83223  0.34678  0.22599  1.0000
  H   H1093     1.0  0.94897  0.25044  0.11107  1.0000
  H   H1094     1.0  0.94643  0.17993  0.10024  1.0000
  N   N93       1.0  0.98151  0.09848  0.12993  1.0000
  H   H1095     1.0  0.82368  0.28313  0.18927  1.0000
  C   C1100     1.0  0.74923  0.03589  0.08379  1.0000
  C   C1101     1.0  0.76726  0.06074  0.08764  1.0000
  C   C1102     1.0  0.78876  0.06578  0.09606  1.0000
  C   C1103     1.0  0.79217  0.04568  0.10049  1.0000
  C   C1104     1.0  0.77407  0.02083  0.09672  1.0000
  H   H1096     1.0  0.73270  0.03230  0.07742  1.0000
  H   H1097     1.0  0.76444  0.07616  0.08416  1.0000
  H   H1098     1.0  0.80856  0.04924  0.10699  1.0000
  C   C1105     1.0  0.79253  0.11131  0.13919  1.0000
  H   H1099     1.0  0.80782  0.27313  0.20599  1.0000
  C   C1106     1.0  0.88837  0.21333  0.19068  1.0000
  H   H1100     1.0  0.92996  0.24635  0.07268  1.0000
  S   S364      1.0  0.77711  0.17206  0.23484  1.0000
  C   C1107     1.0  0.87678  0.28643  0.22482  1.0000
  N   N94       1.0  0.78277  0.08407  0.13802  1.0000
  C   C1108     1.0  0.97891  0.23370  0.03708  1.0000
  S   S365      1.0  0.94713  0.44937  0.23863  1.0000
  H   H1101     1.0  0.98414  0.27204  0.09479  1.0000
  C   C1109     1.0  0.97794  0.30671  0.99748  1.0000
  H   H1102     1.0  0.77676  0.00541  0.10033  1.0000
  H   H1103     1.0  0.88207  0.19052  0.20910  1.0000
  H   H1104     1.0  0.70411  0.13546  0.23855  1.0000
  C   C1110     1.0  0.85995  0.31270  0.20781  1.0000
  H   H1105     1.0  0.69694  0.02031  0.01857  1.0000
  C   C1111     1.0  0.88187  0.32581  0.21634  1.0000
  C   C1112     1.0  0.98884  0.05698  0.12495  1.0000
  C   C1113     1.0  0.76405  0.03239  0.13548  1.0000
  C   C1114     1.0  0.82317  0.27376  0.19946  1.0000
  H   H1106     1.0  0.85302  0.32324  0.20165  1.0000
  N   N95       1.0  0.84694  0.28707  0.20772  1.0000
  H   H1107     1.0  0.89160  0.34618  0.21682  1.0000
  H   H1108     1.0  0.79749  0.44244  0.23430  1.0000
  H   H1109     1.0  0.84433  0.25368  0.21635  1.0000
  C   C1115     1.0  0.95383  0.22837  0.05772  1.0000
  C   C1116     1.0  0.69654  0.01573  0.00722  1.0000
  C   C1117     1.0  0.94360  0.26118  0.06594  1.0000
  C   C1118     1.0  0.90278  0.18126  0.17705  1.0000
  H   H1110     1.0  0.70926  0.05378  0.00077  1.0000
  H   H1111     1.0  0.89451  0.23115  0.17045  1.0000
  C   C1119     1.0  0.97351  0.06173  0.11555  1.0000
  H   H1112     1.0  0.74265  0.03389  0.11712  1.0000
  H   H1113     1.0  0.75984  0.07991  0.11940  1.0000
  H   H1114     1.0  0.80402  0.08300  0.15631  1.0000
  C   C1120     1.0  0.85503  0.27393  0.21611  1.0000
  S   S366      1.0  0.97416  0.05897  0.17169  1.0000
  C   C1121     1.0  0.97458  0.21231  0.08990  1.0000
  C   C1122     1.0  0.86530  0.36450  0.23991  1.0000
  H   H1115     1.0  0.97452  0.46721  0.19871  1.0000
  C   C1123     1.0  0.68808  0.13820  0.24046  1.0000
  H   H1116     1.0  0.95859  0.27546  0.07321  1.0000
  H   H1117     1.0  0.77798  0.11579  0.14317  1.0000
  H   H1118     1.0  0.78814  0.03717  0.15397  1.0000
  H   H1119     1.0  0.79842  0.11952  0.12849  1.0000
  H   H1120     1.0  0.66162  0.09873  0.23806  1.0000
  H   H1121     1.0  0.95759  0.08595  0.11107  1.0000
  H   H1122     1.0  0.81977  0.30342  0.23359  1.0000
  H   H1123     1.0  0.94456  0.21753  0.06688  1.0000
  S   S367      1.0  0.99025  0.01048  0.14968  1.0000
  S   S368      1.0  0.83404  0.21906  0.24042  1.0000
  C   C1124     1.0  0.97011  0.08276  0.11818  1.0000
  H   H1124     1.0  0.96385  0.04890  0.10648  1.0000
  H   H1125     1.0  0.98944  0.26794  0.02605  1.0000
  C   C1125     1.0  0.98539  0.23836  0.08823  1.0000
  C   C1126     1.0  0.83647  0.31908  0.23826  1.0000
  C   C1127     1.0  0.66386  0.11734  0.24015  1.0000
  H   H1126     1.0  0.96625  0.20201  0.05068  1.0000
  H   H1127     1.0  0.90645  0.32252  0.23216  1.0000
  C   C1128     1.0  0.97815  0.12071  0.13234  1.0000
  C   C1129     1.0  0.82517  0.43145  0.24021  1.0000
  Fe  Fe181     1.0  0.90554  0.43446  0.24052  1.0000
  C   C1130     1.0  0.96703  0.26501  0.04427  1.0000
  H   H1128     1.0  0.98175  0.20157  0.08404  1.0000
  Fe  Fe182     1.0  0.98568  0.02820  0.17005  1.0000
  H   H1129     1.0  0.75724  0.01232  0.13418  1.0000
  H   H1130     1.0  0.88242  0.27601  0.23199  1.0000
  H   H1131     1.0  0.96797  0.28312  0.04265  1.0000
  C   C1131     1.0  0.98571  0.48371  0.19278  1.0000
  H   H1132     1.0  0.86394  0.49408  0.23380  1.0000
  H   H1133     1.0  0.98899  0.22732  0.03009  1.0000
  H   H1134     1.0  0.97909  0.12553  0.14402  1.0000
  H   H1135     1.0  0.99275  0.13687  0.12686  1.0000
  H   H1136     1.0  0.99127  0.04048  0.12322  1.0000
  S   S369      1.0  0.97816  0.04776  0.33746  1.0000
  H   H1137     1.0  0.74949  0.03076  0.41187  1.0000
  H   H1138     1.0  0.99171  0.28407  0.46893  1.0000
  Fe  Fe183     1.0  0.90383  0.14523  0.36672  1.0000
  S   S370      1.0  0.90444  0.14168  0.34259  1.0000
  S   S371      1.0  0.93737  0.16758  0.38224  1.0000
  Fe  Fe184     1.0  0.84787  0.10656  0.36749  1.0000
  S   S372      1.0  0.84407  0.10044  0.34339  1.0000
  S   S373      1.0  0.81814  0.09305  0.38459  1.0000
  Fe  Fe185     1.0  0.88120  0.10014  0.34539  1.0000
  S   S374      1.0  0.88602  0.07041  0.33228  1.0000
  Fe  Fe186     1.0  0.86755  0.14229  0.34216  1.0000
  S   S375      1.0  0.86009  0.17003  0.32936  1.0000
  S   S376      1.0  0.88321  0.10344  0.36954  1.0000
  S   S377      1.0  0.86878  0.14863  0.36620  1.0000
  Fe  Fe187     1.0  0.95066  0.46871  0.26034  1.0000
  H   H1139     1.0  0.95169  0.48431  0.31227  1.0000
  C   C1132     1.0  0.84704  0.44875  0.26298  1.0000
  S   S378      1.0  0.90907  0.45177  0.26273  1.0000
  Fe  Fe188     1.0  0.80517  0.18920  0.25356  1.0000
  S   S379      1.0  0.78954  0.21418  0.26138  1.0000
  S   S380      1.0  0.81134  0.16077  0.26642  1.0000
  H   H1140     1.0  0.79498  0.47707  0.24652  1.0000
  C   C1133     1.0  0.76109  0.03356  0.40274  1.0000
  S   S381      1.0  0.97709  0.46643  0.27747  1.0000
  H   H1141     1.0  0.75607  0.03050  0.47617  1.0000
  H   H1142     1.0  0.67234  0.18405  0.24758  1.0000
  H   H1143     1.0  0.95644  0.44581  0.31128  1.0000
  Fe  Fe189     1.0  0.91182  0.48567  0.25155  1.0000
  H   H1144     1.0  0.72592  0.06457  0.37163  1.0000
  H   H1145     1.0  0.78360  0.45984  0.26269  1.0000
  H   H1146     1.0  0.94787  0.25326  0.37914  1.0000
  C   C1134     1.0  0.84699  0.16715  0.31168  1.0000
  C   C1135     1.0  0.83819  0.14509  0.30313  1.0000
  C   C1136     1.0  0.82771  0.14365  0.28923  1.0000
  C   C1137     1.0  0.82600  0.16422  0.28369  1.0000
  C   C1138     1.0  0.83472  0.18626  0.29224  1.0000
  C   C1139     1.0  0.84513  0.18767  0.30616  1.0000
  H   H1147     1.0  0.83943  0.12914  0.30723  1.0000
  H   H1148     1.0  0.82090  0.12646  0.28274  1.0000
  H   H1149     1.0  0.83347  0.20222  0.28816  1.0000
  H   H1150     1.0  0.85191  0.20483  0.31268  1.0000
  Fe  Fe190     1.0  0.81639  0.24322  0.24674  1.0000
  C   C1140     1.0  0.91621  0.08664  0.29987  1.0000
  C   C1141     1.0  0.95155  0.05257  0.33654  1.0000
  C   C1142     1.0  0.93099  0.03812  0.32725  1.0000
  C   C1143     1.0  0.91077  0.04341  0.32638  1.0000
  C   C1144     1.0  0.91094  0.06323  0.33469  1.0000
  C   C1145     1.0  0.93140  0.07752  0.34407  1.0000
  C   C1146     1.0  0.95154  0.07215  0.34501  1.0000
  H   H1151     1.0  0.93070  0.02298  0.32071  1.0000
  H   H1152     1.0  0.89499  0.03218  0.31913  1.0000
  H   H1153     1.0  0.93176  0.09280  0.35053  1.0000
  H   H1154     1.0  0.96733  0.08338  0.35225  1.0000
  C   C1147     1.0  0.75706  0.01310  0.39370  1.0000
  H   H1155     1.0  0.88386  0.33254  0.26263  1.0000
  H   H1156     1.0  0.83679  0.47356  0.27432  1.0000
  Fe  Fe191     1.0  0.76276  0.19851  0.24201  1.0000
  C   C1148     1.0  0.98016  0.23576  0.40234  1.0000
  C   C1149     1.0  0.96891  0.21005  0.39828  1.0000
  C   C1150     1.0  0.95024  0.19985  0.38723  1.0000
  C   C1151     1.0  0.94246  0.21550  0.38052  1.0000
  C   C1152     1.0  0.95371  0.24120  0.38458  1.0000
  N   N96       1.0  0.93584  0.07924  0.29854  1.0000
  H   H1157     1.0  0.97492  0.19803  0.40361  1.0000
  H   H1158     1.0  0.92800  0.20788  0.37207  1.0000
  C   C1153     1.0  0.69144  0.16248  0.24323  1.0000
  C   C1154     1.0  0.70676  0.00710  0.37381  1.0000
  C   C1155     1.0  0.87251  0.33555  0.25460  1.0000
  C   C1156     1.0  0.78016  0.05779  0.39992  1.0000
  C   C1157     1.0  0.79535  0.06189  0.38803  1.0000
  C   C1158     1.0  0.79139  0.04139  0.37904  1.0000
  C   C1159     1.0  0.77236  0.01715  0.38187  1.0000
  H   H1159     1.0  0.91486  0.09614  0.29010  1.0000
  H   H1160     1.0  0.78307  0.07351  0.40696  1.0000
  H   H1161     1.0  0.80290  0.04423  0.36985  1.0000
  H   H1162     1.0  0.73653  0.06236  0.38962  1.0000
  H   H1163     1.0  0.89636  0.37583  0.25501  1.0000
  H   H1164     1.0  0.75640  0.20927  0.29764  1.0000
  C   C1160     1.0  0.97254  0.06453  0.29591  1.0000
  C   C1161     1.0  0.97281  0.25153  0.39537  1.0000
  H   H1165     1.0  0.81146  0.48998  0.26323  1.0000
  C   C1162     1.0  0.95187  0.05468  0.28635  1.0000
  C   C1163     1.0  0.68801  0.02705  0.38735  1.0000
  H   H1166     1.0  0.98638  0.44198  0.32816  1.0000
  C   C1164     1.0  0.96412  0.48215  0.31998  1.0000
  H   H1167     1.0  0.91968  0.09958  0.30936  1.0000
  Fe  Fe192     1.0  0.98566  0.02185  0.32259  1.0000
  N   N97       1.0  0.70788  0.02828  0.38012  1.0000
  S   S382      1.0  0.69831  0.00593  0.46197  1.0000
  S   S383      1.0  0.72171  0.18959  0.24459  1.0000
  N   N98       1.0  0.74977  0.14968  0.27753  1.0000
  C   C1165     1.0  0.76668  0.16015  0.28885  1.0000
  C   C1166     1.0  0.73503  0.16001  0.27340  1.0000
  C   C1167     1.0  0.76927  0.18166  0.29630  1.0000
  C   C1168     1.0  0.73692  0.18135  0.28069  1.0000
  C   C1169     1.0  0.75425  0.19229  0.29217  1.0000
  C   C1170     1.0  0.74799  0.12790  0.26928  1.0000
  H   H1168     1.0  0.77863  0.15221  0.29202  1.0000
  H   H1169     1.0  0.72204  0.15206  0.26424  1.0000
  H   H1170     1.0  0.78323  0.19024  0.30501  1.0000
  H   H1171     1.0  0.72558  0.18978  0.27705  1.0000
  H   H1172     1.0  0.72823  0.11315  0.26785  1.0000
  H   H1173     1.0  0.75594  0.13378  0.25855  1.0000
  H   H1174     1.0  0.70942  0.04385  0.48414  1.0000
  N   N99       1.0  0.88506  0.15493  0.40602  1.0000
  C   C1171     1.0  0.86519  0.15807  0.40151  1.0000
  C   C1172     1.0  0.90683  0.17511  0.41092  1.0000
  C   C1173     1.0  0.86725  0.18207  0.40116  1.0000
  C   C1174     1.0  0.90945  0.19935  0.41089  1.0000
  C   C1175     1.0  0.88961  0.20283  0.40581  1.0000
  C   C1176     1.0  0.88306  0.12984  0.40597  1.0000
  H   H1175     1.0  0.84781  0.14206  0.39775  1.0000
  H   H1176     1.0  0.92265  0.17263  0.41438  1.0000
  H   H1177     1.0  0.85173  0.18452  0.39708  1.0000
  H   H1178     1.0  0.92705  0.21540  0.41434  1.0000
  H   H1179     1.0  0.89170  0.22161  0.40535  1.0000
  H   H1180     1.0  0.88131  0.12323  0.41710  1.0000
  H   H1181     1.0  0.86661  0.11601  0.39935  1.0000
  H   H1182     1.0  0.89983  0.13015  0.40121  1.0000
  H   H1183     1.0  0.95006  0.04107  0.27794  1.0000
  H   H1184     1.0  0.86129  0.45113  0.27099  1.0000
  S   S384      1.0  0.98763  0.28434  0.39918  1.0000
  H   H1185     1.0  0.95763  0.10190  0.31670  1.0000
  C   C1177     1.0  0.93354  0.06225  0.28785  1.0000
  H   H1186     1.0  0.72264  0.00790  0.36831  1.0000
  H   H1187     1.0  0.75879  0.11966  0.27463  1.0000
  H   H1188     1.0  0.98663  0.05849  0.29498  1.0000
  C   C1178     1.0  0.98386  0.45853  0.32895  1.0000
  C   C1179     1.0  0.87968  0.36019  0.25030  1.0000
  H   H1189     1.0  0.76946  0.00147  0.37481  1.0000
  S   S385      1.0  0.84379  0.28401  0.25402  1.0000
  H   H1190     1.0  0.98492  0.22572  0.35736  1.0000
  H   H1191     1.0  0.91734  0.05431  0.28050  1.0000
  C   C1180     1.0  0.95614  0.08907  0.30793  1.0000
  C   C1181     1.0  0.83306  0.46141  0.26481  1.0000
  H   H1192     1.0  0.68891  0.04378  0.39244  1.0000
  C   C1182     1.0  0.96676  0.46048  0.31944  1.0000
  C   C1183     1.0  0.70109  0.02599  0.48924  1.0000
  C   C1184     1.0  0.97475  0.08180  0.30678  1.0000
  C   C1185     1.0  0.80061  0.47205  0.25688  1.0000
  C   C1186     1.0  0.73012  0.05265  0.37887  1.0000
  H   H1193     1.0  0.74602  0.05068  0.37450  1.0000
  H   H1194     1.0  0.89793  0.06985  0.30143  1.0000
  H   H1195     1.0  0.96419  0.25833  0.48800  1.0000
  C   C1187     1.0  0.99217  0.29267  0.47933  1.0000
  C   C1188     1.0  0.75529  0.02778  0.48767  1.0000
  H   H1196     1.0  0.99005  0.38467  0.43788  1.0000
  N   N100      1.0  0.81563  0.45923  0.25454  1.0000
  C   C1189     1.0  0.85099  0.31477  0.24857  1.0000
  C   C1190     1.0  0.97654  0.27809  0.49020  1.0000
  C   C1191     1.0  0.67011  0.16544  0.24545  1.0000
  H   H1197     1.0  0.99028  0.08878  0.31461  1.0000
  C   C1192     1.0  0.66632  0.00415  0.38843  1.0000
  C   C1193     1.0  0.69268  0.00374  0.48070  1.0000
  C   C1194     1.0  0.84308  0.43372  0.25059  1.0000
  H   H1198     1.0  0.85395  0.42394  0.24898  1.0000
  C   C1195     1.0  0.81140  0.44430  0.24241  1.0000
  Fe  Fe193     1.0  0.75024  0.08105  0.55890  1.0000
  S   S386      1.0  0.71249  0.07046  0.54844  1.0000
  S   S387      1.0  0.78436  0.11198  0.54829  1.0000
  Fe  Fe194     1.0  0.72731  0.03642  0.57894  1.0000
  S   S388      1.0  0.68825  0.02321  0.56985  1.0000
  Fe  Fe195     1.0  0.70605  0.03081  0.54820  1.0000
  H   H1199     1.0  0.73075  0.35109  0.67855  1.0000
  Fe  Fe196     1.0  0.69759  0.06392  0.57089  1.0000
  C   C1196     1.0  0.92990  0.19693  0.57892  1.0000
  S   S389      1.0  0.74445  0.04132  0.55732  1.0000
  S   S390      1.0  0.73592  0.07711  0.58130  1.0000
  Fe  Fe197     1.0  0.91215  0.24536  0.56373  1.0000
  S   S391      1.0  0.93156  0.27701  0.58029  1.0000
  S   S392      1.0  0.87910  0.21219  0.57357  1.0000
  Fe  Fe198     1.0  0.94959  0.27545  0.54074  1.0000
  S   S393      1.0  0.97121  0.30905  0.55589  1.0000
  S   S394      1.0  0.95630  0.26926  0.51709  1.0000
  Fe  Fe199     1.0  0.96759  0.28045  0.57213  1.0000
  Fe  Fe200     1.0  0.67408  0.33611  0.69113  1.0000
  Fe  Fe201     1.0  0.93358  0.30301  0.56314  1.0000
  S   S395      1.0  0.92178  0.33386  0.56528  1.0000
  S   S396      1.0  0.94818  0.24713  0.55675  1.0000
  S   S397      1.0  0.91201  0.27121  0.54686  1.0000
  Fe  Fe202     1.0  0.90827  0.48151  0.61291  1.0000
  H   H1200     1.0  0.66404  0.27935  0.73060  1.0000
  Fe  Fe203     1.0  0.90724  0.43259  0.62241  1.0000
  S   S398      1.0  0.89699  0.43769  0.64511  1.0000
  S   S399      1.0  0.91482  0.39902  0.61864  1.0000
  Fe  Fe204     1.0  0.86986  0.44838  0.63459  1.0000
  S   S400      1.0  0.83293  0.44198  0.64420  1.0000
  Fe  Fe205     1.0  0.92595  0.47807  0.64376  1.0000
  N   N101      1.0  0.76071  0.04466  0.51192  1.0000
  S   S401      1.0  0.87808  0.44083  0.61199  1.0000
  S   S402      1.0  0.93800  0.47265  0.62178  1.0000
  C   C1197     1.0  0.96675  0.44102  0.60056  1.0000
  S   S403      1.0  0.67657  0.30993  0.67447  1.0000
  S   S404      1.0  0.69191  0.33707  0.71311  1.0000
  H   H1201     1.0  0.83324  0.38659  0.66198  1.0000
  Fe  Fe206     1.0  0.69028  0.34262  0.65986  1.0000
  S   S405      1.0  0.72367  0.34837  0.64650  1.0000
  S   S406      1.0  0.69016  0.36930  0.67699  1.0000
  S   S407      1.0  0.97311  0.02354  0.66995  1.0000
  C   C1198     1.0  0.79627  0.00900  0.61363  1.0000
  C   C1199     1.0  0.79530  0.35807  0.66475  1.0000
  H   H1202     1.0  0.74755  0.01802  0.52839  1.0000
  C   C1200     1.0  0.74500  0.00359  0.49276  1.0000
  C   C1201     1.0  0.80212  0.41632  0.64361  1.0000
  C   C1202     1.0  0.78375  0.41850  0.65156  1.0000
  C   C1203     1.0  0.75946  0.39816  0.65227  1.0000
  C   C1204     1.0  0.75318  0.37540  0.64492  1.0000
  C   C1205     1.0  0.77134  0.37348  0.63663  1.0000
  C   C1206     1.0  0.79569  0.39376  0.63600  1.0000
  H   H1203     1.0  0.78844  0.43590  0.65743  1.0000
  H   H1204     1.0  0.74567  0.40002  0.65860  1.0000
  H   H1205     1.0  0.76666  0.35599  0.63085  1.0000
  H   H1206     1.0  0.80953  0.39178  0.62979  1.0000
  H   H1207     1.0  0.82007  0.48016  0.63342  1.0000
  C   C1207     1.0  0.69945  0.02542  0.50434  1.0000
  H   H1208     1.0  0.97116  0.39277  0.56276  1.0000
  C   C1208     1.0  0.91785  0.35021  0.58040  1.0000
  C   C1209     1.0  0.91063  0.36882  0.57803  1.0000
  C   C1210     1.0  0.90893  0.38350  0.58957  1.0000
  C   C1211     1.0  0.91436  0.37970  0.60369  1.0000
  C   C1212     1.0  0.92090  0.36061  0.60609  1.0000
  C   C1213     1.0  0.92265  0.34597  0.59455  1.0000
  H   H1209     1.0  0.90674  0.37222  0.56715  1.0000
  H   H1210     1.0  0.90371  0.39794  0.58752  1.0000
  H   H1211     1.0  0.92510  0.35743  0.61696  1.0000
  H   H1212     1.0  0.92823  0.33178  0.59660  1.0000
  H   H1213     1.0  0.98475  0.19499  0.58217  1.0000
  C   C1214     1.0  0.94843  0.19037  0.57576  1.0000
  H   H1214     1.0  0.94835  0.43826  0.59631  1.0000
  C   C1215     1.0  0.98385  0.38913  0.59806  1.0000
  C   C1216     1.0  0.81585  0.38173  0.66723  1.0000
  C   C1217     1.0  0.97291  0.21574  0.59637  1.0000
  C   C1218     1.0  0.81047  0.13983  0.55559  1.0000
  C   C1219     1.0  0.81380  0.14632  0.57030  1.0000
  C   C1220     1.0  0.83494  0.16842  0.57555  1.0000
  C   C1221     1.0  0.85304  0.18440  0.56621  1.0000
  C   C1222     1.0  0.84966  0.17805  0.55148  1.0000
  C   C1223     1.0  0.82853  0.15591  0.54623  1.0000
  H   H1215     1.0  0.80013  0.13423  0.57765  1.0000
  H   H1216     1.0  0.83726  0.17309  0.58697  1.0000
  H   H1217     1.0  0.86333  0.19010  0.54412  1.0000
  H   H1218     1.0  0.82621  0.15113  0.53483  1.0000
  H   H1219     1.0  0.70637  0.04272  0.51073  1.0000
  C   C1224     1.0  0.79076  0.39340  0.68216  1.0000
  C   C1225     1.0  0.76302  0.04824  0.49746  1.0000
  H   H1220     1.0  0.77808  0.06468  0.53164  1.0000
  S   S408      1.0  0.68822  0.00057  0.53013  1.0000
  N   N102      1.0  0.85613  0.26026  0.56803  1.0000
  C   C1226     1.0  0.86016  0.27450  0.55623  1.0000
  C   C1227     1.0  0.84024  0.23502  0.56704  1.0000
  C   C1228     1.0  0.84913  0.26327  0.54282  1.0000
  C   C1229     1.0  0.82887  0.22317  0.55382  1.0000
  C   C1230     1.0  0.83355  0.23740  0.54162  1.0000
  C   C1231     1.0  0.86820  0.27211  0.58196  1.0000
  H   H1221     1.0  0.87249  0.29459  0.55703  1.0000
  H   H1222     1.0  0.83691  0.22371  0.57641  1.0000
  H   H1223     1.0  0.85305  0.27454  0.53341  1.0000
  H   H1224     1.0  0.81695  0.20298  0.55303  1.0000
  H   H1225     1.0  0.82522  0.22835  0.53126  1.0000
  H   H1226     1.0  0.88537  0.29020  0.58063  1.0000
  H   H1227     1.0  0.85516  0.27574  0.58854  1.0000
  H   H1228     1.0  0.87404  0.25984  0.58784  1.0000
  H   H1229     1.0  0.74423  0.38140  0.68717  1.0000
  C   C1232     1.0  0.93354  0.21326  0.59070  1.0000
  C   C1233     1.0  0.97006  0.19973  0.58456  1.0000
  H   H1230     1.0  0.77990  0.08426  0.51724  1.0000
  H   H1231     1.0  0.98392  0.36848  0.57883  1.0000
  H   H1232     1.0  0.91920  0.21856  0.59296  1.0000
  H   H1233     1.0  0.77020  0.06690  0.49337  1.0000
  C   C1234     1.0  0.67768  0.33572  0.72974  1.0000
  C   C1235     1.0  0.76764  0.06605  0.52205  1.0000
  C   C1236     1.0  0.98434  0.00827  0.72725  1.0000
  N   N103      1.0  0.97946  0.47697  0.73670  1.0000
  H   H1234     1.0  0.74522  0.35588  0.69633  1.0000
  C   C1237     1.0  0.97905  0.40806  0.60363  1.0000
  C   C1238     1.0  0.97408  0.39745  0.57422  1.0000
  H   H1235     1.0  0.82931  0.41823  0.67759  1.0000
  H   H1236     1.0  0.94723  0.22887  0.62050  1.0000
  H   H1237     1.0  0.96200  0.46279  0.66849  1.0000
  H   H1238     1.0  0.96893  0.43809  0.73516  1.0000
  N   N104      1.0  0.95500  0.22272  0.59911  1.0000
  H   H1239     1.0  0.75063  0.06661  0.52569  1.0000
  S   S409      1.0  0.98872  0.02598  0.71175  1.0000
  N   N105      1.0  0.77053  0.37035  0.67939  1.0000
  Fe  Fe207     1.0  0.98847  0.01166  0.68889  1.0000
  C   C1239     1.0  0.96958  0.41636  0.58014  1.0000
  C   C1240     1.0  0.84199  0.47687  0.60956  1.0000
  C   C1241     1.0  0.77264  0.35265  0.67096  1.0000
  C   C1242     1.0  0.79304  0.99869  0.59968  1.0000
  C   C1243     1.0  0.97339  0.47858  0.67574  1.0000
  C   C1244     1.0  0.98120  0.38374  0.58327  1.0000
  C   C1245     1.0  0.74660  0.36438  0.68573  1.0000
  H   H1240     1.0  0.79660  0.34435  0.65759  1.0000
  C   C1246     1.0  0.81364  0.39951  0.67602  1.0000
  H   H1241     1.0  0.68867  0.28983  0.70376  1.0000
  H   H1242     1.0  0.80177  0.00421  0.63596  1.0000
  H   H1243     1.0  0.75645  0.33459  0.66848  1.0000
  S   S410      1.0  0.67271  0.08150  0.57732  1.0000
  C   C1247     1.0  0.97673  0.28878  0.50387  1.0000
  H   H1244     1.0  0.78905  0.40750  0.68874  1.0000
  C   C1248     1.0  0.75050  0.02098  0.51700  1.0000
  H   H1245     1.0  0.95215  0.25367  0.60835  1.0000
  H   H1246     1.0  0.94607  0.17819  0.56646  1.0000
  H   H1247     1.0  0.96425  0.46391  0.71543  1.0000
  H   H1248     1.0  0.84791  0.46043  0.59012  1.0000
  H   H1249     1.0  0.91298  0.18983  0.57214  1.0000
  C   C1249     1.0  0.95823  0.23969  0.61142  1.0000
  H   H1250     1.0  0.68084  0.26035  0.71191  1.0000
  S   S411      1.0  0.73620  0.01840  0.59801  1.0000
  C   C1250     1.0  0.84843  0.47699  0.59522  1.0000
  H   H1251     1.0  0.97820  0.25073  0.61500  1.0000
  H   H1252     1.0  0.98038  0.41160  0.61518  1.0000
  H   H1253     1.0  0.78912  0.00771  0.59078  1.0000
  H   H1254     1.0  0.79492  0.02608  0.61553  1.0000
  H   H1255     1.0  0.83599  0.45983  0.61542  1.0000
  C   C1251     1.0  0.99285  0.31440  0.50650  1.0000
  H   H1256     1.0  0.96350  0.42656  0.57308  1.0000
  N   N106      1.0  0.97188  0.42129  0.59468  1.0000
  H   H1257     1.0  0.96560  0.44059  0.61247  1.0000
  H   H1258     1.0  0.98157  0.45977  0.59770  1.0000
  H   H1259     1.0  0.98888  0.37821  0.60520  1.0000
  H   H1260     1.0  0.99026  0.45921  0.68693  1.0000
  H   H1261     1.0  0.67206  0.26068  0.69342  1.0000
  C   C1252     1.0  0.98800  0.02027  0.74088  1.0000
  S   S412      1.0  0.89817  0.48938  0.63469  1.0000
  C   C1253     1.0  0.68918  0.00249  0.51109  1.0000
  H   H1262     1.0  0.98990  0.22309  0.60308  1.0000
  C   C1254     1.0  0.98946  0.47662  0.68621  1.0000
  C   C1255     1.0  0.96858  0.47814  0.72392  1.0000
  C   C1256     1.0  0.98504  0.45620  0.73886  1.0000
  C   C1257     1.0  0.74262  0.00011  0.50752  1.0000
  C   C1258     1.0  0.67424  0.26988  0.70423  1.0000
  H   H1263     1.0  0.99329  0.32297  0.51690  1.0000
  Fe  Fe208     1.0  0.70240  0.05938  0.91484  1.0000
  S   S413      1.0  0.73359  0.05353  0.90557  1.0000
  S   S414      1.0  0.68000  0.06804  0.89764  1.0000
  Fe  Fe209     1.0  0.71584  0.05117  0.94563  1.0000
  S   S415      1.0  0.74750  0.04524  0.93828  1.0000
  S   S416      1.0  0.71056  0.05344  0.96987  1.0000
  Fe  Fe210     1.0  0.75758  0.07811  0.92424  1.0000
  S   S417      1.0  0.79982  0.10287  0.92267  1.0000
  Fe  Fe211     1.0  0.72141  0.02126  0.92017  1.0000
  S   S418      1.0  0.72754  0.08604  0.93271  1.0000
  S   S419      1.0  0.68863  0.02512  0.92836  1.0000
  Fe  Fe212     1.0  0.91136  0.24735  0.92413  1.0000
  S   S420      1.0  0.93082  0.28374  0.93770  1.0000
  S   S421      1.0  0.86902  0.22218  0.92562  1.0000
  Fe  Fe213     1.0  0.95900  0.25873  0.90813  1.0000
  H   H1264     1.0  0.95396  0.45487  0.91025  1.0000
  S   S422      1.0  0.97381  0.24500  0.88945  1.0000
  Fe  Fe214     1.0  0.96245  0.27443  0.94009  1.0000
  C   C1259     1.0  0.68980  0.26900  0.83556  1.0000
  Fe  Fe215     1.0  0.94795  0.30187  0.91703  1.0000
  S   S423      1.0  0.95949  0.34198  0.91013  1.0000
  S   S424      1.0  0.94205  0.23703  0.92783  1.0000
  S   S425      1.0  0.92678  0.26646  0.90341  1.0000
  Fe  Fe216     1.0  0.69428  0.34163  0.81979  1.0000
  S   S426      1.0  0.68370  0.36578  0.80622  1.0000
  S   S427      1.0  0.73256  0.34473  0.82549  1.0000
  H   H1265     1.0  0.76455  0.07356  0.96996  1.0000
  C   C1260     1.0  0.87677  0.45768  0.90958  1.0000
  H   H1266     1.0  0.85302  0.41761  0.90885  1.0000
  H   H1267     1.0  0.67523  0.41566  0.80344  1.0000
  Fe  Fe217     1.0  0.87599  0.44621  0.84920  1.0000
  S   S428      1.0  0.88673  0.44866  0.87266  1.0000
  S   S429      1.0  0.83791  0.44119  0.84122  1.0000
  Fe  Fe218     1.0  0.92898  0.45910  0.83997  1.0000
  S   S430      1.0  0.94310  0.46212  0.86300  1.0000
  S   S431      1.0  0.95027  0.45774  0.82013  1.0000
  Fe  Fe219     1.0  0.90719  0.42708  0.86650  1.0000
  S   S432      1.0  0.89936  0.39202  0.87919  1.0000
  H   H1268     1.0  0.98610  0.16897  0.85911  1.0000
  S   S433      1.0  0.89406  0.42258  0.84324  1.0000
  S   S434      1.0  0.91000  0.48269  0.84434  1.0000
  C   C1261     1.0  0.81932  0.12130  0.95965  1.0000
  C   C1262     1.0  0.97179  0.48065  0.80869  1.0000
  S   S435      1.0  0.98884  0.27898  0.95925  1.0000
  N   N107      1.0  0.91591  0.44648  0.90687  1.0000
  C   C1263     1.0  0.76146  0.37185  0.83023  1.0000
  C   C1264     1.0  0.76475  0.39620  0.82901  1.0000
  C   C1265     1.0  0.78819  0.41710  0.83254  1.0000
  C   C1266     1.0  0.80859  0.41401  0.83747  1.0000
  C   C1267     1.0  0.80525  0.38966  0.83882  1.0000
  C   C1268     1.0  0.78189  0.36876  0.83513  1.0000
  H   H1269     1.0  0.74927  0.39893  0.82526  1.0000
  H   H1270     1.0  0.79047  0.43581  0.83149  1.0000
  H   H1271     1.0  0.82060  0.38688  0.84273  1.0000
  H   H1272     1.0  0.77957  0.35004  0.83616  1.0000
  H   H1273     1.0  0.92289  0.47940  0.80552  1.0000
  H   H1274     1.0  0.70832  0.33635  0.74218  1.0000
  H   H1275     1.0  0.79275  0.16884  0.95201  1.0000
  H   H1276     1.0  0.68825  0.33177  0.76570  1.0000
  C   C1269     1.0  0.68397  0.28554  0.84319  1.0000
  C   C1270     1.0  0.94233  0.35518  0.90125  1.0000
  C   C1271     1.0  0.95547  0.37901  0.89540  1.0000
  C   C1272     1.0  0.94280  0.39028  0.88824  1.0000
  C   C1273     1.0  0.91668  0.37808  0.88709  1.0000
  C   C1274     1.0  0.90357  0.35420  0.89289  1.0000
  C   C1275     1.0  0.91625  0.34272  0.89980  1.0000
  H   H1277     1.0  0.97564  0.38886  0.89639  1.0000
  H   H1278     1.0  0.95327  0.40851  0.88376  1.0000
  H   H1279     1.0  0.88337  0.34451  0.89209  1.0000
  H   H1280     1.0  0.90580  0.32440  0.90420  1.0000
  C   C1276     1.0  0.89096  0.48585  0.80571  1.0000
  C   C1277     1.0  0.70294  0.02910  0.98226  1.0000
  H   H1281     1.0  0.80878  0.08394  0.96642  1.0000
  C   C1278     1.0  0.81860  0.13609  0.92259  1.0000
  C   C1279     1.0  0.80829  0.15243  0.92258  1.0000
  C   C1280     1.0  0.82401  0.17865  0.92341  1.0000
  C   C1281     1.0  0.85022  0.18893  0.92405  1.0000
  C   C1282     1.0  0.86049  0.17256  0.92385  1.0000
  C   C1283     1.0  0.84478  0.14635  0.92317  1.0000
  H   H1282     1.0  0.78824  0.14489  0.92196  1.0000
  H   H1283     1.0  0.81584  0.19111  0.92346  1.0000
  H   H1284     1.0  0.88057  0.18012  0.92436  1.0000
  H   H1285     1.0  0.85302  0.13395  0.92317  1.0000
  H   H1286     1.0  0.80484  0.06913  0.87802  1.0000
  H   H1287     1.0  0.68269  0.23083  0.83286  1.0000
  N   N108      1.0  0.96782  0.30863  0.87584  1.0000
  H   H1288     1.0  0.66125  0.28918  0.85953  1.0000
  H   H1289     1.0  0.85582  0.39660  0.80437  1.0000
  H   H1290     1.0  0.83138  0.44044  0.80932  1.0000
  H   H1291     1.0  0.99006  0.01700  0.76390  1.0000
  H   H1292     1.0  0.93208  0.42204  0.90879  1.0000
  C   C1284     1.0  0.77779  0.09187  0.96633  1.0000
  C   C1285     1.0  0.80261  0.09774  0.96440  1.0000
  H   H1293     1.0  0.83854  0.12593  0.95779  1.0000
  C   C1286     1.0  0.78451  0.01424  0.91347  1.0000
  C   C1287     1.0  0.76991  0.10956  0.96321  1.0000
  C   C1288     1.0  0.89193  0.42746  0.90732  1.0000
  H   H1294     1.0  0.93957  0.48603  0.90661  1.0000
  H   H1295     1.0  0.66439  0.47905  0.87039  1.0000
  C   C1289     1.0  0.95245  0.28483  0.87045  1.0000
  C   C1290     1.0  0.96035  0.32666  0.87529  1.0000
  C   C1291     1.0  0.92836  0.27822  0.86509  1.0000
  C   C1292     1.0  0.93645  0.32076  0.86995  1.0000
  C   C1293     1.0  0.92028  0.29630  0.86497  1.0000
  S   S436      1.0  0.98116  0.29517  0.92042  1.0000
  C   C1294     1.0  0.66542  0.41852  0.79402  1.0000
  H   H1296     1.0  0.89804  0.43382  0.80841  1.0000
  H   H1297     1.0  0.91597  0.25910  0.86129  1.0000
  H   H1298     1.0  0.93037  0.33499  0.86996  1.0000
  H   H1299     1.0  0.90151  0.29136  0.86109  1.0000
  H   H1300     1.0  0.79686  0.02591  0.87322  1.0000
  H   H1301     1.0  0.77263  0.05770  0.88276  1.0000
  H   H1302     1.0  0.82396  0.15675  0.95284  1.0000
  H   H1303     1.0  0.85027  0.40412  0.82241  1.0000
  C   C1295     1.0  0.90276  0.47094  0.80605  1.0000
  N   N109      1.0  0.79121  0.04021  0.89322  1.0000
  H   H1304     1.0  0.98265  0.34107  0.93898  1.0000
  H   H1305     1.0  0.85573  0.48619  0.80691  1.0000
  H   H1306     1.0  0.93962  0.44032  0.89296  1.0000
  S   S437      1.0  0.66607  0.30525  0.80841  1.0000
  C   C1296     1.0  0.90124  0.47692  0.90895  1.0000
  H   H1307     1.0  0.82862  0.40005  0.80789  1.0000
  H   H1308     1.0  0.76435  0.14271  0.94501  1.0000
  C   C1297     1.0  0.77726  0.15022  0.95463  1.0000
  H   H1309     1.0  0.97266  0.34562  0.87940  1.0000
  C   C1298     1.0  0.98666  0.00739  0.75349  1.0000
  C   C1299     1.0  0.98339  0.47306  0.79815  1.0000
  C   C1300     1.0  0.78630  0.03592  0.90744  1.0000
  H   H1310     1.0  0.67433  0.41674  0.78407  1.0000
  H   H1311     1.0  0.79790  0.07816  0.89505  1.0000
  C   C1301     1.0  0.97435  0.29702  0.98316  1.0000
  H   H1312     1.0  0.75043  0.10460  0.96445  1.0000
  H   H1313     1.0  0.97972  0.45374  0.79752  1.0000
  C   C1302     1.0  0.69561  0.00433  0.97769  1.0000
  H   H1314     1.0  0.78329  0.04908  0.91415  1.0000
  C   C1303     1.0  0.87203  0.43275  0.90877  1.0000
  C   C1304     1.0  0.67869  0.33253  0.75593  1.0000
  H   H1315     1.0  0.88803  0.40803  0.90623  1.0000
  H   H1316     1.0  0.76718  0.15309  0.96369  1.0000
  H   H1317     1.0  0.95941  0.29640  0.97635  1.0000
  C   C1305     1.0  0.81088  0.13866  0.95680  1.0000
  S   S438      1.0  0.97717  0.01177  0.79871  1.0000
  Fe  Fe220     1.0  0.92173  0.48362  0.86762  1.0000
  S   S439      1.0  0.66845  0.33910  0.83736  1.0000
  N   N110      1.0  0.78637  0.13255  0.95844  1.0000
  H   H1318     1.0  0.77953  0.01039  0.92459  1.0000
  N   N111      1.0  0.86314  0.43433  0.80845  1.0000
  C   C1306     1.0  0.88853  0.44510  0.80761  1.0000
  C   C1307     1.0  0.85138  0.44880  0.80800  1.0000
  C   C1308     1.0  0.79166  0.06235  0.88692  1.0000
  C   C1309     1.0  0.86509  0.47475  0.80672  1.0000
  C   C1310     1.0  0.66659  0.27661  0.85392  1.0000
  C   C1311     1.0  0.84876  0.40743  0.81084  1.0000
  H   H1319     1.0  0.98172  0.18459  0.88162  1.0000
  C   C1312     1.0  0.79403  0.02310  0.88463  1.0000
  H   H1320     1.0  0.86149  0.46210  0.91034  1.0000
  S   S440      1.0  0.99222  0.00234  0.83136  1.0000
  C   C1313     1.0  0.92069  0.47094  0.90754  1.0000
  H   H1321     1.0  0.95854  0.27065  0.87056  1.0000
  H   H1322     1.0  0.70318  0.27593  0.82712  1.0000
  C   C1314     1.0  0.93644  0.44068  0.90465  1.0000
  H   H1323     1.0  0.69505  0.99969  0.96634  1.0000
  H   H1324     1.0  0.66795  0.43791  0.79484  1.0000
  H   H1325     1.0  0.69276  0.30521  0.84068  1.0000
  C   C1315     1.0  0.67814  0.24363  0.83885  1.0000
  C   C1316     1.0  0.79258  0.00131  0.89033  1.0000
  H   H1326     1.0  0.91797  0.00584  0.77061  1.0000
  H   H1327     1.0  0.96731  0.35641  0.95941  1.0000
  C   C1317     1.0  0.99048  0.28872  0.97762  1.0000
  H   H1328     1.0  0.72916  0.99915  0.88669  1.0000
  C   C1318     1.0  0.99201  0.34476  0.94952  1.0000
  H   H1329     1.0  0.98931  0.45478  0.75037  1.0000
  C   C1319     1.0  0.69000  0.33509  0.74258  1.0000
  H   H1330     1.0  0.66289  0.20537  0.86014  1.0000
  H   H1331     1.0  0.99243  0.03980  0.74168  1.0000
  C   C1320     1.0  0.98344  0.35345  0.96099  1.0000
  C   C1321     1.0  0.99278  0.31521  0.88178  1.0000
  H   H1332     1.0  0.99372  0.29841  0.88561  1.0000
  H   H1333     1.0  0.98882  0.36436  0.98358  1.0000
  C   C1322     1.0  0.98623  0.49567  0.74708  1.0000
  H   H1334     1.0  0.90516  0.49639  0.90907  1.0000
  N   N112      1.0  0.66106  0.23500  0.84939  1.0000
  S   S441      1.0  0.69535  0.94562  0.05020  1.0000
  H   H1335     1.0  0.72249  0.77761  0.08772  1.0000
  Fe  Fe221     1.0  0.69446  0.96722  0.07000  1.0000
  S   S442      1.0  0.70280  0.75089  0.05773  1.0000
  H   H1336     1.0  0.75382  0.96553  0.02394  1.0000
  H   H1337     1.0  0.79191  0.62643  0.17238  1.0000
  S   S443      1.0  0.71298  0.70543  0.08463  1.0000
  H   H1338     1.0  0.72510  0.80340  0.09905  1.0000
  N   N113      1.0  0.73687  0.77886  0.10886  1.0000
  H   H1339     1.0  0.76770  0.81539  0.10695  1.0000
  C   C1323     1.0  0.95218  0.68626  0.11119  1.0000
  Fe  Fe222     1.0  0.97365  0.97415  0.16122  1.0000
  S   S444      1.0  0.94107  0.93787  0.15196  1.0000
  H   H1340     1.0  0.77925  0.59762  0.19252  1.0000
  Fe  Fe223     1.0  0.88758  0.74480  0.12176  1.0000
  S   S445      1.0  0.89965  0.75666  0.14498  1.0000
  S   S446      1.0  0.90209  0.72554  0.10596  1.0000
  Fe  Fe224     1.0  0.84988  0.76523  0.12183  1.0000
  S   S447      1.0  0.85990  0.77928  0.14492  1.0000
  S   S448      1.0  0.82464  0.77540  0.10798  1.0000
  Fe  Fe225     1.0  0.89985  0.79287  0.13933  1.0000
  S   S449      1.0  0.93446  0.82963  0.14630  1.0000
  Fe  Fe226     1.0  0.85867  0.74199  0.14893  1.0000
  S   S450      1.0  0.83631  0.72259  0.16859  1.0000
  S   S451      1.0  0.89012  0.78163  0.11593  1.0000
  S   S452      1.0  0.84627  0.72729  0.12602  1.0000
  Fe  Fe227     1.0  0.80969  0.61622  0.22682  1.0000
  S   S453      1.0  0.78257  0.57560  0.22231  1.0000
  S   S454      1.0  0.83242  0.63532  0.20734  1.0000
  C   C1324     1.0  0.76626  0.73076  0.05350  1.0000
  C   C1325     1.0  0.97780  0.75485  0.11012  1.0000
  H   H1341     1.0  0.79633  0.80725  0.12263  1.0000
  S   S455      1.0  0.71639  0.56857  0.23139  1.0000
  C   C1326     1.0  0.94148  0.66996  0.09922  1.0000
  C   C1327     1.0  0.67160  0.85783  0.07137  1.0000
  C   C1328     1.0  0.98367  0.74554  0.09760  1.0000
  H   H1342     1.0  0.89677  0.56012  0.23118  1.0000
  C   C1329     1.0  0.97914  0.82711  0.11965  1.0000
  C   C1330     1.0  0.74931  0.63110  0.20104  1.0000
  S   S456      1.0  0.67659  0.96553  0.01451  1.0000
  H   H1343     1.0  0.68803  0.87958  0.03244  1.0000
  H   H1344     1.0  0.83171  0.50490  0.22445  1.0000
  C   C1331     1.0  0.86005  0.50734  0.23977  1.0000
  H   H1345     1.0  0.71253  0.94843  0.01136  1.0000
  C   C1332     1.0  0.83471  0.66094  0.19736  1.0000
  C   C1333     1.0  0.84839  0.66685  0.18475  1.0000
  C   C1334     1.0  0.84984  0.68623  0.17606  1.0000
  C   C1335     1.0  0.83762  0.69997  0.17991  1.0000
  C   C1336     1.0  0.82418  0.69424  0.19263  1.0000
  C   C1337     1.0  0.82271  0.67485  0.20131  1.0000
  H   H1346     1.0  0.85778  0.65625  0.18158  1.0000
  H   H1347     1.0  0.86012  0.69030  0.16628  1.0000
  H   H1348     1.0  0.81466  0.70476  0.19571  1.0000
  H   H1349     1.0  0.81219  0.67060  0.21099  1.0000
  C   C1338     1.0  0.94007  0.90822  0.14966  1.0000
  C   C1339     1.0  0.91709  0.88707  0.14592  1.0000
  C   C1340     1.0  0.91510  0.86294  0.14464  1.0000
  C   C1341     1.0  0.93618  0.85973  0.14701  1.0000
  C   C1342     1.0  0.95927  0.88093  0.15050  1.0000
  C   C1343     1.0  0.96121  0.90505  0.15189  1.0000
  H   H1350     1.0  0.90065  0.88935  0.14410  1.0000
  H   H1351     1.0  0.89724  0.84682  0.14190  1.0000
  H   H1352     1.0  0.97570  0.87866  0.15233  1.0000
  Fe  Fe228     1.0  0.75735  0.58021  0.23810  1.0000
  H   H1353     1.0  0.71534  0.65635  0.04818  1.0000
  C   C1344     1.0  0.72054  0.78331  0.09885  1.0000
  H   H1354     1.0  0.93386  0.79722  0.09364  1.0000
  H   H1355     1.0  0.69062  0.66321  0.04286  1.0000
  C   C1345     1.0  0.96436  0.73005  0.08783  1.0000
  C   C1346     1.0  0.93948  0.72411  0.09057  1.0000
  C   C1347     1.0  0.93369  0.73383  0.10297  1.0000
  C   C1348     1.0  0.95301  0.74925  0.11275  1.0000
  H   H1356     1.0  0.92204  0.66355  0.09608  1.0000
  H   H1357     1.0  0.96857  0.72272  0.07816  1.0000
  H   H1358     1.0  0.92463  0.71207  0.08297  1.0000
  H   H1359     1.0  0.94880  0.75667  0.12239  1.0000
  C   C1349     1.0  0.98124  0.67155  0.09513  1.0000
  C   C1350     1.0  0.74466  0.72464  0.09013  1.0000
  C   C1351     1.0  0.75808  0.74942  0.08597  1.0000
  C   C1352     1.0  0.78294  0.76437  0.09108  1.0000
  C   C1353     1.0  0.79457  0.75479  0.10043  1.0000
  C   C1354     1.0  0.78135  0.72979  0.10424  1.0000
  C   C1355     1.0  0.75653  0.71478  0.09908  1.0000
  H   H1360     1.0  0.74928  0.75713  0.07895  1.0000
  H   H1361     1.0  0.79308  0.78369  0.08805  1.0000
  H   H1362     1.0  0.79009  0.72219  0.11142  1.0000
  H   H1363     1.0  0.74632  0.69557  0.10228  1.0000
  H   H1364     1.0  0.71013  0.74058  0.11144  1.0000
  H   H1365     1.0  0.72886  0.89609  0.04542  1.0000
  H   H1366     1.0  0.70167  0.66836  0.06128  1.0000
  H   H1367     1.0  0.99244  0.66571  0.08874  1.0000
  S   S457      1.0  0.67452  0.98524  0.05829  1.0000
  H   H1368     1.0  0.70064  0.77251  0.10165  1.0000
  H   H1369     1.0  0.94807  0.65014  0.08166  1.0000
  H   H1370     1.0  0.94656  0.86105  0.18138  1.0000
  H   H1371     1.0  0.76343  0.65432  0.15878  1.0000
  C   C1356     1.0  0.76081  0.79733  0.11179  1.0000
  C   C1357     1.0  0.66472  0.54294  0.23028  1.0000
  C   C1358     1.0  0.84177  0.51351  0.23450  1.0000
  H   H1372     1.0  0.86392  0.55050  0.21229  1.0000
  H   H1373     1.0  0.76215  0.93945  0.04125  1.0000
  N   N114      1.0  0.97046  0.80070  0.09343  1.0000
  C   C1359     1.0  0.67284  0.81795  0.06912  1.0000
  C   C1360     1.0  0.95017  0.87984  0.18468  1.0000
  C   C1361     1.0  0.84359  0.57909  0.20449  1.0000
  C   C1362     1.0  0.68855  0.99085  0.00260  1.0000
  H   H1374     1.0  0.70633  0.69896  0.02928  1.0000
  C   C1363     1.0  0.67282  0.90365  0.01461  1.0000
  C   C1364     1.0  0.72863  0.75567  0.11440  1.0000
  H   H1375     1.0  0.66620  0.55619  0.22230  1.0000
  C   C1365     1.0  0.77962  0.62763  0.18027  1.0000
  Fe  Fe229     1.0  0.68877  0.71747  0.07146  1.0000
  H   H1376     1.0  0.73801  0.73209  0.12746  1.0000
  C   C1366     1.0  0.77251  0.61124  0.19163  1.0000
  C   C1367     1.0  0.75721  0.61298  0.20204  1.0000
  C   C1368     1.0  0.87222  0.56861  0.21801  1.0000
  C   C1369     1.0  0.93147  0.88689  0.18292  1.0000
  H   H1377     1.0  0.67292  0.91389  0.00484  1.0000
  C   C1370     1.0  0.89072  0.57390  0.22873  1.0000
  H   H1378     1.0  0.97902  0.92115  0.15474  1.0000
  Fe  Fe230     1.0  0.67257  0.75782  0.06693  1.0000
  C   C1371     1.0  0.77705  0.79296  0.12074  1.0000
  C   C1372     1.0  0.74433  0.75071  0.12346  1.0000
  S   S458      1.0  0.72972  0.98403  0.08468  1.0000
  C   C1373     1.0  0.97751  0.69519  0.11478  1.0000
  C   C1374     1.0  0.76868  0.76951  0.12662  1.0000
  C   C1375     1.0  0.67579  0.68683  0.00321  1.0000
  H   H1379     1.0  0.75153  0.60039  0.21091  1.0000
  S   S459      1.0  0.81238  0.53683  0.23519  1.0000
  H   H1380     1.0  0.94694  0.77078  0.07879  1.0000
  Fe  Fe231     1.0  0.67291  0.96118  0.03894  1.0000
  H   H1381     1.0  0.78292  0.73964  0.06051  1.0000
  H   H1382     1.0  0.78148  0.76562  0.13306  1.0000
  C   C1376     1.0  0.91627  0.91779  0.18459  1.0000
  H   H1383     1.0  0.92412  0.93812  0.18261  1.0000
  Fe  Fe232     1.0  0.80167  0.56765  0.24096  1.0000
  C   C1377     1.0  0.90060  0.59661  0.23665  1.0000
  N   N115      1.0  0.86408  0.58564  0.21512  1.0000
  C   C1378     1.0  0.70257  0.89828  0.03034  1.0000
  C   C1379     1.0  0.66163  0.81393  0.05534  1.0000
  H   H1384     1.0  0.73820  0.74207  0.02469  1.0000
  C   C1380     1.0  0.97377  0.89747  0.19010  1.0000
  C   C1381     1.0  0.72313  0.70771  0.03613  1.0000
  C   C1382     1.0  0.68797  0.71306  0.00338  1.0000
  S   S460      1.0  0.67956  0.79537  0.07719  1.0000
  C   C1383     1.0  0.77872  0.66191  0.16716  1.0000
  C   C1384     1.0  0.76285  0.74376  0.04224  1.0000
  C   C1385     1.0  0.67796  0.84009  0.07703  1.0000
  H   H1385     1.0  0.99259  0.76671  0.11781  1.0000
  C   C1386     1.0  0.72570  0.90752  0.03769  1.0000
  H   H1386     1.0  0.89948  0.63148  0.23982  1.0000
  S   S461      1.0  0.96611  0.99150  0.18092  1.0000
  Fe  Fe233     1.0  0.67333  0.72495  0.04132  1.0000
  H   H1387     1.0  0.90495  0.91335  0.19431  1.0000
  C   C1387     1.0  0.74432  0.93181  0.03535  1.0000
  N   N116      1.0  0.77187  0.64542  0.17939  1.0000
  N   N117      1.0  0.93619  0.91085  0.18642  1.0000
  C   C1388     1.0  0.98049  0.66901  0.99685  1.0000
  N   N118      1.0  0.72653  0.69516  0.04726  1.0000
  H   H1388     1.0  0.73751  0.63256  0.20918  1.0000
  H   H1389     1.0  0.77690  0.76281  0.04035  1.0000
  H   H1390     1.0  0.90409  0.90782  0.17496  1.0000
  C   C1389     1.0  0.71626  0.93662  0.01851  1.0000
  C   C1390     1.0  0.75681  0.64723  0.18955  1.0000
  H   H1391     1.0  0.94115  0.69269  0.11732  1.0000
  C   C1391     1.0  0.70760  0.66948  0.04999  1.0000
  C   C1392     1.0  0.95607  0.66255  0.09111  1.0000
  H   H1392     1.0  0.94163  0.82135  0.11677  1.0000
  C   C1393     1.0  0.68671  0.54444  0.23661  1.0000
  N   N119      1.0  0.99164  0.68771  0.10682  1.0000
  C   C1394     1.0  0.74119  0.73217  0.03346  1.0000
  H   H1393     1.0  0.82548  0.56947  0.20985  1.0000
  H   H1394     1.0  0.68666  0.84345  0.08769  1.0000
  N   N120      1.0  0.69802  0.91285  0.02098  1.0000
  H   H1395     1.0  0.96270  0.94688  0.19525  1.0000
  H   H1396     1.0  0.98222  0.83711  0.12997  1.0000
  C   C1395     1.0  0.74779  0.70632  0.05586  1.0000
  C   C1396     1.0  0.89218  0.61387  0.23363  1.0000
  H   H1397     1.0  0.84486  0.59609  0.19945  1.0000
  C   C1397     1.0  0.95201  0.80464  0.09915  1.0000
  H   H1398     1.0  0.75031  0.69648  0.06481  1.0000
  H   H1399     1.0  0.75066  0.66132  0.18886  1.0000
  H   H1400     1.0  0.91341  0.87328  0.17830  1.0000
  H   H1401     1.0  0.96737  0.80002  0.07068  1.0000
  C   C1398     1.0  0.97824  0.92170  0.19394  1.0000
  S   S462      1.0  0.68677  0.73175  0.01819  1.0000
  H   H1402     1.0  0.67533  0.87459  0.07768  1.0000
  H   H1403     1.0  0.98597  0.70862  0.12376  1.0000
  H   H1404     1.0  0.84389  0.56646  0.19573  1.0000
  H   H1405     1.0  0.78264  0.68119  0.17065  1.0000
  H   H1406     1.0  0.96959  0.64894  0.99772  1.0000
  H   H1407     1.0  0.97944  0.78015  0.07765  1.0000
  H   H1408     1.0  0.79613  0.66397  0.16233  1.0000
  C   C1399     1.0  0.87382  0.60805  0.22275  1.0000
  C   C1400     1.0  0.96588  0.78733  0.07943  1.0000
  C   C1401     1.0  0.95905  0.92804  0.19215  1.0000
  C   C1402     1.0  0.73968  0.94644  0.02563  1.0000
  H   H1409     1.0  0.86708  0.62140  0.22062  1.0000
  C   C1403     1.0  0.95616  0.81805  0.11227  1.0000
  H   H1410     1.0  0.66497  0.67721  0.01226  1.0000
  S   S463      1.0  0.97269  0.51053  0.21261  1.0000
  H   H1411     1.0  0.66430  0.88336  0.01156  1.0000
  S   S464      1.0  0.78344  0.62190  0.24138  1.0000
  C   C1404     1.0  0.98719  0.50671  0.19701  1.0000
  H   H1412     1.0  0.98861  0.89243  0.19122  1.0000
  S   S465      1.0  0.66085  0.69073  0.05463  1.0000
  C   C1405     1.0  0.99332  0.81004  0.10042  1.0000
  H   H1413     1.0  0.66088  0.90642  0.02257  1.0000
  S   S466      1.0  0.66086  0.72618  0.08214  1.0000
  S   S467      1.0  0.95375  0.50370  0.25097  1.0000
  H   H1414     1.0  0.68372  0.89066  0.38212  1.0000
  S   S468      1.0  0.71010  0.96044  0.43561  1.0000
  C   C1406     1.0  0.67358  0.86087  0.43218  1.0000
  Fe  Fe234     1.0  0.70336  0.97033  0.41353  1.0000
  C   C1407     1.0  0.71938  0.69020  0.37611  1.0000
  H   H1415     1.0  0.87696  0.54307  0.27078  1.0000
  Fe  Fe235     1.0  0.67491  0.92384  0.43130  1.0000
  C   C1408     1.0  0.68547  0.98386  0.37483  1.0000
  H   H1416     1.0  0.87970  0.68466  0.35654  1.0000
  H   H1417     1.0  0.86429  0.65184  0.31362  1.0000
  H   H1418     1.0  0.89120  0.89057  0.33718  1.0000
  H   H1419     1.0  0.85947  0.86479  0.31815  1.0000
  Fe  Fe236     1.0  0.69828  0.72702  0.41948  1.0000
  S   S469      1.0  0.73673  0.73021  0.41563  1.0000
  S   S470      1.0  0.69201  0.74972  0.43712  1.0000
  C   C1409     1.0  0.69669  0.68855  0.37141  1.0000
  C   C1410     1.0  0.68599  0.84830  0.43798  1.0000
  Fe  Fe237     1.0  0.97377  0.96963  0.31092  1.0000
  S   S471      1.0  0.94810  0.92738  0.30868  1.0000
  Fe  Fe238     1.0  0.88825  0.75082  0.36316  1.0000
  S   S472      1.0  0.90893  0.77255  0.34430  1.0000
  S   S473      1.0  0.90196  0.72854  0.37681  1.0000
  Fe  Fe239     1.0  0.84338  0.76029  0.35717  1.0000
  S   S474      1.0  0.86126  0.78239  0.33769  1.0000
  S   S475      1.0  0.80555  0.75874  0.36104  1.0000
  Fe  Fe240     1.0  0.87163  0.75213  0.33222  1.0000
  S   S476      1.0  0.87020  0.73836  0.30896  1.0000
  Fe  Fe241     1.0  0.89668  0.80083  0.35125  1.0000
  S   S477      1.0  0.92167  0.84312  0.35472  1.0000
  S   S478      1.0  0.85143  0.72871  0.35064  1.0000
  S   S479      1.0  0.87842  0.78041  0.37114  1.0000
  C   C1411     1.0  0.86733  0.53493  0.26055  1.0000
  Fe  Fe242     1.0  0.80150  0.61068  0.25919  1.0000
  S   S480      1.0  0.77423  0.56910  0.25652  1.0000
  S   S481      1.0  0.80980  0.62667  0.28240  1.0000
  H   H1420     1.0  0.97859  0.88204  0.31735  1.0000
  H   H1421     1.0  0.84537  0.55458  0.26120  1.0000
  H   H1422     1.0  0.99009  0.88096  0.34298  1.0000
  C   C1412     1.0  0.86997  0.66550  0.33563  1.0000
  C   C1413     1.0  0.85038  0.70775  0.30147  1.0000
  C   C1414     1.0  0.85058  0.70309  0.28659  1.0000
  C   C1415     1.0  0.83745  0.67852  0.28043  1.0000
  C   C1416     1.0  0.82407  0.65830  0.28914  1.0000
  C   C1417     1.0  0.82330  0.66308  0.30395  1.0000
  C   C1418     1.0  0.83623  0.68766  0.31008  1.0000
  H   H1423     1.0  0.86141  0.71851  0.27981  1.0000
  H   H1424     1.0  0.83820  0.67516  0.26903  1.0000
  H   H1425     1.0  0.81287  0.64759  0.31076  1.0000
  H   H1426     1.0  0.83584  0.69094  0.32152  1.0000
  H   H1427     1.0  0.71282  0.92824  0.39681  1.0000
  C   C1419     1.0  0.94058  0.90440  0.32177  1.0000
  C   C1420     1.0  0.92676  0.87893  0.31740  1.0000
  C   C1421     1.0  0.92095  0.85991  0.32731  1.0000
  C   C1422     1.0  0.92886  0.86622  0.34174  1.0000
  C   C1423     1.0  0.94249  0.89170  0.34615  1.0000
  C   C1424     1.0  0.94834  0.91073  0.33623  1.0000
  H   H1428     1.0  0.92065  0.87385  0.30623  1.0000
  H   H1429     1.0  0.91034  0.84039  0.32379  1.0000
  H   H1430     1.0  0.94858  0.89676  0.35731  1.0000
  H   H1431     1.0  0.95894  0.93025  0.33974  1.0000
  H   H1432     1.0  0.82559  0.80541  0.34755  1.0000
  H   H1433     1.0  0.73788  0.98753  0.48523  1.0000
  H   H1434     1.0  0.94976  0.75457  0.41672  1.0000
  C   C1425     1.0  0.97633  0.77150  0.38710  1.0000
  C   C1426     1.0  0.95185  0.76377  0.38166  1.0000
  C   C1427     1.0  0.93343  0.73886  0.38268  1.0000
  C   C1428     1.0  0.93991  0.72171  0.38896  1.0000
  C   C1429     1.0  0.96450  0.72939  0.39424  1.0000
  S   S482      1.0  0.66998  0.68963  0.42743  1.0000
  H   H1435     1.0  0.94715  0.77719  0.37690  1.0000
  N   N121      1.0  0.72635  0.90838  0.40980  1.0000
  C   C1430     1.0  0.75620  0.73965  0.40059  1.0000
  C   C1431     1.0  0.74984  0.74808  0.38811  1.0000
  C   C1432     1.0  0.76532  0.75405  0.37619  1.0000
  C   C1433     1.0  0.78732  0.75176  0.37659  1.0000
  C   C1434     1.0  0.79380  0.74360  0.38913  1.0000
  C   C1435     1.0  0.77831  0.73759  0.40104  1.0000
  H   H1436     1.0  0.73289  0.74972  0.38759  1.0000
  H   H1437     1.0  0.76011  0.76035  0.36655  1.0000
  H   H1438     1.0  0.81063  0.74173  0.38962  1.0000
  H   H1439     1.0  0.78344  0.73113  0.41064  1.0000
  H   H1440     1.0  0.73521  0.92816  0.42994  1.0000
  N   N122      1.0  0.96240  0.73786  0.43262  1.0000
  H   H1441     1.0  0.91767  0.72871  0.32100  1.0000
  S   S483      1.0  0.96072  0.99733  0.30429  1.0000
  C   C1436     1.0  0.68434  0.52704  0.24690  1.0000
  C   C1437     1.0  0.70314  0.66045  0.41173  1.0000
  C   C1438     1.0  0.90064  0.70883  0.33982  1.0000
  H   H1442     1.0  0.92584  0.70236  0.38973  1.0000
  H   H1443     1.0  0.71308  0.67667  0.41951  1.0000
  H   H1444     1.0  0.96927  0.71603  0.39901  1.0000
  H   H1445     1.0  0.82636  0.82187  0.32348  1.0000
  H   H1446     1.0  0.85149  0.83740  0.37795  1.0000
  C   C1439     1.0  0.69750  0.70388  0.47932  1.0000
  H   H1447     1.0  0.98507  0.79698  0.42121  1.0000
  H   H1448     1.0  0.91388  0.69079  0.29858  1.0000
  H   H1449     1.0  0.70580  0.71085  0.46915  1.0000
  H   H1450     1.0  0.68501  0.96700  0.37025  1.0000
  H   H1451     1.0  0.87707  0.83163  0.37303  1.0000
  C   C1440     1.0  0.72508  0.88572  0.41252  1.0000
  H   H1452     1.0  0.91107  0.72489  0.34713  1.0000
  H   H1453     1.0  0.76189  0.93259  0.41969  1.0000
  H   H1454     1.0  0.84552  0.80768  0.36988  1.0000
  C   C1441     1.0  0.89688  0.69264  0.30050  1.0000
  S   S484      1.0  0.67081  0.72928  0.40385  1.0000
  C   C1442     1.0  0.88311  0.68613  0.34511  1.0000
  C   C1443     1.0  0.69551  0.88913  0.39052  1.0000
  H   H1455     1.0  0.73904  0.68315  0.39330  1.0000
  H   H1456     1.0  0.97952  0.72600  0.44878  1.0000
  C   C1444     1.0  0.74271  0.93039  0.41897  1.0000
  S   S485      1.0  0.68104  0.98832  0.42166  1.0000
  C   C1445     1.0  0.98031  0.74165  0.44295  1.0000
  C   C1446     1.0  0.84941  0.54150  0.25515  1.0000
  H   H1457     1.0  0.89970  0.71109  0.29677  1.0000
  H   H1458     1.0  0.85612  0.64781  0.33961  1.0000
  H   H1459     1.0  0.70780  0.84617  0.40656  1.0000
  H   H1460     1.0  0.95059  0.70126  0.42383  1.0000
  C   C1447     1.0  0.94255  0.71229  0.42919  1.0000
  H   H1461     1.0  0.92778  0.71205  0.42182  1.0000
  H   H1462     1.0  0.68956  0.81431  0.43771  1.0000
  C   C1448     1.0  0.87273  0.51778  0.25294  1.0000
  C   C1449     1.0  0.68178  0.98078  0.48743  1.0000
  H   H1463     1.0  0.71392  0.64996  0.41096  1.0000
  C   C1450     1.0  0.90451  0.71076  0.32506  1.0000
  C   C1451     1.0  0.99080  0.68051  0.47724  1.0000
  H   H1464     1.0  0.97740  0.51889  0.33011  1.0000
  C   C1452     1.0  0.67263  0.69809  0.48133  1.0000
  N   N123      1.0  0.89160  0.69045  0.31584  1.0000
  H   H1465     1.0  0.69528  0.69634  0.36128  1.0000
  S   S486      1.0  0.68264  0.89205  0.43857  1.0000
  H   H1466     1.0  0.73592  0.88405  0.42143  1.0000
  C   C1453     1.0  0.69416  0.86595  0.39320  1.0000
  N   N124      1.0  0.85801  0.83823  0.35564  1.0000
  C   C1454     1.0  0.87593  0.86197  0.35290  1.0000
  C   C1455     1.0  0.83998  0.82416  0.34536  1.0000
  C   C1456     1.0  0.87652  0.87198  0.33944  1.0000
  C   C1457     1.0  0.84024  0.83343  0.33172  1.0000
  C   C1458     1.0  0.85873  0.85747  0.32875  1.0000
  C   C1459     1.0  0.85797  0.82827  0.36983  1.0000
  H   H1467     1.0  0.89041  0.87299  0.36099  1.0000
  N   N125      1.0  0.70059  0.66951  0.39766  1.0000
  H   H1468     1.0  0.68467  0.64772  0.41607  1.0000
  Fe  Fe243     1.0  0.68520  0.97572  0.44369  1.0000
  C   C1460     1.0  0.87470  0.66791  0.32095  1.0000
  C   C1461     1.0  0.67978  0.82366  0.43319  1.0000
  C   C1462     1.0  0.71191  0.91031  0.39893  1.0000
  H   H1469     1.0  0.93360  0.70299  0.43917  1.0000
  H   H1470     1.0  0.68117  0.84923  0.38698  1.0000
  H   H1471     1.0  0.70063  0.85777  0.44618  1.0000
  H   H1472     1.0  0.88099  0.67803  0.29386  1.0000
  H   H1473     1.0  0.67963  0.79762  0.47822  1.0000
  C   C1463     1.0  0.70917  0.86423  0.40418  1.0000
  C   C1464     1.0  0.96363  0.75755  0.42514  1.0000
  C   C1465     1.0  0.67595  0.67721  0.37993  1.0000
  S   S487      1.0  0.73256  0.98235  0.39630  1.0000
  H   H1474     1.0  0.99033  0.79092  0.38647  1.0000
  C   C1466     1.0  0.98279  0.75444  0.39349  1.0000
  H   H1475     1.0  0.98591  0.51750  0.28472  1.0000
  H   H1476     1.0  0.74406  0.94801  0.41474  1.0000
  C   C1467     1.0  0.72107  0.68078  0.38942  1.0000
  C   C1468     1.0  0.67822  0.66767  0.39308  1.0000
  H   H1477     1.0  0.67518  0.96351  0.48104  1.0000
  S   S488      1.0  0.89424  0.50897  0.26081  1.0000
  H   H1478     1.0  0.70094  0.52782  0.25189  1.0000
  S   S489      1.0  0.66937  0.93304  0.40862  1.0000
  C   C1469     1.0  0.97848  0.50151  0.32998  1.0000
  C   C1470     1.0  0.66512  0.98244  0.38216  1.0000
  C   C1471     1.0  0.98350  0.78170  0.42770  1.0000
  C   C1472     1.0  0.97680  0.66497  0.48829  1.0000
  H   H1479     1.0  0.73582  0.69949  0.36974  1.0000
  H   H1480     1.0  0.91451  0.60063  0.24522  1.0000
  H   H1481     1.0  0.97035  0.64499  0.48729  1.0000
  H   H1482     1.0  0.73097  0.70544  0.48881  1.0000
  S   S490      1.0  0.82981  0.60813  0.24492  1.0000
  Fe  Fe244     1.0  0.66232  0.71234  0.44413  1.0000
  H   H1483     1.0  0.66619  0.55840  0.26474  1.0000
  Fe  Fe245     1.0  0.66228  0.74927  0.42198  1.0000
  C   C1473     1.0  0.66329  0.78679  0.47121  1.0000
  C   C1474     1.0  0.71175  0.70078  0.49053  1.0000
  C   C1475     1.0  0.99204  0.89913  0.32310  1.0000
  H   H1484     1.0  0.66197  0.65900  0.39963  1.0000
  C   C1476     1.0  0.83629  0.53059  0.24216  1.0000
  C   C1477     1.0  0.66069  0.81108  0.42272  1.0000
  H   H1485     1.0  0.66133  0.81913  0.46349  1.0000
  Fe  Fe246     1.0  0.71251  0.67399  0.54052  1.0000
  S   S491      1.0  0.74240  0.69731  0.55744  1.0000
  S   S492      1.0  0.72061  0.68862  0.51769  1.0000
  Fe  Fe247     1.0  0.68224  0.63298  0.56223  1.0000
  S   S493      1.0  0.71024  0.65352  0.58026  1.0000
  C   C1478     1.0  0.97699  0.97006  0.73892  1.0000
  Fe  Fe248     1.0  0.71060  0.68850  0.57217  1.0000
  S   S494      1.0  0.70037  0.71342  0.58627  1.0000
  Fe  Fe249     1.0  0.73985  0.66057  0.56401  1.0000
  S   S495      1.0  0.77069  0.64980  0.56870  1.0000
  S   S496      1.0  0.68097  0.66759  0.55479  1.0000
  S   S497      1.0  0.71160  0.63766  0.54637  1.0000
  Fe  Fe250     1.0  0.91449  0.67962  0.55568  1.0000
  S   S498      1.0  0.90956  0.64190  0.54785  1.0000
  S   S499      1.0  0.88539  0.69351  0.55303  1.0000
  Fe  Fe251     1.0  0.97032  0.69926  0.56404  1.0000
  S   S500      1.0  0.96856  0.66269  0.55679  1.0000
  Fe  Fe252     1.0  0.94669  0.66427  0.53737  1.0000
  S   S501      1.0  0.95650  0.65500  0.51511  1.0000
  Fe  Fe253     1.0  0.93220  0.64353  0.56791  1.0000
  S   S502      1.0  0.92494  0.61569  0.58598  1.0000
  S   S503      1.0  0.95035  0.70168  0.54400  1.0000
  S   S504      1.0  0.93513  0.68034  0.57631  1.0000
  H   H1486     1.0  0.85437  0.53691  0.61432  1.0000
  C   C1479     1.0  0.88935  0.89841  0.66322  1.0000
  C   C1480     1.0  0.98706  0.52125  0.68425  1.0000
  C   C1481     1.0  0.67997  0.98020  0.50253  1.0000
  C   C1482     1.0  0.69317  0.73383  0.55254  1.0000
  C   C1483     1.0  0.97207  0.50093  0.67470  1.0000
  C   C1484     1.0  0.70539  0.75600  0.56103  1.0000
  S   S505      1.0  0.92356  0.95911  0.64771  1.0000
  Fe  Fe254     1.0  0.75472  0.84961  0.62362  1.0000
  S   S506      1.0  0.75463  0.85353  0.64775  1.0000
  S   S507      1.0  0.76859  0.82466  0.61240  1.0000
  Fe  Fe255     1.0  0.74203  0.89288  0.61930  1.0000
  S   S508      1.0  0.74074  0.89962  0.64310  1.0000
  S   S509      1.0  0.73718  0.91371  0.60034  1.0000
  Fe  Fe256     1.0  0.77562  0.89518  0.64477  1.0000
  S   S510      1.0  0.80866  0.92157  0.65950  1.0000
  Fe  Fe257     1.0  0.71988  0.85744  0.64426  1.0000
  S   S511      1.0  0.68361  0.83304  0.65556  1.0000
  S   S512      1.0  0.77819  0.89118  0.62101  1.0000
  S   S513      1.0  0.71872  0.85088  0.62012  1.0000
  H   H1487     1.0  0.87750  0.87829  0.63649  1.0000
  N   N126      1.0  0.99091  0.68548  0.60166  1.0000
  H   H1488     1.0  0.69404  0.86953  0.70491  1.0000
  H   H1489     1.0  0.78943  0.96707  0.58671  1.0000
  C   C1485     1.0  0.89202  0.95120  0.65075  1.0000
  C   C1486     1.0  0.87364  0.93698  0.64006  1.0000
  C   C1487     1.0  0.84810  0.92825  0.64243  1.0000
  C   C1488     1.0  0.84064  0.93361  0.65559  1.0000
  C   C1489     1.0  0.85902  0.94823  0.66619  1.0000
  C   C1490     1.0  0.88459  0.95701  0.66380  1.0000
  H   H1490     1.0  0.87920  0.93237  0.62993  1.0000
  H   H1491     1.0  0.83420  0.91699  0.63418  1.0000
  H   H1492     1.0  0.85345  0.95256  0.67639  1.0000
  H   H1493     1.0  0.89851  0.96791  0.67213  1.0000
  C   C1491     1.0  0.97853  0.98300  0.72632  1.0000
  C   C1492     1.0  0.73499  0.97826  0.61191  1.0000
  C   C1493     1.0  0.73529  0.95516  0.61274  1.0000
  C   C1494     1.0  0.73377  0.94129  0.60015  1.0000
  C   C1495     1.0  0.73124  0.95046  0.58681  1.0000
  C   C1496     1.0  0.73087  0.97351  0.58599  1.0000
  H   H1494     1.0  0.73719  0.94834  0.62307  1.0000
  H   H1495     1.0  0.73001  0.93986  0.57702  1.0000
  S   S514      1.0  0.91401  0.50560  0.59320  1.0000
  C   C1497     1.0  0.97168  0.67510  0.50078  1.0000
  C   C1498     1.0  0.67634  0.83316  0.67394  1.0000
  C   C1499     1.0  0.92286  0.58537  0.58769  1.0000
  C   C1500     1.0  0.92040  0.57549  0.60147  1.0000
  C   C1501     1.0  0.91828  0.55147  0.60342  1.0000
  C   C1502     1.0  0.91835  0.53679  0.59157  1.0000
  C   C1503     1.0  0.92080  0.54667  0.57780  1.0000
  C   C1504     1.0  0.92312  0.57077  0.57585  1.0000
  H   H1496     1.0  0.92019  0.58652  0.61073  1.0000
  H   H1497     1.0  0.91641  0.54424  0.61409  1.0000
  H   H1498     1.0  0.92085  0.53556  0.56853  1.0000
  H   H1499     1.0  0.92493  0.57795  0.56518  1.0000
  C   C1505     1.0  0.70140  0.69167  0.50388  1.0000
  C   C1506     1.0  0.83757  0.86241  0.63584  1.0000
  H   H1500     1.0  0.94441  0.68988  0.61860  1.0000
  C   C1507     1.0  0.68299  0.85359  0.69769  1.0000
  H   H1501     1.0  0.73366  0.98134  0.51156  1.0000
  C   C1508     1.0  0.80319  0.66348  0.56539  1.0000
  C   C1509     1.0  0.81614  0.68663  0.55901  1.0000
  C   C1510     1.0  0.84148  0.69582  0.55575  1.0000
  C   C1511     1.0  0.85419  0.68201  0.55871  1.0000
  C   C1512     1.0  0.84137  0.65911  0.56536  1.0000
  C   C1513     1.0  0.81608  0.64999  0.56870  1.0000
  H   H1502     1.0  0.80663  0.69737  0.55652  1.0000
  H   H1503     1.0  0.85125  0.71363  0.55069  1.0000
  H   H1504     1.0  0.85084  0.64827  0.56775  1.0000
  H   H1505     1.0  0.80630  0.63212  0.57369  1.0000
  C   C1514     1.0  0.71996  0.74395  0.59391  1.0000
  C   C1515     1.0  0.70889  0.75678  0.60100  1.0000
  C   C1516     1.0  0.72351  0.78135  0.60685  1.0000
  C   C1517     1.0  0.74945  0.79334  0.60577  1.0000
  C   C1518     1.0  0.76056  0.78042  0.59879  1.0000
  C   C1519     1.0  0.74590  0.75592  0.59279  1.0000
  H   H1506     1.0  0.68885  0.74770  0.60197  1.0000
  H   H1507     1.0  0.71469  0.79101  0.61220  1.0000
  H   H1508     1.0  0.78062  0.78949  0.59793  1.0000
  H   H1509     1.0  0.75469  0.74627  0.58741  1.0000
  C   C1520     1.0  0.96762  0.67848  0.60664  1.0000
  H   H1510     1.0  0.69547  0.75924  0.56969  1.0000
  H   H1511     1.0  0.89117  0.91396  0.67060  1.0000
  C   C1521     1.0  0.96308  0.69527  0.61506  1.0000
  C   C1522     1.0  0.81680  0.85913  0.64341  1.0000
  H   H1512     1.0  0.74057  0.74264  0.53088  1.0000
  H   H1513     1.0  0.77447  0.68479  0.51801  1.0000
  H   H1514     1.0  0.86568  0.53792  0.58892  1.0000
  H   H1515     1.0  0.97268  0.95056  0.73811  1.0000
  C   C1523     1.0  0.66230  0.68909  0.49470  1.0000
  H   H1516     1.0  0.66281  0.59227  0.59276  1.0000
  C   C1524     1.0  0.80335  0.96103  0.63498  1.0000
  H   H1517     1.0  0.73158  0.79613  0.57703  1.0000
  H   H1518     1.0  0.79564  0.94551  0.60730  1.0000
  H   H1519     1.0  0.90402  0.90721  0.65520  1.0000
  C   C1525     1.0  0.85837  0.52050  0.59455  1.0000
  H   H1520     1.0  0.81032  0.94777  0.63165  1.0000
  H   H1521     1.0  0.89309  0.88504  0.66939  1.0000
  C   C1526     1.0  0.73060  0.74645  0.53931  1.0000
  H   H1522     1.0  0.78515  0.95025  0.64007  1.0000
  N   N127      1.0  0.86438  0.88546  0.65622  1.0000
  Fe  Fe258     1.0  0.95919  0.98387  0.66128  1.0000
  C   C1527     1.0  0.84407  0.88227  0.66373  1.0000
  H   H1523     1.0  0.81710  0.97430  0.64319  1.0000
  C   C1528     1.0  0.70585  0.72916  0.54156  1.0000
  H   H1524     1.0  0.76758  0.67748  0.53658  1.0000
  H   H1525     1.0  0.95226  0.66001  0.60387  1.0000
  C   C1529     1.0  0.82001  0.86916  0.65743  1.0000
  C   C1530     1.0  0.73313  0.98774  0.59853  1.0000
  H   H1526     1.0  0.97605  0.70908  0.51127  1.0000
  C   C1531     1.0  0.98005  0.70096  0.50186  1.0000
  H   H1527     1.0  0.67186  0.96233  0.50762  1.0000
  C   C1532     1.0  0.86140  0.87563  0.64247  1.0000
  H   H1528     1.0  0.75003  0.65477  0.52228  1.0000
  H   H1529     1.0  0.83509  0.85482  0.62488  1.0000
  H   H1530     1.0  0.98495  0.75133  0.58688  1.0000
  C   C1533     1.0  0.74209  0.79657  0.56731  1.0000
  H   H1531     1.0  0.84640  0.89044  0.67452  1.0000
  H   H1532     1.0  0.76096  0.80022  0.57121  1.0000
  H   H1533     1.0  0.79113  0.61065  0.54033  1.0000
  N   N128      1.0  0.84368  0.49806  0.61620  1.0000
  H   H1534     1.0  0.69662  0.71205  0.53490  1.0000
  N   N129      1.0  0.72968  0.77293  0.55873  1.0000
  H   H1535     1.0  0.66806  0.67849  0.51596  1.0000
  H   H1536     1.0  0.76158  0.78177  0.54626  1.0000
  N   N130      1.0  0.78667  0.65983  0.52691  1.0000
  C   C1534     1.0  0.81066  0.67383  0.52269  1.0000
  C   C1535     1.0  0.77958  0.63731  0.53308  1.0000
  C   C1536     1.0  0.82816  0.66516  0.52443  1.0000
  C   C1537     1.0  0.79658  0.62804  0.53493  1.0000
  C   C1538     1.0  0.82103  0.64212  0.53060  1.0000
  H   H1537     1.0  0.72945  0.98055  0.57564  1.0000
  C   C1539     1.0  0.79330  0.97596  0.59739  1.0000
  C   C1540     1.0  0.76890  0.66975  0.52588  1.0000
  H   H1538     1.0  0.84746  0.67672  0.52168  1.0000
  H   H1539     1.0  0.76099  0.62689  0.53716  1.0000
  H   H1540     1.0  0.83475  0.63577  0.53259  1.0000
  H   H1541     1.0  0.83465  0.51375  0.63464  1.0000
  C   C1541     1.0  0.79675  0.96379  0.60912  1.0000
  H   H1542     1.0  0.74380  0.81236  0.56080  1.0000
  C   C1542     1.0  0.97101  0.51750  0.73182  1.0000
  H   H1543     1.0  0.79827  0.84897  0.63834  1.0000
  H   H1544     1.0  0.97533  0.97348  0.71590  1.0000
  H   H1545     1.0  0.70735  0.86915  0.67989  1.0000
  S   S515      1.0  0.95168  0.50438  0.66201  1.0000
  C   C1543     1.0  0.66104  0.83353  0.70251  1.0000
  H   H1546     1.0  0.96824  0.53359  0.72978  1.0000
  H   H1547     1.0  0.67417  0.72012  0.55468  1.0000
  C   C1544     1.0  0.67649  0.68576  0.50587  1.0000
  C   C1545     1.0  0.69064  0.85342  0.68351  1.0000
  H   H1548     1.0  0.81662  0.69216  0.51836  1.0000
  S   S516      1.0  0.97181  0.97144  0.68100  1.0000
  C   C1546     1.0  0.74231  0.76840  0.54805  1.0000
  N   N131      1.0  0.80043  0.97429  0.62273  1.0000
  H   H1549     1.0  0.80403  0.86734  0.66328  1.0000
  C   C1547     1.0  0.85209  0.51981  0.60895  1.0000
  H   H1550     1.0  0.86265  0.49958  0.57675  1.0000
  H   H1551     1.0  0.97779  0.65181  0.58846  1.0000
  H   H1552     1.0  0.97939  0.73255  0.62491  1.0000
  C   C1548     1.0  0.85658  0.49894  0.58768  1.0000
  H   H1553     1.0  0.95619  0.49950  0.71094  1.0000
  C   C1549     1.0  0.98268  0.71912  0.61863  1.0000
  H   H1554     1.0  0.67000  0.65798  0.59821  1.0000
  H   H1555     1.0  0.73668  0.98910  0.62167  1.0000
  H   H1556     1.0  0.85283  0.49788  0.63826  1.0000
  H   H1557     1.0  0.98622  0.53863  0.68353  1.0000
  C   C1550     1.0  0.79989  0.99643  0.62511  1.0000
  C   C1551     1.0  0.96411  0.49834  0.72129  1.0000
  C   C1552     1.0  0.83753  0.49758  0.63136  1.0000
  Fe  Fe259     1.0  0.73412  0.70128  0.91527  1.0000
  S   S517      1.0  0.75063  0.69877  0.93690  1.0000
  S   S518      1.0  0.75136  0.73601  0.90147  1.0000
  Fe  Fe260     1.0  0.69757  0.64447  0.91281  1.0000
  S   S519      1.0  0.71166  0.63821  0.93397  1.0000
  C   C1553     1.0  0.67934  0.81746  0.79305  1.0000
  Fe  Fe261     1.0  0.71071  0.67302  0.94250  1.0000
  S   S520      1.0  0.69133  0.66628  0.96415  1.0000
  Fe  Fe262     1.0  0.75064  0.66434  0.92710  1.0000
  S   S521      1.0  0.77995  0.65121  0.93127  1.0000
  S   S522      1.0  0.69422  0.67790  0.92153  1.0000
  S   S523      1.0  0.73653  0.66815  0.90526  1.0000
  Fe  Fe263     1.0  0.92384  0.68464  0.92578  1.0000
  S   S524      1.0  0.91654  0.64757  0.93446  1.0000
  S   S525      1.0  0.89711  0.70068  0.92127  1.0000
  Fe  Fe264     1.0  0.97824  0.69922  0.91950  1.0000
  S   S526      1.0  0.97469  0.66276  0.92744  1.0000
  Fe  Fe265     1.0  0.93729  0.64380  0.91553  1.0000
  S   S527      1.0  0.91926  0.60986  0.89949  1.0000
  Fe  Fe266     1.0  0.95458  0.66920  0.94591  1.0000
  H   H1558     1.0  0.66103  0.81246  0.85322  1.0000
  S   S528      1.0  0.94260  0.67998  0.90619  1.0000
  S   S529      1.0  0.96022  0.70657  0.93859  1.0000
  H   H1559     1.0  0.90834  0.92614  0.80657  1.0000
  S   S530      1.0  0.93976  0.51739  0.88384  1.0000
  C   C1554     1.0  0.69109  0.89020  0.79453  1.0000
  S   S531      1.0  0.96440  0.95476  0.80789  1.0000
  H   H1560     1.0  0.87235  0.95137  0.80032  1.0000
  N   N132      1.0  0.67914  0.78943  0.85374  1.0000
  H   H1561     1.0  0.68225  0.96622  0.98404  1.0000
  C   C1555     1.0  0.96682  0.77857  0.90867  1.0000
  Fe  Fe267     1.0  0.74956  0.90143  0.85790  1.0000
  S   S532      1.0  0.76700  0.89828  0.83722  1.0000
  S   S533      1.0  0.74705  0.93778  0.86105  1.0000
  Fe  Fe268     1.0  0.74024  0.84946  0.86693  1.0000
  S   S534      1.0  0.75677  0.84284  0.84713  1.0000
  S   S535      1.0  0.72304  0.82086  0.88433  1.0000
  Fe  Fe269     1.0  0.78715  0.88279  0.85070  1.0000
  S   S536      1.0  0.82708  0.88890  0.84934  1.0000
  Fe  Fe270     1.0  0.73531  0.85885  0.83514  1.0000
  S   S537      1.0  0.71765  0.83977  0.81335  1.0000
  S   S538      1.0  0.77197  0.88843  0.87158  1.0000
  S   S539      1.0  0.71642  0.86282  0.85476  1.0000
  H   H1562     1.0  0.71408  0.74949  0.91232  1.0000
  H   H1563     1.0  0.96123  0.65976  0.87637  1.0000
  H   H1564     1.0  0.69173  0.81215  0.78754  1.0000
  C   C1556     1.0  0.85255  0.91480  0.84178  1.0000
  C   C1557     1.0  0.87563  0.91480  0.84090  1.0000
  C   C1558     1.0  0.89639  0.93506  0.83510  1.0000
  C   C1559     1.0  0.89430  0.95563  0.83015  1.0000
  C   C1560     1.0  0.87124  0.95566  0.83107  1.0000
  C   C1561     1.0  0.85045  0.93533  0.83678  1.0000
  H   H1565     1.0  0.87750  0.89906  0.84478  1.0000
  H   H1566     1.0  0.91404  0.93483  0.83458  1.0000
  H   H1567     1.0  0.70375  0.75108  0.86135  1.0000
  H   H1568     1.0  0.83287  0.93567  0.83745  1.0000
  H   H1569     1.0  0.87546  0.91450  0.80331  1.0000
  S   S540      1.0  0.91950  0.98135  0.82229  1.0000
  C   C1562     1.0  0.98746  0.80039  0.90438  1.0000
  H   H1570     1.0  0.77903  0.85513  0.89788  1.0000
  H   H1571     1.0  0.98383  0.60366  0.88402  1.0000
  C   C1563     1.0  0.97983  0.67984  0.98372  1.0000
  C   C1564     1.0  0.72633  0.97030  0.90070  1.0000
  C   C1565     1.0  0.72781  0.94786  0.90156  1.0000
  C   C1566     1.0  0.73369  0.93738  0.88949  1.0000
  C   C1567     1.0  0.73799  0.94918  0.87636  1.0000
  C   C1568     1.0  0.73608  0.97139  0.87543  1.0000
  H   H1572     1.0  0.88379  0.99073  0.78800  1.0000
  S   S541      1.0  0.96098  0.66003  0.96891  1.0000
  H   H1573     1.0  0.73504  0.92028  0.89036  1.0000
  C   C1569     1.0  0.97688  0.50575  0.80940  1.0000
  H   H1574     1.0  0.73927  0.98059  0.86530  1.0000
  C   C1570     1.0  0.98202  0.51613  0.74484  1.0000
  H   H1575     1.0  0.77451  0.79475  0.92298  1.0000
  C   C1571     1.0  0.91844  0.95249  0.78063  1.0000
  H   H1576     1.0  0.76192  0.82764  0.91837  1.0000
  C   C1572     1.0  0.98725  0.62292  0.88520  1.0000
  C   C1573     1.0  0.92443  0.58355  0.89590  1.0000
  C   C1574     1.0  0.91075  0.56646  0.88447  1.0000
  C   C1575     1.0  0.91493  0.54601  0.88071  1.0000
  C   C1576     1.0  0.93301  0.54239  0.88831  1.0000
  C   C1577     1.0  0.94655  0.55936  0.89983  1.0000
  C   C1578     1.0  0.94226  0.57973  0.90364  1.0000
  H   H1577     1.0  0.89688  0.56913  0.87839  1.0000
  H   H1578     1.0  0.90431  0.53319  0.87185  1.0000
  H   H1579     1.0  0.96054  0.55678  0.90583  1.0000
  H   H1580     1.0  0.95291  0.59259  0.91248  1.0000
  C   C1579     1.0  0.69093  0.68503  0.97915  1.0000
  C   C1580     1.0  0.68708  0.83076  0.80638  1.0000
  C   C1581     1.0  0.70083  0.78499  0.83352  1.0000
  C   C1582     1.0  0.67080  0.83727  0.81348  1.0000
  H   H1581     1.0  0.82953  0.85700  0.87574  1.0000
  C   C1583     1.0  0.78280  0.80771  0.91443  1.0000
  C   C1584     1.0  0.81304  0.66706  0.92996  1.0000
  C   C1585     1.0  0.82561  0.68968  0.92300  1.0000
  C   C1586     1.0  0.85147  0.70007  0.92083  1.0000
  C   C1587     1.0  0.86511  0.68805  0.92558  1.0000
  C   C1588     1.0  0.85268  0.66580  0.93289  1.0000
  C   C1589     1.0  0.82683  0.65541  0.93504  1.0000
  H   H1582     1.0  0.81529  0.69885  0.91900  1.0000
  H   H1583     1.0  0.86087  0.71733  0.91521  1.0000
  H   H1584     1.0  0.86289  0.65642  0.93674  1.0000
  H   H1585     1.0  0.81734  0.63798  0.94050  1.0000
  C   C1590     1.0  0.74026  0.75679  0.89563  1.0000
  C   C1591     1.0  0.75141  0.77170  0.88385  1.0000
  C   C1592     1.0  0.74584  0.79093  0.87999  1.0000
  C   C1593     1.0  0.72908  0.79552  0.88793  1.0000
  C   C1594     1.0  0.71717  0.77999  0.89935  1.0000
  C   C1595     1.0  0.72269  0.76070  0.90318  1.0000
  H   H1586     1.0  0.76501  0.76881  0.87793  1.0000
  H   H1587     1.0  0.75495  0.80253  0.87109  1.0000
  H   H1588     1.0  0.70409  0.78333  0.90553  1.0000
  C   C1596     1.0  0.70902  0.88423  0.78928  1.0000
  H   H1589     1.0  0.95399  0.61600  0.87294  1.0000
  H   H1590     1.0  0.71783  0.86511  0.77249  1.0000
  C   C1597     1.0  0.89366  0.92163  0.79802  1.0000
  C   C1598     1.0  0.70405  0.87020  0.77631  1.0000
  H   H1591     1.0  0.81356  0.87382  0.88125  1.0000
  H   H1592     1.0  0.79755  0.84596  0.86976  1.0000
  H   H1593     1.0  0.82139  0.81826  0.88676  1.0000
  C   C1599     1.0  0.81110  0.85465  0.87901  1.0000
  H   H1594     1.0  0.80415  0.78999  0.90702  1.0000
  N   N133      1.0  0.89944  0.94417  0.79003  1.0000
  C   C1600     1.0  0.78772  0.99687  0.90484  1.0000
  H   H1595     1.0  0.70718  0.78988  0.82267  1.0000
  C   C1601     1.0  0.98139  0.98227  0.75253  1.0000
  H   H1596     1.0  0.69440  0.90039  0.80479  1.0000
  H   H1597     1.0  0.96828  0.51200  0.81746  1.0000
  H   H1598     1.0  0.90193  0.50600  0.80495  1.0000
  H   H1599     1.0  0.78535  0.97949  0.90923  1.0000
  H   H1600     1.0  0.94015  0.98110  0.76595  1.0000
  C   C1602     1.0  0.92505  0.97454  0.77334  1.0000
  C   C1603     1.0  0.73035  0.98196  0.88753  1.0000
  H   H1601     1.0  0.71379  0.72085  0.97022  1.0000
  H   H1602     1.0  0.95435  0.74683  0.92221  1.0000
  H   H1603     1.0  0.71808  0.76135  0.83637  1.0000
  H   H1604     1.0  0.66443  0.61433  0.94975  1.0000
  C   C1604     1.0  0.88682  0.95746  0.79251  1.0000
  C   C1605     1.0  0.78552  0.84165  0.90022  1.0000
  H   H1605     1.0  0.72625  0.88958  0.79547  1.0000
  C   C1606     1.0  0.79953  0.80506  0.90545  1.0000
  C   C1607     1.0  0.97053  0.62987  0.87891  1.0000
  H   H1606     1.0  0.72464  0.93865  0.91169  1.0000
  C   C1608     1.0  0.70693  0.76902  0.84120  1.0000
  S   S542      1.0  0.72061  0.98346  0.91654  1.0000
  H   H1607     1.0  0.98656  0.74112  0.89232  1.0000
  C   C1609     1.0  0.66857  0.88226  0.78676  1.0000
  H   H1608     1.0  0.79398  0.98736  0.88339  1.0000
  C   C1610     1.0  0.68486  0.77363  0.86130  1.0000
  H   H1609     1.0  0.86945  0.97154  0.82736  1.0000
  N   N134      1.0  0.84539  0.63221  0.90344  1.0000
  C   C1611     1.0  0.82344  0.61403  0.90842  1.0000
  C   C1612     1.0  0.84584  0.65177  0.89617  1.0000
  C   C1613     1.0  0.80132  0.61560  0.90656  1.0000
  C   C1614     1.0  0.82404  0.65383  0.89404  1.0000
  C   C1615     1.0  0.80170  0.63568  0.89936  1.0000
  C   C1616     1.0  0.86855  0.63063  0.90566  1.0000
  H   H1610     1.0  0.82309  0.59864  0.91429  1.0000
  H   H1611     1.0  0.86335  0.66649  0.89253  1.0000
  H   H1612     1.0  0.78419  0.60198  0.91118  1.0000
  H   H1613     1.0  0.82466  0.66997  0.88889  1.0000
  H   H1614     1.0  0.78491  0.63773  0.89847  1.0000
  H   H1615     1.0  0.87236  0.62212  0.89596  1.0000
  H   H1616     1.0  0.88457  0.64959  0.90797  1.0000
  H   H1617     1.0  0.86763  0.61925  0.91503  1.0000
  C   C1617     1.0  0.69883  0.76319  0.85517  1.0000
  C   C1618     1.0  0.67671  0.84700  0.75549  1.0000
  H   H1618     1.0  0.67921  0.76959  0.87231  1.0000
  Fe  Fe271     1.0  0.95776  0.98585  0.81667  1.0000
  Fe  Fe272     1.0  0.98614  0.98169  0.79095  1.0000
  H   H1619     1.0  0.67653  0.84759  0.82372  1.0000
  H   H1620     1.0  0.92886  0.94230  0.77885  1.0000
  H   H1621     1.0  0.98792  0.53110  0.75305  1.0000
  N   N135      1.0  0.80215  0.83912  0.89157  1.0000
  C   C1619     1.0  0.70322  0.71125  0.97935  1.0000
  C   C1620     1.0  0.77575  0.82613  0.91185  1.0000
  C   C1621     1.0  0.80901  0.82096  0.89396  1.0000
  H   H1622     1.0  0.89281  0.90640  0.79075  1.0000
  C   C1622     1.0  0.66498  0.80052  0.86061  1.0000
  N   N136      1.0  0.68169  0.86202  0.76893  1.0000
  C   C1623     1.0  0.68683  0.79508  0.83999  1.0000
  C   C1624     1.0  0.68840  0.98537  0.98779  1.0000
  C   C1625     1.0  0.97458  0.65443  0.88085  1.0000
  C   C1626     1.0  0.97023  0.76390  0.91889  1.0000
  C   C1627     1.0  0.66420  0.86821  0.77386  1.0000
  H   H1623     1.0  0.94831  0.77292  0.90404  1.0000
  S   S543      1.0  0.66624  0.61669  0.89716  1.0000
  H   H1624     1.0  0.68241  0.80765  0.83397  1.0000
  H   H1625     1.0  0.68425  0.85942  0.74629  1.0000
  C   C1628     1.0  0.89326  0.97982  0.78559  1.0000
  H   H1626     1.0  0.98472  0.81159  0.89633  1.0000
  C   C1629     1.0  0.99308  0.52283  0.79960  1.0000
  H   H1627     1.0  0.67587  0.81252  0.87013  1.0000
  C   C1630     1.0  0.91251  0.98837  0.77593  1.0000
  S   S544      1.0  0.98070  0.96561  0.76800  1.0000
  H   H1628     1.0  0.68515  0.83427  0.75598  1.0000
  H   H1629     1.0  0.66151  0.57396  0.91394  1.0000
  H   H1630     1.0  0.99379  0.71452  0.97283  1.0000
  H   H1631     1.0  0.71114  0.74539  0.99133  1.0000
  C   C1631     1.0  0.70167  0.72512  0.99137  1.0000
  H   H1632     1.0  0.66758  0.65270  0.99114  1.0000
  C   C1632     1.0  0.67723  0.67296  0.99116  1.0000
