data_image0
_chemical_formula_structural       C2HCFeS2FeS2FeSFeS3FeCSHC6H4NSHCH2CHC7H4CHFeHCSCH3FeNC4HSH2CHSCH5SHSH2SCH3CNC2FeHC2HCNC2H3C2H3CHC2H2CSCHCSCFeCH2SHCHSC7H3C3H2C2HNSFeCH2C5HC2H5CH2C2HSHC2HCHFeCH2CSFeHFeSFeS2CNHFeSHSHSHC6H6SCNC6H4CFeH2C2SCH2C2H4SHNFeC2HSC3SCHFeHCHFeSC6H2S2NH2C2H4FeC2HC3FeH7C3SH2FeCN2FeS2C3H3CHCH2CSHC2SCHFeHCSHSH2C8SH3C2H2C3HSC2NC2HSH2CSH5C2HCSFeH2SFeS2FeS2FeS3CH2SHC6H4CH2FeC6H4C2FeCH2C4NHCH3CSHNHCHC3SHCHC3HC2H4NFe2SC2H3C2SNSHCHCH2C2H2SH4CHFeS2FeS2FeSFeS3HNSCHSC6H4C4H3C6H3CHCH5CHCHC2FeCHCH4NC5H3CH2CH2NC4H2CHC4H2CNH4SCHC2H4C2SFeS2FeHSFeSFeHS2FeS2FeS2HFeHFeSCFeC7H2CH2CNHC6H2SCFeCH2CHC7H3CHCHCHCHSCSHCSHS2CHCNC2H6NHSH3C2H2SCHSCH2NHC2HCH4C2HSC2HCHCH3C3NHCH3C2H2C2SH3SH2FeS2FeHFeS3Fe2CSHNSHFeS2HSFeSFeH3SCHC4H4C2FeH2SC4HCH3C8H3FeCSCHNC5H4C3H2SCH3CH2SHCHNH3C4FeHC2HFeCNHCH4CHC2FeS2FeS2FeSFeS3HC2FeSC6H4C6H4C4H9CHCSCH3NC3H2NHCH2C3SHSC4HC3HC2HCSC2NH7C2H2
_chemical_formula_sum              "C384 H384 Fe64 S128 N32"
_cell_length_a       30.6719
_cell_length_b       30.4384
_cell_length_c       66.0827
_cell_angle_alpha    91.7033
_cell_angle_beta     87.2638
_cell_angle_gamma    86.652

_space_group_name_H-M_alt    "P 1"
_space_group_IT_number       1

loop_
  _space_group_symop_operation_xyz
  'x, y, z'

loop_
  _atom_site_type_symbol
  _atom_site_label
  _atom_site_symmetry_multiplicity
  _atom_site_fract_x
  _atom_site_fract_y
  _atom_site_fract_z
  _atom_site_occupancy
  C   C1        1.0  0.26743  0.13395  0.17537  1.0000
  C   C2        1.0  0.00371  0.24613  0.08661  1.0000
  H   H1        1.0  0.29388  0.05010  0.16508  1.0000
  C   C3        1.0  0.43779  0.33578  0.11732  1.0000
  Fe  Fe1       1.0  0.17683  0.11615  0.12857  1.0000
  S   S1        1.0  0.20049  0.18303  0.13543  1.0000
  S   S2        1.0  0.22743  0.06074  0.13341  1.0000
  Fe  Fe2       1.0  0.08306  0.15370  0.12201  1.0000
  S   S3        1.0  0.10037  0.22354  0.12830  1.0000
  S   S4        1.0  0.01742  0.12971  0.11263  1.0000
  Fe  Fe3       1.0  0.16235  0.20566  0.10931  1.0000
  S   S5        1.0  0.19337  0.24249  0.08346  1.0000
  Fe  Fe4       1.0  0.13758  0.19443  0.15391  1.0000
  S   S6        1.0  0.13965  0.22577  0.18522  1.0000
  S   S7        1.0  0.14260  0.13754  0.10100  1.0000
  S   S8        1.0  0.11604  0.12607  0.14897  1.0000
  Fe  Fe5       1.0  0.21794  0.13399  0.28439  1.0000
  C   C4        1.0  0.40154  0.27548  0.10230  1.0000
  S   S9        1.0  0.21681  0.10412  0.25270  1.0000
  H   H2        1.0  0.10567  0.28334  0.08003  1.0000
  C   C5        1.0  0.16070  0.19152  0.20391  1.0000
  C   C6        1.0  0.17020  0.21010  0.22273  1.0000
  C   C7        1.0  0.18598  0.18336  0.23806  1.0000
  C   C8        1.0  0.19295  0.13791  0.23454  1.0000
  C   C9        1.0  0.18294  0.11924  0.21581  1.0000
  C   C10       1.0  0.16698  0.14596  0.20052  1.0000
  H   H3        1.0  0.16530  0.24531  0.22549  1.0000
  H   H4        1.0  0.19342  0.19815  0.25242  1.0000
  H   H5        1.0  0.18818  0.08408  0.21300  1.0000
  H   H6        1.0  0.15985  0.13124  0.18608  1.0000
  N   N1        1.0  0.05308  0.19122  0.06960  1.0000
  S   S10       1.0  0.29971  0.41446  0.09453  1.0000
  H   H7        1.0  0.03150  0.30735  0.09466  1.0000
  C   C11       1.0  0.08833  0.11140  0.26210  1.0000
  H   H8        1.0  0.46780  0.35050  0.12111  1.0000
  H   H9        1.0  0.36727  0.41243  0.00409  1.0000
  C   C12       1.0  0.26643  0.17777  0.18249  1.0000
  H   H10       1.0  0.29552  0.08248  0.21755  1.0000
  C   C13       1.0  0.27169  0.36566  0.09125  1.0000
  C   C14       1.0  0.27773  0.33891  0.07366  1.0000
  C   C15       1.0  0.25387  0.30096  0.07156  1.0000
  C   C16       1.0  0.22478  0.28879  0.08723  1.0000
  C   C17       1.0  0.21986  0.31478  0.10508  1.0000
  C   C18       1.0  0.24279  0.35333  0.10695  1.0000
  C   C19       1.0  0.42978  0.39390  0.98908  1.0000
  H   H11       1.0  0.25773  0.28112  0.05766  1.0000
  H   H12       1.0  0.19737  0.30593  0.11720  1.0000
  H   H13       1.0  0.23785  0.37388  0.12061  1.0000
  H   H14       1.0  0.29131  0.03068  0.19051  1.0000
  C   C20       1.0  0.06156  0.14625  0.06118  1.0000
  H   H15       1.0  0.07107  0.13135  0.22405  1.0000
  Fe  Fe6       1.0  0.45583  0.44038  0.08189  1.0000
  H   H16       1.0  0.07619  0.11012  0.27819  1.0000
  C   C21       1.0  0.25121  0.02771  0.11290  1.0000
  S   S11       1.0  0.46772  0.47470  0.05282  1.0000
  C   C22       1.0  0.39627  0.40114  0.13228  1.0000
  H   H17       1.0  0.30747  0.00752  0.12944  1.0000
  H   H18       1.0  0.40276  0.24399  0.09409  1.0000
  H   H19       1.0  0.39384  0.39807  0.14898  1.0000
  Fe  Fe7       1.0  0.42595  0.42414  0.03975  1.0000
  N   N2        1.0  0.07975  0.15540  0.25419  1.0000
  C   C23       1.0  0.36128  0.29692  0.10821  1.0000
  C   C24       1.0  0.07129  0.16002  0.23419  1.0000
  C   C25       1.0  0.03738  0.27495  0.08741  1.0000
  C   C26       1.0  0.06409  0.20188  0.22633  1.0000
  H   H20       1.0  0.19951  0.04091  0.09262  1.0000
  S   S12       1.0  0.36327  0.46573  0.04532  1.0000
  H   H21       1.0  0.11910  0.20871  0.06458  1.0000
  H   H22       1.0  0.27488  0.22072  0.20834  1.0000
  C   C27       1.0  0.08265  0.19176  0.26662  1.0000
  H   H23       1.0  0.05856  0.20547  0.21034  1.0000
  S   S13       1.0  0.23162  0.20437  0.29082  1.0000
  C   C28       1.0  0.38493  0.40537  0.98969  1.0000
  H   H24       1.0  0.32898  0.35415  0.12325  1.0000
  H   H25       1.0  0.07192  0.08596  0.25336  1.0000
  H   H26       1.0  0.25830  0.12684  0.16001  1.0000
  H   H27       1.0  0.36756  0.42166  0.12747  1.0000
  H   H28       1.0  0.03420  0.13651  0.05192  1.0000
  S   S14       1.0  0.39668  0.48506  0.09112  1.0000
  H   H29       1.0  0.29524  0.15915  0.23066  1.0000
  S   S15       1.0  0.45883  0.39217  0.01137  1.0000
  H   H30       1.0  0.07964  0.26273  0.26912  1.0000
  H   H31       1.0  0.06484  0.12294  0.07374  1.0000
  S   S16       1.0  0.41792  0.38717  0.06850  1.0000
  C   C29       1.0  0.27710  0.18700  0.20239  1.0000
  H   H32       1.0  0.29985  0.34805  0.06146  1.0000
  H   H33       1.0  0.44859  0.09055  0.30462  1.0000
  H   H34       1.0  0.09035  0.18826  0.28235  1.0000
  C   C30       1.0  0.06696  0.23911  0.23892  1.0000
  N   N3        1.0  0.27839  0.10030  0.18777  1.0000
  C   C31       1.0  0.44014  0.29472  0.10710  1.0000
  C   C32       1.0  0.28881  0.10905  0.20734  1.0000
  Fe  Fe8       1.0  0.35910  0.43337  0.07556  1.0000
  H   H35       1.0  0.09211  0.14295  0.05137  1.0000
  C   C33       1.0  0.23049  0.02310  0.09460  1.0000
  C   C34       1.0  0.07895  0.26154  0.07920  1.0000
  H   H36       1.0  0.33092  0.28243  0.10460  1.0000
  C   C35       1.0  0.27634  0.05476  0.18019  1.0000
  N   N4        1.0  0.39821  0.35741  0.12226  1.0000
  C   C36       1.0  0.28873  0.15251  0.21488  1.0000
  C   C37       1.0  0.07636  0.23410  0.25920  1.0000
  H   H37       1.0  0.24164  0.04722  0.17841  1.0000
  H   H38       1.0  0.25589  0.20425  0.17286  1.0000
  H   H39       1.0  0.06320  0.27172  0.23280  1.0000
  C   C38       1.0  0.36030  0.33777  0.11855  1.0000
  C   C39       1.0  0.08636  0.21919  0.07044  1.0000
  H   H40       1.0  0.12408  0.10278  0.26125  1.0000
  H   H41       1.0  0.49458  0.03099  0.06640  1.0000
  H   H42       1.0  0.42577  0.41914  0.12805  1.0000
  C   C40       1.0  0.39512  0.00475  0.97875  1.0000
  H   H43       1.0  0.47174  0.27827  0.10279  1.0000
  C   C41       1.0  0.29120  0.00413  0.11537  1.0000
  C   C42       1.0  0.39778  0.99712  0.99940  1.0000
  H   H44       1.0  0.42139  0.01341  0.00823  1.0000
  H   H45       1.0  0.47194  0.48962  0.98491  1.0000
  C   C43       1.0  0.01219  0.20419  0.07755  1.0000
  S   S17       1.0  0.15643  0.13620  0.30413  1.0000
  C   C44       1.0  0.24932  0.99431  0.07907  1.0000
  H   H46       1.0  0.32794  0.41579  0.97214  1.0000
  C   C45       1.0  0.47666  0.14889  0.31630  1.0000
  S   S18       1.0  0.21182  0.18485  0.33876  1.0000
  C   C46       1.0  0.08536  0.48160  0.57917  1.0000
  Fe  Fe9       1.0  0.19944  0.11537  0.32885  1.0000
  C   C47       1.0  0.12198  0.42237  0.62450  1.0000
  H   H47       1.0  0.14607  0.02987  0.31640  1.0000
  H   H48       1.0  0.20554  0.48999  0.61794  1.0000
  S   S19       1.0  0.26068  0.10669  0.30849  1.0000
  H   H49       1.0  0.31208  0.00896  0.35679  1.0000
  C   C48       1.0  0.11694  0.01212  0.36564  1.0000
  H   H50       1.0  0.37276  0.05367  0.35079  1.0000
  S   S20       1.0  0.04274  0.39137  0.37989  1.0000
  C   C49       1.0  0.06209  0.35235  0.36070  1.0000
  C   C50       1.0  0.03860  0.34571  0.34336  1.0000
  C   C51       1.0  0.05518  0.31548  0.32799  1.0000
  C   C52       1.0  0.09503  0.29117  0.32993  1.0000
  C   C53       1.0  0.11815  0.29712  0.34745  1.0000
  C   C54       1.0  0.10182  0.32784  0.36274  1.0000
  C   C55       1.0  0.42374  0.20960  0.32583  1.0000
  H   H51       1.0  0.02445  0.36433  0.48594  1.0000
  H   H52       1.0  0.14895  0.27869  0.34906  1.0000
  H   H53       1.0  0.36150  0.19025  0.36905  1.0000
  C   C56       1.0  0.17816  0.47461  0.62526  1.0000
  C   C57       1.0  0.37256  0.12160  0.36033  1.0000
  C   C58       1.0  0.01618  0.36413  0.47015  1.0000
  H   H54       1.0  0.10602  0.39684  0.61634  1.0000
  H   H55       1.0  0.41691  0.24280  0.33195  1.0000
  C   C59       1.0  0.46740  0.19199  0.32386  1.0000
  C   C60       1.0  0.01576  0.99499  0.57971  1.0000
  H   H56       1.0  0.37176  0.12204  0.30783  1.0000
  N   N5        1.0  0.30878  0.07926  0.36082  1.0000
  S   S21       1.0  0.17914  0.06850  0.35320  1.0000
  Fe  Fe10      1.0  0.17259  0.20525  0.31243  1.0000
  C   C61       1.0  0.35276  0.08198  0.35688  1.0000
  H   H57       1.0  0.26190  0.03270  0.36850  1.0000
  H   H58       1.0  0.12018  0.33283  0.37610  1.0000
  C   C62       1.0  0.28821  0.03781  0.35676  1.0000
  C   C63       1.0  0.13868  0.03037  0.34896  1.0000
  C   C64       1.0  0.28334  0.11568  0.36755  1.0000
  C   C65       1.0  0.03298  0.38409  0.43568  1.0000
  C   C66       1.0  0.34691  0.15878  0.36734  1.0000
  H   H59       1.0  0.12397  0.02273  0.38085  1.0000
  C   C67       1.0  0.30199  0.15597  0.37089  1.0000
  C   C68       1.0  0.04388  0.38334  0.45593  1.0000
  H   H60       1.0  0.03718  0.31113  0.31447  1.0000
  H   H61       1.0  0.40727  0.12404  0.35678  1.0000
  H   H62       1.0  0.24826  0.11392  0.37008  1.0000
  H   H63       1.0  0.28156  0.18516  0.37555  1.0000
  H   H64       1.0  0.04261  0.42940  0.57272  1.0000
  C   C69       1.0  0.38887  0.18461  0.32010  1.0000
  H   H65       1.0  0.49377  0.21160  0.32844  1.0000
  H   H66       1.0  0.04374  0.01651  0.57911  1.0000
  C   C70       1.0  0.05047  0.45476  0.58355  1.0000
  C   C71       1.0  0.02679  0.45988  0.60218  1.0000
  H   H67       1.0  0.27309  0.03879  0.34181  1.0000
  S   S22       1.0  0.33437  0.20759  0.32416  1.0000
  H   H68       1.0  0.10404  0.47693  0.56488  1.0000
  C   C72       1.0  0.12934  0.01635  0.32936  1.0000
  C   C73       1.0  0.39819  0.14170  0.31226  1.0000
  H   H69       1.0  0.00802  0.36441  0.34162  1.0000
  C   C74       1.0  0.44181  0.12393  0.31049  1.0000
  H   H70       1.0  0.05398  0.39890  0.42440  1.0000
  Fe  Fe11      1.0  0.27025  0.17775  0.31640  1.0000
  C   C75       1.0  0.03747  0.49267  0.61612  1.0000
  H   H71       1.0  0.17032  0.42962  0.60011  1.0000
  H   H72       1.0  0.07338  0.39788  0.46062  1.0000
  C   C76       1.0  0.15844  0.44059  0.61526  1.0000
  S   S23       1.0  0.11502  0.25473  0.30983  1.0000
  Fe  Fe12      1.0  0.39610  0.39474  0.90063  1.0000
  H   H73       1.0  0.07748  0.39403  0.66367  1.0000
  Fe  Fe13      1.0  0.41101  0.01104  0.88534  1.0000
  S   S24       1.0  0.45203  0.38550  0.84705  1.0000
  Fe  Fe14      1.0  0.42288  0.33185  0.86532  1.0000
  S   S25       1.0  0.42072  0.26308  0.85057  1.0000
  S   S26       1.0  0.36072  0.37321  0.87331  1.0000
  C   C77       1.0  0.43027  0.38701  0.95225  1.0000
  N   N6        1.0  0.10544  0.43796  0.64312  1.0000
  H   H74       1.0  0.41161  0.17406  0.83637  1.0000
  Fe  Fe15      1.0  0.39281  0.42837  0.85777  1.0000
  S   S27       1.0  0.35718  0.40380  0.93043  1.0000
  H   H75       1.0  0.48705  0.37561  0.96980  1.0000
  S   S28       1.0  0.42289  0.45326  0.88573  1.0000
  H   H76       1.0  0.44800  0.38022  0.93786  1.0000
  S   S29       1.0  0.41571  0.08216  0.89682  1.0000
  H   H77       1.0  0.27750  0.26388  0.84877  1.0000
  C   C78       1.0  0.41637  0.21341  0.86378  1.0000
  C   C79       1.0  0.41737  0.21246  0.88488  1.0000
  C   C80       1.0  0.41554  0.17212  0.89474  1.0000
  C   C81       1.0  0.41275  0.13225  0.88367  1.0000
  C   C82       1.0  0.41064  0.13329  0.86258  1.0000
  C   C83       1.0  0.41262  0.17368  0.85270  1.0000
  H   H78       1.0  0.42003  0.24275  0.89362  1.0000
  H   H79       1.0  0.41693  0.17176  0.91107  1.0000
  H   H80       1.0  0.40831  0.10291  0.85388  1.0000
  H   H81       1.0  0.33121  0.25226  0.83733  1.0000
  H   H82       1.0  0.30121  0.43195  0.81026  1.0000
  H   H83       1.0  0.32475  0.28237  0.86122  1.0000
  S   S30       1.0  0.45649  0.35039  0.89362  1.0000
  C   C84       1.0  0.38539  0.39827  0.95285  1.0000
  N   N7        1.0  0.30709  0.31930  0.83585  1.0000
  C   C85       1.0  0.27003  0.34659  0.83853  1.0000
  C   C86       1.0  0.34238  0.33211  0.82451  1.0000
  C   C87       1.0  0.26707  0.38716  0.82910  1.0000
  C   C88       1.0  0.34075  0.37271  0.81512  1.0000
  C   C89       1.0  0.30264  0.40008  0.81725  1.0000
  C   C90       1.0  0.31008  0.27746  0.84630  1.0000
  H   H84       1.0  0.24267  0.33731  0.84815  1.0000
  H   H85       1.0  0.37235  0.31128  0.82294  1.0000
  H   H86       1.0  0.23788  0.40907  0.83135  1.0000
  H   H87       1.0  0.36919  0.38347  0.80666  1.0000
  C   C91       1.0  0.16170  0.48957  0.64443  1.0000
  Fe  Fe16      1.0  0.48046  0.40755  0.87596  1.0000
  H   H88       1.0  0.04491  0.44480  0.66044  1.0000
  H   H89       1.0  0.11238  0.48301  0.66805  1.0000
  C   C92       1.0  0.06706  0.41879  0.65261  1.0000
  C   C93       1.0  0.12517  0.47070  0.65323  1.0000
  S   S31       1.0  0.36794  0.47877  0.83588  1.0000
  C   C94       1.0  0.45234  0.38450  0.97035  1.0000
  H   H90       1.0  0.29120  0.46007  0.86139  1.0000
  H   H91       1.0  0.43445  0.48491  0.95266  1.0000
  C   C95       1.0  0.28212  0.48602  0.85129  1.0000
  C   C96       1.0  0.36272  0.40720  0.97160  1.0000
  H   H92       1.0  0.32419  0.48999  0.94791  1.0000
  H   H93       1.0  0.04735  0.40261  0.64112  1.0000
  H   H94       1.0  0.21374  0.48936  0.86110  1.0000
  H   H95       1.0  0.41663  0.02708  0.97137  1.0000
  S   S32       1.0  0.41257  0.85466  0.04592  1.0000
  H   H96       1.0  0.34762  0.71805  0.08478  1.0000
  N   N8        1.0  0.34816  0.77311  0.10555  1.0000
  Fe  Fe17      1.0  0.46733  0.89972  0.04067  1.0000
  C   C97       1.0  0.31570  0.91242  0.00711  1.0000
  C   C98       1.0  0.33948  0.95213  0.97698  1.0000
  H   H97       1.0  0.42877  0.86179  0.00311  1.0000
  S   S33       1.0  0.39403  0.58469  0.04947  1.0000
  C   C99       1.0  0.33809  0.75261  0.08780  1.0000
  C   C100      1.0  0.47061  0.90741  0.98893  1.0000
  C   C101      1.0  0.31651  0.77619  0.07300  1.0000
  S   S34       1.0  0.43395  0.95659  0.05854  1.0000
  C   C102      1.0  0.35173  0.53282  0.98218  1.0000
  H   H98       1.0  0.38768  0.84820  0.97239  1.0000
  Fe  Fe18      1.0  0.40498  0.51459  0.06044  1.0000
  H   H99       1.0  0.35076  0.74582  0.13471  1.0000
  C   C103      1.0  0.33596  0.81663  0.10933  1.0000
  H   H100      1.0  0.28800  0.83973  0.06528  1.0000
  Fe  Fe19      1.0  0.38219  0.91031  0.06592  1.0000
  S   S35       1.0  0.41341  0.88714  0.09397  1.0000
  C   C104      1.0  0.41384  0.63419  0.05939  1.0000
  C   C105      1.0  0.40678  0.67331  0.04886  1.0000
  C   C106      1.0  0.42080  0.71365  0.05645  1.0000
  C   C107      1.0  0.44161  0.71535  0.07481  1.0000
  C   C108      1.0  0.44892  0.67619  0.08526  1.0000
  C   C109      1.0  0.43522  0.63579  0.07760  1.0000
  H   H101      1.0  0.39040  0.67239  0.03473  1.0000
  H   H102      1.0  0.41505  0.74348  0.04822  1.0000
  S   S36       1.0  0.31187  0.93367  0.06227  1.0000
  S   S37       1.0  0.45588  0.76578  0.08615  1.0000
  N   N9        1.0  0.34268  0.94449  0.99719  1.0000
  H   H103      1.0  0.30021  0.89109  0.99593  1.0000
  H   H104      1.0  0.30982  0.76008  0.05871  1.0000
  C   C110      1.0  0.28938  0.97082  0.08158  1.0000
  C   C111      1.0  0.43694  0.87837  0.98937  1.0000
  H   H105      1.0  0.38347  0.71505  0.11508  1.0000
  H   H106      1.0  0.44088  0.60599  0.08585  1.0000
  H   H107      1.0  0.43203  0.52335  0.01574  1.0000
  H   H108      1.0  0.30459  0.87575  0.09790  1.0000
  Fe  Fe20      1.0  0.44841  0.83455  0.07342  1.0000
  C   C112      1.0  0.37079  0.96704  0.00847  1.0000
  C   C113      1.0  0.31365  0.84101  0.09502  1.0000
  H   H109      1.0  0.28980  0.92990  0.01719  1.0000
  C   C114      1.0  0.37195  0.74868  0.12078  1.0000
  C   C115      1.0  0.30431  0.82072  0.07666  1.0000
  C   C116      1.0  0.31051  0.97627  0.09970  1.0000
  Fe  Fe21      1.0  0.46828  0.92962  0.08504  1.0000
  H   H110      1.0  0.40173  0.76585  0.12454  1.0000
  H   H111      1.0  0.34428  0.83298  0.12331  1.0000
  H   H112      1.0  0.23275  0.99023  0.06511  1.0000
  H   H113      1.0  0.35445  0.55009  0.01408  1.0000
  H   H114      1.0  0.34151  0.95865  0.10177  1.0000
  H   H115      1.0  0.37304  0.96105  0.02450  1.0000
  H   H116      1.0  0.46511  0.67713  0.09945  1.0000
  C   C117      1.0  0.41591  0.52110  0.00150  1.0000
  C   C118      1.0  0.37227  0.53616  0.00056  1.0000
  C   C119      1.0  0.43843  0.50276  0.98415  1.0000
  S   S38       1.0  0.49015  0.98041  0.10756  1.0000
  H   H117      1.0  0.33618  0.89056  0.01652  1.0000
  H   H118      1.0  0.31764  0.54416  0.98163  1.0000
  Fe  Fe22      1.0  0.23132  0.66032  0.62309  1.0000
  C   C120      1.0  0.42939  0.67458  0.62525  1.0000
  N   N10       1.0  0.03297  0.59945  0.57867  1.0000
  N   N11       1.0  0.05452  0.77410  0.35522  1.0000
  Fe  Fe23      1.0  0.16190  0.59761  0.61022  1.0000
  S   S39       1.0  0.14161  0.54598  0.58755  1.0000
  S   S40       1.0  0.17671  0.66630  0.60114  1.0000
  C   C121      1.0  0.02640  0.82789  0.58067  1.0000
  C   C122      1.0  0.00796  0.77621  0.32014  1.0000
  C   C123      1.0  0.07758  0.96538  0.34321  1.0000
  H   H119      1.0  0.04208  0.63525  0.60649  1.0000
  H   H120      1.0  0.08407  0.80645  0.37968  1.0000
  H   H121      1.0  0.06969  0.96635  0.37576  1.0000
  C   C124      1.0  0.03357  0.55265  0.54867  1.0000
  H   H122      1.0  0.08050  0.60088  0.55411  1.0000
  C   C125      1.0  0.05807  0.80853  0.34251  1.0000
  H   H123      1.0  0.04026  0.66780  0.58416  1.0000
  H   H124      1.0  0.08786  0.63230  0.58871  1.0000
  C   C126      1.0  0.05153  0.63546  0.59004  1.0000
  S   S41       1.0  0.00998  0.86633  0.56256  1.0000
  H   H125      1.0  0.01790  0.89827  0.49729  1.0000
  C   C127      1.0  0.35074  0.66636  0.62239  1.0000
  C   C128      1.0  0.40211  0.60209  0.62150  1.0000
  S   S42       1.0  0.04217  0.92235  0.33895  1.0000
  C   C129      1.0  0.43768  0.62889  0.62350  1.0000
  H   H126      1.0  0.07837  0.83544  0.34616  1.0000
  Fe  Fe24      1.0  0.13305  0.68797  0.62827  1.0000
  H   H127      1.0  0.06065  0.92064  0.58802  1.0000
  C   C130      1.0  0.07955  0.77268  0.37356  1.0000
  S   S43       1.0  0.22043  0.58959  0.62942  1.0000
  H   H128      1.0  0.09309  0.97224  0.31134  1.0000
  S   S44       1.0  0.07338  0.73593  0.63005  1.0000
  H   H129      1.0  0.04866  0.54160  0.53408  1.0000
  H   H130      1.0  0.08035  0.54398  0.62275  1.0000
  C   C131      1.0  0.08244  0.77638  0.59310  1.0000
  C   C132      1.0  0.05586  0.76995  0.61043  1.0000
  C   C133      1.0  0.06781  0.80551  0.57833  1.0000
  C   C134      1.0  0.03478  0.81019  0.32483  1.0000
  C   C135      1.0  0.09651  0.51401  0.59326  1.0000
  C   C136      1.0  0.07210  0.51963  0.61168  1.0000
  C   C137      1.0  0.35888  0.62062  0.62107  1.0000
  C   C138      1.0  0.01438  0.79216  0.61267  1.0000
  S   S45       1.0  0.49171  0.60381  0.62310  1.0000
  H   H131      1.0  0.08884  0.81097  0.56514  1.0000
  H   H132      1.0  0.11204  0.75541  0.37011  1.0000
  H   H133      1.0  0.11456  0.75966  0.59129  1.0000
  C   C139      1.0  0.00527  0.74074  0.33296  1.0000
  C   C140      1.0  0.05131  0.58620  0.56004  1.0000
  H   H134      1.0  0.33208  0.59955  0.61918  1.0000
  H   H135      1.0  0.06194  0.75527  0.38575  1.0000
  C   C141      1.0  0.03983  0.93408  0.60073  1.0000
  C   C142      1.0  0.02932  0.74000  0.35042  1.0000
  C   C143      1.0  0.99954  0.82075  0.59779  1.0000
  H   H136      1.0  0.40816  0.56674  0.62003  1.0000
  S   S46       1.0  0.11580  0.61971  0.63615  1.0000
  C   C144      1.0  0.03842  0.91115  0.61876  1.0000
  C   C145      1.0  0.01107  0.92757  0.63505  1.0000
  N   N12       1.0  0.01431  0.97201  0.59889  1.0000
  C   C146      1.0  0.38622  0.69314  0.62458  1.0000
  C   C147      1.0  0.08611  0.98018  0.36279  1.0000
  H   H137      1.0  0.05771  0.88029  0.61988  1.0000
  S   S47       1.0  0.29717  0.69177  0.62105  1.0000
  H   H138      1.0  0.03672  0.83837  0.31518  1.0000
  H   H139      1.0  0.01135  0.87723  0.46108  1.0000
  C   C148      1.0  0.09934  0.98361  0.32653  1.0000
  S   S48       1.0  0.00334  0.87203  0.39205  1.0000
  H   H140      1.0  0.45632  0.69566  0.62671  1.0000
  H   H141      1.0  0.38037  0.72855  0.62555  1.0000
  H   H142      1.0  0.01923  0.49688  0.63053  1.0000
  H   H143      1.0  0.02688  0.71242  0.36037  1.0000
  H   H144      1.0  0.01908  0.97095  0.56662  1.0000
  C   C149      1.0  0.99689  0.53262  0.55647  1.0000
  C   C150      1.0  0.99675  0.58025  0.58637  1.0000
  H   H145      1.0  0.35301  0.73623  0.84833  1.0000
  C   C151      1.0  0.35155  0.51223  0.94617  1.0000
  S   S49       1.0  0.31202  0.91942  0.84249  1.0000
  Fe  Fe25      1.0  0.07405  0.68836  0.82171  1.0000
  H   H146      1.0  0.26611  0.76470  0.69224  1.0000
  H   H147      1.0  0.32980  0.61159  0.66888  1.0000
  S   S50       1.0  0.41040  0.88373  0.87440  1.0000
  Fe  Fe26      1.0  0.15267  0.62226  0.82564  1.0000
  S   S51       1.0  0.11497  0.66954  0.84777  1.0000
  S   S52       1.0  0.17028  0.55433  0.83717  1.0000
  Fe  Fe27      1.0  0.15453  0.68898  0.79281  1.0000
  S   S53       1.0  0.11855  0.74149  0.81272  1.0000
  S   S54       1.0  0.17237  0.71069  0.76131  1.0000
  Fe  Fe28      1.0  0.16228  0.71859  0.83689  1.0000
  S   S55       1.0  0.19147  0.76078  0.86115  1.0000
  S   S56       1.0  0.20235  0.67016  0.81635  1.0000
  S   S57       1.0  0.10765  0.63705  0.80020  1.0000
  C   C152      1.0  0.01339  0.74038  0.87118  1.0000
  H   H148      1.0  0.27534  0.59104  0.67166  1.0000
  H   H149      1.0  0.28616  0.63306  0.65414  1.0000
  S   S58       1.0  0.17573  0.58267  0.68445  1.0000
  H   H150      1.0  0.27798  0.60716  0.70842  1.0000
  C   C153      1.0  0.16846  0.61765  0.70620  1.0000
  C   C154      1.0  0.17304  0.60028  0.72548  1.0000
  C   C155      1.0  0.17140  0.62842  0.74282  1.0000
  C   C156      1.0  0.16568  0.67400  0.74083  1.0000
  C   C157      1.0  0.15948  0.69110  0.72166  1.0000
  C   C158      1.0  0.16055  0.66300  0.70442  1.0000
  H   H151      1.0  0.17898  0.56517  0.72696  1.0000
  H   H152      1.0  0.17648  0.61504  0.75757  1.0000
  H   H153      1.0  0.15490  0.72633  0.72007  1.0000
  H   H154      1.0  0.15597  0.67665  0.68976  1.0000
  C   C159      1.0  0.08036  0.77510  0.87370  1.0000
  H   H155      1.0  0.43133  0.74910  0.85292  1.0000
  H   H156      1.0  0.48134  0.52278  0.82986  1.0000
  Fe  Fe29      1.0  0.40474  0.92117  0.90439  1.0000
  C   C160      1.0  0.22475  0.80482  0.85558  1.0000
  C   C161      1.0  0.22793  0.82199  0.83620  1.0000
  C   C162      1.0  0.25408  0.85772  0.83250  1.0000
  C   C163      1.0  0.27789  0.87598  0.84800  1.0000
  C   C164      1.0  0.27509  0.85847  0.86731  1.0000
  C   C165      1.0  0.24826  0.82334  0.87111  1.0000
  H   H157      1.0  0.20984  0.80810  0.82414  1.0000
  H   H158      1.0  0.25603  0.87113  0.81752  1.0000
  H   H159      1.0  0.29327  0.87227  0.87936  1.0000
  H   H160      1.0  0.24589  0.81033  0.88616  1.0000
  C   C166      1.0  0.28013  0.69794  0.68075  1.0000
  C   C167      1.0  0.42403  0.89193  0.95395  1.0000
  Fe  Fe30      1.0  0.46270  0.92943  0.86624  1.0000
  C   C168      1.0  0.26941  0.73025  0.69597  1.0000
  H   H161      1.0  0.99713  0.62578  0.79245  1.0000
  H   H162      1.0  0.28574  0.70794  0.66523  1.0000
  C   C169      1.0  0.45827  0.92035  0.95336  1.0000
  C   C170      1.0  0.22600  0.53618  0.83797  1.0000
  C   C171      1.0  0.25793  0.55313  0.82509  1.0000
  C   C172      1.0  0.26661  0.67325  0.72050  1.0000
  N   N13       1.0  0.28271  0.65430  0.68527  1.0000
  H   H163      1.0  0.46636  0.93696  0.93960  1.0000
  C   C173      1.0  0.26248  0.71770  0.71597  1.0000
  H   H164      1.0  0.24880  0.57860  0.81478  1.0000
  H   H165      1.0  0.41245  0.87778  0.80968  1.0000
  H   H166      1.0  0.26048  0.66323  0.73597  1.0000
  C   C174      1.0  0.29416  0.62075  0.66925  1.0000
  S   S59       1.0  0.35395  0.97148  0.89480  1.0000
  H   H167      1.0  0.31801  0.93362  0.96783  1.0000
  N   N14       1.0  0.38603  0.79228  0.83850  1.0000
  H   H168      1.0  0.37352  0.49822  0.93341  1.0000
  C   C175      1.0  0.42705  0.77648  0.84293  1.0000
  H   H169      1.0  0.04652  0.79531  0.83567  1.0000
  C   C176      1.0  0.47631  0.53207  0.84623  1.0000
  C   C177      1.0  0.31375  0.50223  0.83799  1.0000
  C   C178      1.0  0.06677  0.71210  0.89390  1.0000
  S   S60       1.0  0.46131  0.96249  0.89716  1.0000
  H   H170      1.0  0.07758  0.68788  0.90459  1.0000
  C   C179      1.0  0.09403  0.74510  0.88808  1.0000
  H   H171      1.0  0.47645  0.50066  0.85441  1.0000
  C   C180      1.0  0.34768  0.77256  0.84769  1.0000
  C   C181      1.0  0.02751  0.80386  0.85013  1.0000
  C   C182      1.0  0.38073  0.82787  0.82649  1.0000
  H   H172      1.0  0.32573  0.54845  0.81457  1.0000
  C   C183      1.0  0.45892  0.83225  0.82273  1.0000
  C   C184      1.0  0.27643  0.64176  0.70486  1.0000
  H   H173      1.0  0.10243  0.79975  0.86878  1.0000
  H   H174      1.0  0.34069  0.78660  0.86331  1.0000
  H   H175      1.0  0.25298  0.74213  0.72793  1.0000
  H   H176      1.0  0.31815  0.77919  0.83885  1.0000
  N   N15       1.0  0.37418  0.51525  0.96517  1.0000
  Fe  Fe31      1.0  0.17468  0.61735  0.65476  1.0000
  Fe  Fe32      1.0  0.36383  0.93708  0.86420  1.0000
  S   S61       1.0  0.00204  0.71286  0.82196  1.0000
  C   C185      1.0  0.41699  0.84868  0.81862  1.0000
  C   C186      1.0  0.30152  0.53593  0.82499  1.0000
  H   H177      1.0  0.34833  0.84080  0.82312  1.0000
  H   H178      1.0  0.00508  0.68348  0.88940  1.0000
  H   H179      1.0  0.48738  0.84828  0.81686  1.0000
  C   C187      1.0  0.36558  0.98240  0.96747  1.0000
  C   C188      1.0  0.23828  0.50257  0.85107  1.0000
  S   S62       1.0  0.39083  0.88514  0.93320  1.0000
  N   N16       1.0  0.04035  0.77269  0.86557  1.0000
  S   S63       1.0  0.18819  0.68770  0.64959  1.0000
  H   H180      1.0  0.12629  0.74661  0.89408  1.0000
  C   C189      1.0  0.46408  0.79570  0.83483  1.0000
  H   H181      1.0  0.17670  0.51606  0.65235  1.0000
  C   C190      1.0  0.48165  0.92787  0.97081  1.0000
  H   H182      1.0  0.44365  0.54958  0.84889  1.0000
  H   H183      1.0  0.03371  0.83805  0.85504  1.0000
  C   C191      1.0  0.02618  0.70960  0.88538  1.0000
  C   C192      1.0  0.41390  0.87048  0.97191  1.0000
  H   H184      1.0  0.00902  0.90954  0.64895  1.0000
  H   H185      1.0  0.33847  0.54526  0.94191  1.0000
  S   S64       1.0  0.41670  0.98099  0.85378  1.0000
  H   H186      1.0  0.49661  0.78295  0.83823  1.0000
  H   H187      1.0  0.00003  0.67665  0.78008  1.0000
  H   H188      1.0  0.99915  0.62618  0.76500  1.0000
  H   H189      1.0  0.36425  0.98692  0.95126  1.0000
  C   C193      1.0  0.41698  0.50015  0.96597  1.0000
  H   H190      1.0  0.85013  0.15493  0.20653  1.0000
  Fe  Fe33      1.0  0.75589  0.19107  0.12518  1.0000
  S   S65       1.0  0.70131  0.24330  0.13222  1.0000
  S   S66       1.0  0.82372  0.21676  0.12965  1.0000
  Fe  Fe34      1.0  0.68990  0.12019  0.11917  1.0000
  S   S67       1.0  0.63179  0.16681  0.12657  1.0000
  S   S68       1.0  0.68156  0.04987  0.10829  1.0000
  Fe  Fe35      1.0  0.66642  0.21326  0.10671  1.0000
  S   S69       1.0  0.62583  0.24533  0.08275  1.0000
  Fe  Fe36      1.0  0.67133  0.19255  0.15149  1.0000
  S   S70       1.0  0.63901  0.21575  0.18166  1.0000
  S   S71       1.0  0.72320  0.16529  0.09770  1.0000
  S   S72       1.0  0.72722  0.14187  0.14602  1.0000
  H   H191      1.0  0.87165  0.47983  0.29009  1.0000
  N   N17       1.0  0.79026  0.19102  0.20227  1.0000
  S   S73       1.0  0.71256  0.13321  0.26057  1.0000
  C   C194      1.0  0.96376  0.15350  0.11852  1.0000
  H   H192      1.0  0.76804  0.20472  0.23308  1.0000
  S   S74       1.0  0.50999  0.42212  0.10270  1.0000
  C   C195      1.0  0.65843  0.19160  0.20350  1.0000
  C   C196      1.0  0.68669  0.15381  0.20221  1.0000
  C   C197      1.0  0.70247  0.13569  0.21990  1.0000
  C   C198      1.0  0.69009  0.15530  0.23893  1.0000
  C   C199      1.0  0.66143  0.19279  0.24026  1.0000
  C   C200      1.0  0.64550  0.21082  0.22255  1.0000
  H   H193      1.0  0.69620  0.13841  0.18763  1.0000
  H   H194      1.0  0.72436  0.10642  0.21885  1.0000
  H   H195      1.0  0.65219  0.20837  0.25485  1.0000
  H   H196      1.0  0.62366  0.24013  0.22358  1.0000
  C   C201      1.0  0.87711  0.19099  0.12539  1.0000
  C   C202      1.0  0.91325  0.21338  0.13172  1.0000
  C   C203      1.0  0.92765  0.13114  0.11217  1.0000
  C   C204      1.0  0.88454  0.14959  0.11568  1.0000
  H   H197      1.0  0.90790  0.24545  0.13923  1.0000
  H   H198      1.0  0.93300  0.09929  0.10446  1.0000
  H   H199      1.0  0.85716  0.13199  0.11067  1.0000
  C   C205      1.0  0.53995  0.37121  0.09792  1.0000
  C   C206      1.0  0.57343  0.35841  0.11066  1.0000
  C   C207      1.0  0.59878  0.31876  0.10672  1.0000
  C   C208      1.0  0.59081  0.29174  0.08998  1.0000
  C   C209      1.0  0.55631  0.30377  0.07768  1.0000
  C   C210      1.0  0.53107  0.34339  0.08159  1.0000
  H   H200      1.0  0.58032  0.37959  0.12341  1.0000
  H   H201      1.0  0.62531  0.30977  0.11630  1.0000
  H   H202      1.0  0.54994  0.28299  0.06471  1.0000
  C   C211      1.0  0.74374  0.25428  0.21337  1.0000
  H   H203      1.0  0.50561  0.35288  0.07160  1.0000
  C   C212      1.0  0.59374  0.05145  0.12008  1.0000
  H   H204      1.0  0.63268  0.05732  0.26047  1.0000
  H   H205      1.0  0.61086  0.13948  0.06434  1.0000
  H   H206      1.0  0.52472  0.05313  0.12820  1.0000
  H   H207      1.0  0.63768  0.05195  0.22277  1.0000
  H   H208      1.0  0.59897  0.08079  0.12897  1.0000
  C   C213      1.0  0.61871  0.40486  0.06543  1.0000
  H   H209      1.0  0.72462  0.27260  0.22539  1.0000
  C   C214      1.0  0.59259  0.10804  0.21954  1.0000
  H   H210      1.0  0.65243  0.04326  0.05074  1.0000
  C   C215      1.0  0.81457  0.14979  0.20668  1.0000
  C   C216      1.0  0.76822  0.21568  0.21758  1.0000
  Fe  Fe37      1.0  0.68094  0.15442  0.29113  1.0000
  C   C217      1.0  0.53693  0.17988  0.26117  1.0000
  H   H211      1.0  0.80398  0.13731  0.22169  1.0000
  C   C218      1.0  0.55072  0.06959  0.07013  1.0000
  H   H212      1.0  0.56806  0.45540  0.06128  1.0000
  H   H213      1.0  0.58303  0.30700  0.01136  1.0000
  H   H214      1.0  0.65221  0.10308  0.07475  1.0000
  H   H215      1.0  0.80862  0.12374  0.19513  1.0000
  N   N18       1.0  0.59453  0.07262  0.06593  1.0000
  C   C219      1.0  0.56635  0.14144  0.22988  1.0000
  C   C220      1.0  0.63648  0.36330  0.05892  1.0000
  C   C221      1.0  0.79059  0.20505  0.18279  1.0000
  C   C222      1.0  0.76691  0.24375  0.17811  1.0000
  C   C223      1.0  0.74271  0.26802  0.19344  1.0000
  H   H216      1.0  0.80879  0.18605  0.17066  1.0000
  H   H217      1.0  0.76700  0.25452  0.16261  1.0000
  H   H218      1.0  0.72283  0.29712  0.18980  1.0000
  C   C224      1.0  0.61329  0.08010  0.25171  1.0000
  H   H219      1.0  0.53699  0.41493  0.03275  1.0000
  H   H220      1.0  0.59583  0.10708  0.20309  1.0000
  C   C225      1.0  0.56539  0.40060  0.03986  1.0000
  H   H221      1.0  0.63067  0.30782  0.03870  1.0000
  H   H222      1.0  0.52516  0.17043  0.27653  1.0000
  N   N19       1.0  0.56313  0.14357  0.25062  1.0000
  C   C226      1.0  0.52890  0.03422  0.06230  1.0000
  C   C227      1.0  0.62885  0.02906  0.10918  1.0000
  C   C228      1.0  0.58648  0.11371  0.26154  1.0000
  C   C229      1.0  0.95632  0.19472  0.12841  1.0000
  H   H223      1.0  0.53075  0.32266  0.02419  1.0000
  H   H224      1.0  0.54946  0.16622  0.22117  1.0000
  C   C230      1.0  0.55169  0.03552  0.11974  1.0000
  H   H225      1.0  0.58493  0.11603  0.27795  1.0000
  C   C231      1.0  0.61616  0.07720  0.23058  1.0000
  C   C232      1.0  0.55210  0.00199  0.04999  1.0000
  C   C233      1.0  0.61790  0.34098  0.04295  1.0000
  C   C234      1.0  0.61641  0.11055  0.07395  1.0000
  H   H226      1.0  0.63156  0.42174  0.07835  1.0000
  H   H227      1.0  0.85635  0.42519  0.29619  1.0000
  C   C235      1.0  0.58300  0.42374  0.05585  1.0000
  N   N20       1.0  0.58285  0.35979  0.03363  1.0000
  H   H228      1.0  0.60393  0.11939  0.08968  1.0000
  H   H229      1.0  0.66309  0.34748  0.06680  1.0000
  H   H230      1.0  0.50744  0.18927  0.25278  1.0000
  H   H231      1.0  0.53265  0.09385  0.08011  1.0000
  S   S75       1.0  0.62436  0.20388  0.29768  1.0000
  C   C236      1.0  0.61756  0.04125  0.05380  1.0000
  H   H232      1.0  0.55699  0.20888  0.26282  1.0000
  C   C237      1.0  0.56168  0.33520  0.01781  1.0000
  C   C238      1.0  0.59672  0.00545  0.04569  1.0000
  H   H233      1.0  0.55332  0.35695  0.00513  1.0000
  H   H234      1.0  0.98373  0.21238  0.13333  1.0000
  H   H235      1.0  0.97144  0.25568  0.09335  1.0000
  H   H236      1.0  0.98617  0.18147  0.07751  1.0000
  C   C239      1.0  0.54421  0.99722  0.10839  1.0000
  C   C240      1.0  0.86555  0.45728  0.30268  1.0000
  S   S76       1.0  0.89825  0.05571  0.59099  1.0000
  Fe  Fe38      1.0  0.85495  0.39915  0.56996  1.0000
  S   S77       1.0  0.89049  0.35193  0.58997  1.0000
  S   S78       1.0  0.78374  0.42384  0.57361  1.0000
  Fe  Fe39      1.0  0.93275  0.40149  0.53956  1.0000
  H   H237      1.0  0.93726  0.33405  0.43992  1.0000
  S   S79       1.0  0.96243  0.43251  0.51188  1.0000
  Fe  Fe40      1.0  0.91535  0.31533  0.56106  1.0000
  S   S80       1.0  0.91646  0.24284  0.55030  1.0000
  Fe  Fe41      1.0  0.94721  0.39523  0.58430  1.0000
  H   H238      1.0  0.91540  0.33029  0.47579  1.0000
  S   S81       1.0  0.87520  0.35959  0.54142  1.0000
  S   S82       1.0  0.90946  0.44451  0.56644  1.0000
  Fe  Fe42      1.0  0.68819  0.13099  0.33554  1.0000
  S   S83       1.0  0.63080  0.17724  0.34551  1.0000
  S   S84       1.0  0.73172  0.10155  0.35907  1.0000
  Fe  Fe43      1.0  0.66234  0.22451  0.32455  1.0000
  S   S85       1.0  0.67190  0.29337  0.33703  1.0000
  S   S86       1.0  0.98640  0.42357  0.60924  1.0000
  H   H239      1.0  0.74036  0.19849  0.36383  1.0000
  Fe  Fe44      1.0  0.89081  0.43974  0.40245  1.0000
  H   H240      1.0  0.90349  0.08240  0.54856  1.0000
  Fe  Fe45      1.0  0.88760  0.41218  0.35783  1.0000
  S   S87       1.0  0.86100  0.36854  0.33344  1.0000
  C   C241      1.0  0.76228  0.05137  0.35374  1.0000
  Fe  Fe46      1.0  0.59766  0.15251  0.31796  1.0000
  C   C242      1.0  0.96750  0.34723  0.44451  1.0000
  C   C243      1.0  0.72480  0.31354  0.33621  1.0000
  C   C244      1.0  0.73426  0.34786  0.34972  1.0000
  C   C245      1.0  0.77618  0.36452  0.34939  1.0000
  C   C246      1.0  0.80852  0.34768  0.33514  1.0000
  C   C247      1.0  0.79892  0.31379  0.32149  1.0000
  C   C248      1.0  0.75742  0.29644  0.32217  1.0000
  H   H241      1.0  0.70913  0.36127  0.36061  1.0000
  H   H242      1.0  0.78327  0.39061  0.36000  1.0000
  C   C249      1.0  0.74468  0.01665  0.34318  1.0000
  H   H243      1.0  0.73211  0.45801  0.33827  1.0000
  H   H244      1.0  0.83356  0.40493  0.47315  1.0000
  C   C250      1.0  0.82132  0.26969  0.36749  1.0000
  N   N21       1.0  0.85372  0.24656  0.35599  1.0000
  H   H245      1.0  0.85324  0.04015  0.42592  1.0000
  C   C251      1.0  0.75324  0.31708  0.54071  1.0000
  C   C252      1.0  0.88439  0.43209  0.45464  1.0000
  C   C253      1.0  0.92559  0.44951  0.45448  1.0000
  C   C254      1.0  0.94842  0.45156  0.47240  1.0000
  C   C255      1.0  0.93041  0.43573  0.49047  1.0000
  C   C256      1.0  0.88858  0.41977  0.49077  1.0000
  H   H246      1.0  0.82408  0.46327  0.60834  1.0000
  H   H247      1.0  0.77927  0.34583  0.59837  1.0000
  S   S88       1.0  0.85403  0.46780  0.37665  1.0000
  C   C257      1.0  0.78808  0.04501  0.41476  1.0000
  Fe  Fe47      1.0  0.97492  0.42311  0.37700  1.0000
  C   C258      1.0  0.80576  0.18817  0.35040  1.0000
  H   H248      1.0  0.98600  0.36655  0.41421  1.0000
  H   H249      1.0  0.71336  0.02168  0.33646  1.0000
  C   C259      1.0  0.75322  0.32480  0.56168  1.0000
  H   H250      1.0  0.75159  0.29580  0.60276  1.0000
  C   C260      1.0  0.72259  0.48459  0.59104  1.0000
  C   C261      1.0  0.90224  0.10757  0.57935  1.0000
  C   C262      1.0  0.90388  0.14592  0.59171  1.0000
  C   C263      1.0  0.90799  0.18761  0.58319  1.0000
  C   C264      1.0  0.91087  0.19140  0.56212  1.0000
  C   C265      1.0  0.90906  0.15309  0.54977  1.0000
  C   C266      1.0  0.90467  0.11147  0.55829  1.0000
  H   H251      1.0  0.90212  0.14334  0.60802  1.0000
  H   H252      1.0  0.90953  0.21663  0.59292  1.0000
  H   H253      1.0  0.91127  0.15553  0.53346  1.0000
  C   C267      1.0  0.79130  0.47808  0.60751  1.0000
  H   H254      1.0  0.95333  0.34008  0.49480  1.0000
  C   C268      1.0  0.78072  0.28318  0.53166  1.0000
  H   H255      1.0  0.75398  0.27178  0.37901  1.0000
  C   C269      1.0  0.80752  0.25736  0.54365  1.0000
  H   H256      1.0  0.79988  0.15629  0.34358  1.0000
  C   C270      1.0  0.80721  0.26649  0.56454  1.0000
  H   H257      1.0  0.78148  0.27707  0.51539  1.0000
  S   S89       1.0  0.94578  0.45058  0.34921  1.0000
  C   C271      1.0  0.89601  0.26550  0.35190  1.0000
  S   S90       1.0  0.53077  0.12416  0.31413  1.0000
  H   H258      1.0  0.87406  0.40823  0.50467  1.0000
  C   C272      1.0  0.86566  0.41793  0.47290  1.0000
  S   S91       1.0  0.72087  0.17948  0.31601  1.0000
  H   H259      1.0  0.70212  0.47468  0.57902  1.0000
  S   S92       1.0  0.91915  0.38100  0.38408  1.0000
  S   S93       1.0  0.85627  0.42564  0.43223  1.0000
  C   C273      1.0  0.82762  0.02282  0.41890  1.0000
  H   H260      1.0  0.95975  0.28971  0.47949  1.0000
  C   C274      1.0  0.77239  0.21174  0.36189  1.0000
  N   N22       1.0  0.97838  0.34670  0.46436  1.0000
  C   C275      1.0  0.84636  0.20632  0.34746  1.0000
  C   C276      1.0  0.78014  0.25273  0.37053  1.0000
  H   H261      1.0  0.87183  0.18816  0.33817  1.0000
  H   H262      1.0  0.73182  0.35130  0.56862  1.0000
  H   H263      1.0  0.82672  0.30207  0.37388  1.0000
  H   H264      1.0  0.81664  0.07118  0.37062  1.0000
  H   H265      1.0  0.92342  0.24127  0.35467  1.0000
  H   H266      1.0  0.82925  0.23099  0.53682  1.0000
  N   N23       1.0  0.78076  0.30035  0.57323  1.0000
  H   H267      1.0  0.82885  0.24671  0.57363  1.0000
  S   S94       1.0  0.97493  0.35512  0.55712  1.0000
  H   H268      1.0  0.94013  0.46092  0.44055  1.0000
  H   H269      1.0  0.89990  0.29527  0.36165  1.0000
  H   H270      1.0  0.78265  0.07994  0.41837  1.0000
  C   C277      1.0  0.76517  0.46522  0.59187  1.0000
  C   C278      1.0  0.78050  0.30965  0.59514  1.0000
  H   H271      1.0  0.81064  0.29551  0.60178  1.0000
  H   H272      1.0  0.73249  0.33772  0.53157  1.0000
  S   S95       1.0  0.65305  0.10172  0.30991  1.0000
  C   C279      1.0  0.80280  0.04443  0.36247  1.0000
  H   H273      1.0  0.89867  0.27573  0.33590  1.0000
  S   S96       1.0  0.94899  0.48038  0.39745  1.0000
  C   C280      1.0  0.76171  0.47494  0.33500  1.0000
  H   H274      1.0  0.78811  0.42552  0.31326  1.0000
  H   H275      1.0  0.72571  0.03978  0.40170  1.0000
  N   N24       1.0  0.83166  0.47704  0.31711  1.0000
  H   H276      1.0  0.98060  0.46438  0.47210  1.0000
  C   C281      1.0  0.95040  0.32547  0.47931  1.0000
  C   C282      1.0  0.75585  0.02201  0.40543  1.0000
  H   H277      1.0  0.75034  0.27052  0.31150  1.0000
  C   C283      1.0  0.79361  0.45666  0.32086  1.0000
  H   H278      1.0  0.96864  0.01959  0.61367  1.0000
  H   H279      1.0  0.98508  0.01563  0.57791  1.0000
  H   H280      1.0  0.82370  0.30077  0.31035  1.0000
  H   H281      1.0  0.89638  0.45058  0.31054  1.0000
  C   C284      1.0  0.82471  0.00252  0.36148  1.0000
  C   C285      1.0  0.99464  0.36587  0.42991  1.0000
  H   H282      1.0  0.85514  0.99732  0.36884  1.0000
  S   S97       1.0  0.54649  0.43651  0.87866  1.0000
  C   C286      1.0  0.57196  0.46215  0.85792  1.0000
  C   C287      1.0  0.51510  0.07341  0.84320  1.0000
  H   H283      1.0  0.52582  0.00370  0.83622  1.0000
  C   C288      1.0  0.55727  0.45765  0.83829  1.0000
  H   H284      1.0  0.53116  0.43634  0.83535  1.0000
  C   C289      1.0  0.52528  0.02970  0.84787  1.0000
  H   H285      1.0  0.49903  0.12182  0.90684  1.0000
  H   H286      1.0  0.55495  0.13324  0.89962  1.0000
  H   H287      1.0  0.50615  0.14014  0.85478  1.0000
  C   C290      1.0  0.53235  0.05288  0.88272  1.0000
  C   C291      1.0  0.51434  0.10626  0.85851  1.0000
  C   C292      1.0  0.53434  0.01937  0.86770  1.0000
  N   N25       1.0  0.52255  0.09568  0.87801  1.0000
  H   H288      1.0  0.53816  0.04438  0.89823  1.0000
  C   C293      1.0  0.52168  0.13012  0.89404  1.0000
  H   H289      1.0  0.50961  0.16269  0.88866  1.0000
  H   H290      1.0  0.50748  0.08175  0.82787  1.0000
  H   H291      1.0  0.56452  0.47752  0.80728  1.0000
  C   C294      1.0  0.57623  0.48102  0.82239  1.0000
  C   C295      1.0  0.60649  0.48933  0.86139  1.0000
  H   H292      1.0  0.61835  0.49268  0.87648  1.0000
  H   H293      1.0  0.57402  0.94452  0.08908  1.0000
  C   C296      1.0  0.57937  0.97432  0.09771  1.0000
  C   C297      1.0  0.62162  0.99010  0.09822  1.0000
  S   S98       1.0  0.50619  0.87574  0.06668  1.0000
  H   H294      1.0  0.64869  0.97233  0.08990  1.0000
  H   H295      1.0  0.53575  0.97392  0.04411  1.0000
  H   H296      1.0  0.61510  0.98010  0.03640  1.0000
  S   S99       1.0  0.49809  0.92008  0.01098  1.0000
  H   H297      1.0  0.67822  0.88048  0.61386  1.0000
  H   H298      1.0  0.70965  0.97650  0.38077  1.0000
  Fe  Fe48      1.0  0.84978  0.89908  0.58646  1.0000
  S   S100      1.0  0.88282  0.86410  0.55905  1.0000
  S   S101      1.0  0.81366  0.86247  0.61100  1.0000
  Fe  Fe49      1.0  0.94204  0.89946  0.56676  1.0000
  H   H299      1.0  0.90567  0.82581  0.51265  1.0000
  Fe  Fe50      1.0  0.86352  0.92547  0.54281  1.0000
  S   S102      1.0  0.83512  0.91338  0.51238  1.0000
  S   S103      1.0  0.91101  0.93035  0.59544  1.0000
  S   S104      1.0  0.92575  0.95852  0.54828  1.0000
  Fe  Fe51      1.0  0.55472  0.63652  0.63012  1.0000
  Fe  Fe52      1.0  0.62533  0.70104  0.61992  1.0000
  C   C298      1.0  0.80582  0.96705  0.35208  1.0000
  S   S105      1.0  0.64831  0.75080  0.59742  1.0000
  H   H300      1.0  0.98332  0.50596  0.54794  1.0000
  N   N26       1.0  0.76296  0.97819  0.40031  1.0000
  S   S106      1.0  0.61642  0.63098  0.60967  1.0000
  H   H301      1.0  0.69460  0.80804  0.57138  1.0000
  Fe  Fe53      1.0  0.94662  0.91583  0.40474  1.0000
  S   S107      1.0  0.89649  0.86705  0.39883  1.0000
  S   S108      1.0  0.95303  0.95226  0.43453  1.0000
  H   H302      1.0  0.75961  0.85177  0.57610  1.0000
  S   S109      1.0  0.94425  0.85274  0.35335  1.0000
  Fe  Fe54      1.0  0.89237  0.89936  0.36868  1.0000
  S   S110      1.0  0.82748  0.91245  0.35435  1.0000
  Fe  Fe55      1.0  0.95242  0.82476  0.38415  1.0000
  H   H303      1.0  0.81365  0.56587  0.34906  1.0000
  H   H304      1.0  0.74469  0.52879  0.35642  1.0000
  H   H305      1.0  0.63091  0.85287  0.60721  1.0000
  S   S111      1.0  0.90531  0.57406  0.35794  1.0000
  C   C299      1.0  0.94854  0.70544  0.38469  1.0000
  H   H306      1.0  0.70305  0.65291  0.55124  1.0000
  C   C300      1.0  0.94751  0.62504  0.38579  1.0000
  C   C301      1.0  0.92208  0.62412  0.36879  1.0000
  C   C302      1.0  0.90998  0.66410  0.35980  1.0000
  C   C303      1.0  0.92297  0.70459  0.36774  1.0000
  H   H307      1.0  0.70678  0.75681  0.63084  1.0000
  H   H308      1.0  0.89027  0.66378  0.34666  1.0000
  H   H309      1.0  0.91328  0.73505  0.36070  1.0000
  H   H310      1.0  0.77210  0.63128  0.62441  1.0000
  C   C304      1.0  0.69266  0.64970  0.56743  1.0000
  C   C305      1.0  0.92719  0.82413  0.48096  1.0000
  Fe  Fe56      1.0  0.88975  0.98753  0.57647  1.0000
  H   H311      1.0  0.66306  0.67195  0.57103  1.0000
  H   H312      1.0  0.86540  0.96103  0.41655  1.0000
  S   S112      1.0  0.96805  0.75514  0.39461  1.0000
  C   C306      1.0  0.86629  0.92659  0.49062  1.0000
  C   C307      1.0  0.85685  0.90819  0.47173  1.0000
  C   C308      1.0  0.88292  0.91609  0.45432  1.0000
  C   C309      1.0  0.91807  0.94315  0.45568  1.0000
  H   H313      1.0  0.96758  0.83779  0.59977  1.0000
  C   C310      1.0  0.90104  0.95408  0.49190  1.0000
  H   H314      1.0  0.82983  0.88704  0.47068  1.0000
  H   H315      1.0  0.87598  0.90086  0.43999  1.0000
  H   H316      1.0  0.95717  0.59458  0.39284  1.0000
  C   C311      1.0  0.92667  0.96254  0.47445  1.0000
  C   C312      1.0  0.76974  0.82932  0.60619  1.0000
  C   C313      1.0  0.74839  0.83075  0.58797  1.0000
  C   C314      1.0  0.71156  0.80598  0.58535  1.0000
  C   C315      1.0  0.69615  0.77930  0.60081  1.0000
  C   C316      1.0  0.71827  0.77701  0.61879  1.0000
  C   C317      1.0  0.75477  0.80206  0.62148  1.0000
  C   C318      1.0  0.64473  0.87299  0.61943  1.0000
  H   H317      1.0  0.98074  0.66571  0.40669  1.0000
  H   H318      1.0  0.98893  0.77767  0.30672  1.0000
  H   H319      1.0  0.96504  0.87216  0.52326  1.0000
  Fe  Fe57      1.0  0.91470  0.50474  0.37015  1.0000
  C   C319      1.0  0.80137  0.95604  0.40461  1.0000
  S   S113      1.0  0.56083  0.70812  0.63793  1.0000
  C   C320      1.0  0.92980  0.83603  0.50148  1.0000
  H   H320      1.0  0.68370  0.61513  0.56941  1.0000
  N   N27       1.0  0.72758  0.66128  0.58065  1.0000
  C   C321      1.0  0.75136  0.69680  0.57637  1.0000
  C   C322      1.0  0.73479  0.63803  0.59770  1.0000
  C   C323      1.0  0.78395  0.70934  0.58911  1.0000
  C   C324      1.0  0.76689  0.64978  0.61085  1.0000
  C   C325      1.0  0.79155  0.68574  0.60650  1.0000
  H   H321      1.0  0.70626  0.94166  0.40252  1.0000
  H   H322      1.0  0.74441  0.71638  0.56332  1.0000
  H   H323      1.0  0.71547  0.61037  0.60133  1.0000
  H   H324      1.0  0.80208  0.73815  0.58590  1.0000
  C   C326      1.0  0.77456  0.50944  0.62242  1.0000
  C   C327      1.0  0.76631  0.97451  0.34247  1.0000
  C   C328      1.0  0.83868  0.51601  0.32690  1.0000
  H   H325      1.0  0.77124  0.80073  0.63560  1.0000
  H   H326      1.0  0.75158  0.94727  0.33508  1.0000
  S   S114      1.0  0.82561  0.95846  0.56979  1.0000
  C   C329      1.0  0.72866  0.95454  0.39074  1.0000
  H   H327      1.0  0.86904  0.53195  0.32409  1.0000
  H   H328      1.0  0.90107  0.80398  0.47648  1.0000
  H   H329      1.0  0.74303  0.92661  0.38084  1.0000
  C   C330      1.0  0.95355  0.82560  0.44531  1.0000
  H   H330      1.0  0.79471  0.51865  0.63467  1.0000
  H   H331      1.0  0.62449  0.90430  0.62185  1.0000
  S   S115      1.0  0.93811  0.95182  0.37586  1.0000
  H   H332      1.0  0.90801  0.96912  0.50628  1.0000
  C   C331      1.0  0.98856  0.98922  0.61503  1.0000
  H   H333      1.0  0.81599  0.69579  0.61676  1.0000
  N   N28       1.0  0.95626  0.83888  0.46672  1.0000
  H   H334      1.0  0.99365  0.78735  0.62604  1.0000
  H   H335      1.0  0.96384  0.85220  0.43528  1.0000
  H   H336      1.0  0.67305  0.53068  0.60510  1.0000
  C   C332      1.0  0.70609  0.51643  0.60577  1.0000
  C   C333      1.0  0.83440  0.97815  0.41375  1.0000
  C   C334      1.0  0.96080  0.66549  0.39362  1.0000
  C   C335      1.0  0.96286  0.86247  0.50741  1.0000
  Fe  Fe58      1.0  0.99072  0.90377  0.36254  1.0000
  H   H337      1.0  0.80717  0.92142  0.40034  1.0000
  C   C336      1.0  0.80734  0.53543  0.34101  1.0000
  C   C337      1.0  0.73190  0.52860  0.62165  1.0000
  H   H338      1.0  0.95049  0.53025  0.58189  1.0000
  Fe  Fe59      1.0  0.65182  0.61291  0.63750  1.0000
  C   C338      1.0  0.97838  0.54637  0.57548  1.0000
  N   N29       1.0  0.64584  0.84903  0.63834  1.0000
  H   H339      1.0  0.91950  0.81901  0.44163  1.0000
  C   C339      1.0  0.76876  0.51456  0.34515  1.0000
  H   H340      1.0  0.95363  0.98377  0.47557  1.0000
  H   H341      1.0  0.58761  0.81637  0.63281  1.0000
  H   H342      1.0  0.98238  0.59042  0.60121  1.0000
  H   H343      1.0  0.97486  0.79537  0.44161  1.0000
  C   C340      1.0  0.98881  0.86485  0.47241  1.0000
  H   H344      1.0  0.98426  0.71424  0.32962  1.0000
  C   C341      1.0  0.98619  0.96705  0.63327  1.0000
  C   C342      1.0  0.99260  0.87703  0.49283  1.0000
  Fe  Fe60      1.0  0.67398  0.59623  0.81264  1.0000
  S   S116      1.0  0.64634  0.66150  0.80283  1.0000
  S   S117      1.0  0.63072  0.54029  0.80593  1.0000
  Fe  Fe61      1.0  0.75920  0.63561  0.82623  1.0000
  S   S118      1.0  0.73647  0.70420  0.81826  1.0000
  S   S119      1.0  0.82645  0.61348  0.83697  1.0000
  Fe  Fe62      1.0  0.67047  0.68803  0.83203  1.0000
  S   S120      1.0  0.62183  0.72224  0.85518  1.0000
  Fe  Fe63      1.0  0.71390  0.67126  0.78991  1.0000
  S   S121      1.0  0.73489  0.68935  0.75817  1.0000
  S   S122      1.0  0.69517  0.62172  0.84248  1.0000
  S   S123      1.0  0.73976  0.60362  0.79722  1.0000
  H   H345      1.0  0.64573  0.78927  0.68921  1.0000
  C   C343      1.0  0.55125  0.85814  0.84916  1.0000
  C   C344      1.0  0.68321  0.58200  0.73284  1.0000
  Fe  Fe64      1.0  0.59987  0.68350  0.66370  1.0000
  S   S124      1.0  0.58625  0.71161  0.69545  1.0000
  C   C345      1.0  0.69342  0.69655  0.74090  1.0000
  C   C346      1.0  0.64962  0.70379  0.74760  1.0000
  C   C347      1.0  0.61707  0.70931  0.73351  1.0000
  C   C348      1.0  0.62806  0.70659  0.71266  1.0000
  C   C349      1.0  0.67190  0.69957  0.70593  1.0000
  C   C350      1.0  0.70454  0.69489  0.72004  1.0000
  H   H346      1.0  0.64085  0.70585  0.76364  1.0000
  H   H347      1.0  0.58323  0.71516  0.73878  1.0000
  H   H348      1.0  0.68074  0.69800  0.68990  1.0000
  H   H349      1.0  0.73846  0.68963  0.71481  1.0000
  C   C351      1.0  0.87481  0.64236  0.83374  1.0000
  C   C352      1.0  0.91545  0.62077  0.83729  1.0000
  C   C353      1.0  0.95481  0.64181  0.83390  1.0000
  C   C354      1.0  0.95378  0.68492  0.82712  1.0000
  C   C355      1.0  0.91314  0.70680  0.82395  1.0000
  C   C356      1.0  0.87387  0.68561  0.82713  1.0000
  H   H350      1.0  0.91648  0.58735  0.84248  1.0000
  H   H351      1.0  0.50728  0.53627  0.88322  1.0000
  H   H352      1.0  0.91196  0.74022  0.81878  1.0000
  H   H353      1.0  0.84286  0.70268  0.82443  1.0000
  C   C357      1.0  0.60419  0.80020  0.83562  1.0000
  C   C358      1.0  0.59545  0.77478  0.85246  1.0000
  C   C359      1.0  0.56446  0.79116  0.86758  1.0000
  C   C360      1.0  0.61321  0.82183  0.64324  1.0000
  H   H354      1.0  0.62806  0.78792  0.82391  1.0000
  H   H355      1.0  0.55767  0.77176  0.88070  1.0000
  H   H356      1.0  0.55871  0.60867  0.73869  1.0000
  H   H357      1.0  0.59724  0.60857  0.70498  1.0000
  H   H358      1.0  0.93600  0.71256  0.76741  1.0000
  H   H359      1.0  0.85495  0.71939  0.76707  1.0000
  H   H360      1.0  0.66559  0.61315  0.68572  1.0000
  H   H361      1.0  0.68292  0.55641  0.68913  1.0000
  H   H362      1.0  0.84965  0.59063  0.79154  1.0000
  C   C361      1.0  0.60980  0.50929  0.82601  1.0000
  H   H363      1.0  0.98584  0.62463  0.83650  1.0000
  C   C362      1.0  0.59366  0.60066  0.73718  1.0000
  S   S125      1.0  0.71197  0.56729  0.64089  1.0000
  C   C363      1.0  0.67907  0.83388  0.66983  1.0000
  H   H364      1.0  0.71830  0.57503  0.73138  1.0000
  H   H365      1.0  0.60062  0.59070  0.76915  1.0000
  H   H366      1.0  0.93045  0.58461  0.79143  1.0000
  N   N30       1.0  0.93792  0.64811  0.77931  1.0000
  C   C364      1.0  0.61258  0.80032  0.66166  1.0000
  C   C365      1.0  0.58230  0.84185  0.83405  1.0000
  C   C366      1.0  0.84713  0.65512  0.77890  1.0000
  H   H367      1.0  0.68045  0.57371  0.76530  1.0000
  H   H368      1.0  0.56372  0.58426  0.89540  1.0000
  N   N31       1.0  0.65998  0.59164  0.71619  1.0000
  H   H369      1.0  0.57836  0.63609  0.83594  1.0000
  C   C367      1.0  0.61569  0.60054  0.71813  1.0000
  H   H370      1.0  0.65121  0.53444  0.84849  1.0000
  H   H371      1.0  0.58941  0.86144  0.82103  1.0000
  C   C368      1.0  0.86849  0.61697  0.78563  1.0000
  C   C369      1.0  0.61711  0.59091  0.75424  1.0000
  C   C370      1.0  0.64586  0.80618  0.67495  1.0000
  S   S126      1.0  0.66434  0.68265  0.64642  1.0000
  H   H372      1.0  0.81169  0.65832  0.77919  1.0000
  S   S127      1.0  0.52328  0.90982  0.84628  1.0000
  C   C371      1.0  0.91723  0.68544  0.77243  1.0000
  C   C372      1.0  0.66212  0.58142  0.75208  1.0000
  C   C373      1.0  0.57416  0.61395  0.86651  1.0000
  C   C374      1.0  0.91420  0.61394  0.78567  1.0000
  H   H373      1.0  0.52203  0.58739  0.82416  1.0000
  C   C375      1.0  0.67828  0.85560  0.65145  1.0000
  C   C376      1.0  0.53031  0.58725  0.83992  1.0000
  C   C377      1.0  0.87154  0.68956  0.77218  1.0000
  H   H374      1.0  0.71642  0.60042  0.69680  1.0000
  C   C378      1.0  0.68233  0.59021  0.69602  1.0000
  C   C379      1.0  0.54230  0.83261  0.86592  1.0000
  H   H375      1.0  0.98213  0.73763  0.86435  1.0000
  C   C380      1.0  0.62507  0.51315  0.84555  1.0000
  S   S128      1.0  0.59010  0.61232  0.65718  1.0000
  C   C381      1.0  0.55402  0.58582  0.87986  1.0000
  C   C382      1.0  0.56228  0.61474  0.84643  1.0000
  N   N32       1.0  0.51077  0.55966  0.85310  1.0000
  H   H376      1.0  0.59933  0.63483  0.87161  1.0000
  H   H377      1.0  0.70523  0.83852  0.68003  1.0000
  H   H378      1.0  0.58641  0.77921  0.66566  1.0000
  H   H379      1.0  0.70430  0.87702  0.64752  1.0000
  H   H380      1.0  0.51849  0.84484  0.87767  1.0000
  H   H381      1.0  0.54222  0.98542  0.87145  1.0000
  H   H382      1.0  0.99227  0.80275  0.84702  1.0000
  C   C383      1.0  0.98585  0.64386  0.77909  1.0000
  C   C384      1.0  0.52202  0.55889  0.87289  1.0000
  H   H383      1.0  0.96459  0.98007  0.64578  1.0000
  H   H384      1.0  0.50787  0.95016  0.97034  1.0000
