data_image0
_chemical_formula_structural       FeS2FeS2FeSFeS4HSH2S2FeSH2S3FeSFeH2S2FeSHSH5NHC2H5CHC8H3C6H4CH2NH3C7H4C6H4C6H4C6H3NCHSH2C2HCH3CHCNC2HCHC2HFeH2C2HC2HC2SH5C2HCHC2HNC5FeH3NHSCSHC2H2CSC2HC2SHFeHCHFeHFeHSFeCH3CNC4NH2C5HSCH2C2SHSH2C3NFeSFeS2H2CSHSCSCNHC2FeS2FeS2FeS2FeCSH2CFeHC2HC2HCH2SCH2C7HCH2CHC3H2C2H4CHC2H2CHS2NCSH3SHCHCH3NCH2CH3SHSC10H2SH5CH2CNCFeSH2SFeCNC2HCH3CHC2NC6H8C2FeCHCSH3CFeC3HCSFeSC7SHSFeCHCH4FeSCH4CHSC2HNH2CH2FeCH3SHSC4SC2HFeS2FeS2FeSFeS3FeS2FeS2FeSFeS3CSHFeSCFeSFeS3H2C6H5C6H4CH4C6H4NC7H2C6H4CH2C4H2C2HFeC3SC2H4SNH3CH3CHCFeC4H2C3S2NC5H3NHC2HC2H2FeH6CH2SHCNH2C2NC6H8NHCHCH5CHCSH3CH5CH2CH3C3HC5H2C5H2CH2FeH2C2FeSFeS2CFeSCSFeS2FeS2FeSFeS3FeS2CSFeSFeS3Fe2CSH3S2FeSHFeS2FeSFeS3FeS2CSFeSFeS3CH2C2HC6H3FeC6H4C6H4C6H7C7H4C6H4C3H2SC6H4C3HC8H3CNCH2C2H3C3H2CH3SHCH4N3HC3H2CNC6H2SHFeH5CHC2HCH2CSH3CHNC6H2CHSFeHCNHCHCSCH2CH2NCHSHCH2CHCHNCH3NHC3H6C4H8CH4C5FeHCH5C3H2CHCHFeS2CHFeS3H2CHCNSC3SHNC2FeS2FeS2FeSFeS3FeS2FeS2FeS2HSHFeS2FeS2FeHFeCS2H3C6H4C6H4C3HC2HCFeHC6H4C6H4C6H2CHNC7H2FeH2CHCHC3HCHCHNCHC2H2SC2HNCH3SH2SC3H5NC2HCH2CNCHC2H2C2H4SC2H4CH4FeNH2C3HC2HC2NHFeHCHSCNC3H3CH3SH2CHCHSCH2CH2CSCHFeC3HCH2CH4FeC2H5CHC2HFeHCHCHSHCSC2H2CHC3H2CH2SCH2SNSC2NSHCSCSHNH2S2C2H3SC3H2C4H8CHC6H2SHCHC2H2CHCH6CH2CFeCHFeSCHC3H2FeNH2SH2CHC6H4SFeCH2CHCFeC3H2CNC4HSCHCHCFeH3C4HCH2C2NCH2C2H2CH5SHCHC2NHC2HFeS2FeS2FeSFeS3CFeS2FeSHSNCFeS2CSFeS3HSCSFeSC2SHFeS3CFeSFeSHFe2SC2SFeCFe2HSHC2HSHCFeC3HSHCSNC2SHNHCHSHC5H3CFeC11H4C6H4C2H5C6FeCH2C6H4C6H4CHCHNC6H13CH3CH4C2H2CH2FeCH3C5H3CH2CH3C2H2CSCNHSC2H3SCH2C3H2FeNCH2NHCH2CHSHC2H4CSFeS4Fe2SCSFeS2FeS2FeSFeS3H2FeSCFeS2HSFeS2CH2S2HFeS2HFeSC2HC6H3C6H4C6H4C7H4C6H4C3FeH2CHSHC6H4CNC2H4NC6H8CH2CHC3HNH2CH3CHNC4HCH3C4HNCH4CNCH2NHSHC2HCH2C2FeCFeHCHCHSH4CSHCH2CH2C2HCHSHFeSFeS2FeS3HSFeS2FeS2FeSFeS4CH2S2HSFeS2FeS2FeSFeS2CFeC7H2CFeH2FeCHC4H3C6H4C6H4CNC5H3CHC6HCHC6H2CHCHFeNC3FeCH3C3HCHSCH3CHCHNFe2SNHCH5CHCHS3NC2NCH3C2H3CHCHCH3SC4H3SH3C3HC2HSH9CHCHNC6H8C2NCH3CHNH3C3H2CNH3CHFeC2NH2C2SCHCH2CSNS2CSFeSHFeS2FeS2FeSFeS4FeSHFeS2FeS2FeSFeS3FeSC2SHSH2SC6H4C6H4C6H4C6H5NC3HC6H4C6H3C6H4NC6H8NHC2FeC2HC3HCH2NC2NCFeC2H2FeSHS2H2CHCH3C2HC2H2C3H5NH2C2H2CSCH3CHC2H3CHC3H5CH2FeCHC2H4C2HNCFeHC2HNH3CHSCSH4CH3C2HCH5CH3SCS2C2H2FeSHFeS2FeS2FeSFeS3H2FeS2FeS2FeSFeS3HCFeS2C6H3C7H4C6H4C6H4C6H3C2HCH2C6H4C7H4NC2H3C2H2CHSC2N3HC2FeHCH4CHNHCH2SCSC2H6CHCHNCH2SH2CH2CSFeHNC2HCHNC6H8CSCHC2H2SCSCSHCH5FeHC5H3CH2CHCH4SFeS3FeSHSH2S2FeH2FeS2FeS2FeSFeS4CSHCSHSFeSFeSHFeSFeSHSHC6H4C6H4C2NC2H3C4HCH4SC6H5FeCFeC6H2SC2H4C4H2CHSH2CHSHCFeCHC3NH2NH2CH3CH2NHCHS2H2C2H2FeH3CH2CFeCSHCHC3H2C7H2FeH2NC3HSHC4NC6H8CHFeCFeHCNC5SHC3HC4HCSCH4NCH2C3H3C2H2CNH2S2NC3HCFeCH2NFeNSFeSFeSHFeSFeS3H2SCSCFeHFeSHFeS2FeSFeS3FeS2FeS2FeSFeHS2C7H4C3HC6HCHSHCH2C2SH2C7H2C9H2C6SH3C6H4C5H3C3SH4FeHC3H2SFeSCHCH4CHCHCH2CH2NC3H6CHCHCHC3HC2HCHCHFeSCSC2H2C2HSH3NH2SNHNS2FeH7C2NC6H9C2HC2H3C3HCHNCH6SH2SCSCH3CHCHC3FeS2FeS2FeSFeS3CHSHCSHFeSFeSCHFeS2FeS2FeSFeS3H2SFeS2C7H2SC6H4C6H4C6H4C6H4C6H5CSHCHSCH2C6H4NC6H8CH3NHFeH2C4HC2H2CHCNC2H6NCHCFe2SHCHCH2CSCHCSCNC6H8NH3NCHC2HCNCHNFeC4H3C2H8SCS2HSCHFeSC2HFeSHSH2SFe2SFeS2FeS2FeSFeS3NSHFeS2FeS2FeSFeS4C6H4C6H4C6H4C6H4C6HCH2C7H4SC6H3C2HC2HCH2SCH3C2H2C3HCHCHC2HCHFeCSNC3HCHCHCH3CHC2HNC6H8CH3SHC2HSH4NC6H9FeNC2H2CH2NH2CHC2HCH2CH2NFeHS2CHCH2C3FeHSHSFeSCHSHSCFeS2FeSFeSFeS3FeCS2C2HSNFeS2CHFeSFeS2FeSFeS3HC3HNC2HCH2C4HFeH3C7H3C7H6CHCH2NSC7H4C6H5C6SH4NHSH2NC6FeCHCHC4SC2H3C2H2C2NH4C3SHSC2H5CH2CSCHSCHNC6HFeH3CH3C3NH2CFeHSH2CHSHCH7C2FeCNHCHSNCH4CHCH2FeSHCHCHCFeS2FeS2FeSFeS3FeS2FeS2FeS2CFeC2NHS2FeSFeSC2HSH2FeCSHS2HCFeS2CHCH4CHCH3NC3H2C6H4C6H3C7H4C6H4C6H4C6H4CHC2H3CNS2HSFeCH6C2FeCHCH4C2HCHCHFeC2NCH2C2NC6H9FeH2C2H4CHC3NHNHC2SC2H2C2H3SFeSHCH2NHCHC3SH2NCHFeHSCFeS2FeSHSFeS2FeS2FeSFeS3FeS2FeS2CSFeSHFeHSHSCFeS2H2FeHFeS3H3FeC4HCHCH3CHFeCH4C2HFeHC2H2CHC6H4C6H4C6HCH2C6NHC6H4C6H4C2HC2H4SH3CHC2H3FeCHNC6H6SHNCHCHC2HSC2H3CS2CHCH2SHC3H3C2SC2H2SCH3C2HCH2FeNC3H2CH3NSCSC3HSH2NCNH3SCH3C2HC2H4FeC3H2CSFeSCHSCSHFeSFeSHCH2SHC2SHCSH2CSC2FeS2CFeSFeCFeHSHCHSC3H4C4H2CNCHC2FeNFeCHCHC6H3FeH2CHCFeC7H5CH3CHCNC3SH5C4HSHCH3SHCH4CNHCSH2C3HC3HSHCHC5H2SCHCHFeH2C4H2SCFeHCHCN2HCNHC2S2C3HCH5C2H2CHFeSHCH3CHSHFeHCHFeHCSHSCH2CHSCHSHSFeS2HFeSCHFeS2FeS2FeSFeHS2H2FeS2CSC3FeS2FeS2CFeCS2HC4HNC6H4C6H4C6H4C6H4C6H4C3H3SCSH3SH2CH3CH2C2SH2C7NH2CH2C2HCHSHCH2FeH3CNHNC2HNH3Fe2HC2H2CHSCNHC2HFeHS2C2SH2NCHCHC2HSH2C3HC6SNHNH2CH3CH3CHC2H5CHCH2C2HC3SHC2H2C5H2CHFeCHC3H5SH2FeHC2H2CFeS2FeS2FeSFeS3FeS4C2HSCFeS2FeS2HCNHFeS2FeS2FeSFeS3FeS2CHFeSFeS5FeS2FeSFeS3C6H4C6H4C6H4C6H4CH3SH3C2H2C7H6CH2C6H4C6H4C6H4NCHCHFeCFeH2FeC2H5CHNHCH2NHC3H3FeC4HNC6H13C9H4C2H2C2H2C5HN2CSCHNC6H8C2FeHNC5H3CHNH4CH2C2H2CH3NH3CHCH2CHC2NHCH2CSHC3HSFeCS3C2NHC2HCHSH2CSHFeS2FeS2FeSFeS4H3CSFeHSH3FeS2FeS2FeSFeS3C2H2C2H4C6H4C6H4C6H4C7H4C3H3C3SCH2CHC6H4C6H4C2HNC6H4CHSHC3H3CHSHFe2CNC6H6SH3CHC3NSH7C2HCH2CNH2CSH2CNHCHCH3NFeH2C2H2FeSCHCH2CHCSCHC3Fe2HS2HC2HC4FeH2C3SH3SCFeS2FeS2FeS2FeS2C2HC8HCHC2H2CHCSHC3HC6HCNH6SFeCHCHC2HS2HC2HCHSH2CHC4H2CHCNC2HC3H3SHCH6SHFeC2HC2H2CH2CHCNSCHSHCH4CS2H2CNCH5C2FeH2CHC3FeSHCHSH2CSC2SCSHSH2Fe2CSFeHSFeCHCS3FeCSFeS2HSCSCSFeS2FeS2FeSFeS3H2SC2HS2H3SHNCH3FeC2HC6H4C6H4C6H8C6H5Fe2CH2C6H4C6H5S2HCHCH3S2HSH5C5N3HCH4CH5NFeCHC2HCNC6H6SHC2SHCHCSFeCH2CHCNC6H2CHC2HFeC2HNFeNCHCFeSHCFeH3FeH3CH2
_chemical_formula_sum              "Fe400 S800 H2400 N200 C2400"
_cell_length_a       81.6299
_cell_length_b       80.3914
_cell_length_c       59.5154
_cell_angle_alpha    80.0084
_cell_angle_beta     79.997
_cell_angle_gamma    103.462

_space_group_name_H-M_alt    "P 1"
_space_group_IT_number       1

loop_
  _space_group_symop_operation_xyz
  'x, y, z'

loop_
  _atom_site_type_symbol
  _atom_site_label
  _atom_site_symmetry_multiplicity
  _atom_site_fract_x
  _atom_site_fract_y
  _atom_site_fract_z
  _atom_site_occupancy
  Fe  Fe1       1.0  0.11761  0.10921  0.38699  1.0000
  S   S1        1.0  0.12603  0.10564  0.35077  1.0000
  S   S2        1.0  0.12373  0.09484  0.41922  1.0000
  Fe  Fe2       1.0  0.09648  0.13382  0.37122  1.0000
  S   S3        1.0  0.10320  0.13208  0.33350  1.0000
  S   S4        1.0  0.07936  0.15009  0.38426  1.0000
  Fe  Fe3       1.0  0.09846  0.10317  0.34826  1.0000
  S   S5        1.0  0.08199  0.07821  0.34212  1.0000
  Fe  Fe4       1.0  0.13026  0.13490  0.33951  1.0000
  S   S6        1.0  0.15550  0.15025  0.31355  1.0000
  S   S7        1.0  0.08987  0.10498  0.38545  1.0000
  S   S8        1.0  0.12375  0.13858  0.37622  1.0000
  S   S9        1.0  0.00621  0.01730  0.01524  1.0000
  H   H1        1.0  0.16905  0.17445  0.38048  1.0000
  S   S10       1.0  0.12854  0.01759  0.41728  1.0000
  H   H2        1.0  0.21270  0.32626  0.00977  1.0000
  H   H3        1.0  0.17685  0.11247  0.34649  1.0000
  S   S11       1.0  0.12134  0.15757  0.99761  1.0000
  S   S12       1.0  0.14743  0.13162  0.99368  1.0000
  Fe  Fe5       1.0  0.11890  0.12853  0.00510  1.0000
  S   S13       1.0  0.10186  0.10806  0.03654  1.0000
  H   H4        1.0  0.23200  0.27804  0.99595  1.0000
  H   H5        1.0  0.10545  0.05503  0.36030  1.0000
  S   S14       1.0  0.00537  0.04414  0.23786  1.0000
  S   S15       1.0  0.99916  0.03590  0.29502  1.0000
  S   S16       1.0  0.02545  0.01852  0.26474  1.0000
  Fe  Fe6       1.0  0.02176  0.04532  0.26448  1.0000
  S   S17       1.0  0.04335  0.07007  0.25914  1.0000
  Fe  Fe7       1.0  0.00728  0.01656  0.24023  1.0000
  H   H6        1.0  0.20986  0.25186  0.02174  1.0000
  H   H7        1.0  0.23546  0.26890  0.21770  1.0000
  S   S18       1.0  0.03896  0.06192  0.00671  1.0000
  S   S19       1.0  0.20243  0.22367  0.32130  1.0000
  Fe  Fe8       1.0  0.22014  0.24024  0.06608  1.0000
  S   S20       1.0  0.19451  0.22275  0.06299  1.0000
  H   H8        1.0  0.06718  0.04884  0.19948  1.0000
  S   S21       1.0  0.22018  0.26558  0.07738  1.0000
  H   H9        1.0  0.08433  0.10261  0.29822  1.0000
  H   H10       1.0  0.11993  0.08946  0.00056  1.0000
  H   H11       1.0  0.18824  0.16631  0.35176  1.0000
  H   H12       1.0  0.01978  0.07313  0.14796  1.0000
  H   H13       1.0  0.15687  0.10406  0.38574  1.0000
  N   N1        1.0  0.21042  0.17675  0.03749  1.0000
  H   H14       1.0  0.18264  0.24031  0.25498  1.0000
  C   C1        1.0  0.19138  0.28390  0.03418  1.0000
  C   C2        1.0  0.22031  0.27949  0.00634  1.0000
  H   H15       1.0  0.19273  0.14383  0.32964  1.0000
  H   H16       1.0  0.03232  0.10479  0.01181  1.0000
  H   H17       1.0  0.22966  0.18096  0.00629  1.0000
  H   H18       1.0  0.00589  0.11784  0.35885  1.0000
  H   H19       1.0  0.05881  0.09757  0.98915  1.0000
  C   C3        1.0  0.03234  0.05292  0.15672  1.0000
  H   H20       1.0  0.06342  0.16054  0.31645  1.0000
  C   C4        1.0  0.23501  0.20051  0.05165  1.0000
  C   C5        1.0  0.17909  0.19325  0.00658  1.0000
  C   C6        1.0  0.19577  0.20469  0.00265  1.0000
  C   C7        1.0  0.20069  0.21399  0.01955  1.0000
  C   C8        1.0  0.18890  0.21202  0.04056  1.0000
  C   C9        1.0  0.17218  0.20075  0.04436  1.0000
  C   C10       1.0  0.16729  0.19138  0.02752  1.0000
  C   C11       1.0  0.99576  0.02123  0.18270  1.0000
  H   H21       1.0  0.21364  0.22246  0.01640  1.0000
  H   H22       1.0  0.16295  0.19912  0.06055  1.0000
  H   H23       1.0  0.15445  0.18260  0.03083  1.0000
  C   C12       1.0  0.05473  0.07523  0.01745  1.0000
  C   C13       1.0  0.06281  0.09245  0.00472  1.0000
  C   C14       1.0  0.07637  0.10303  0.01171  1.0000
  C   C15       1.0  0.08260  0.09618  0.03072  1.0000
  C   C16       1.0  0.07416  0.07914  0.04396  1.0000
  C   C17       1.0  0.06013  0.06870  0.03745  1.0000
  H   H24       1.0  0.22901  0.30708  0.06354  1.0000
  H   H25       1.0  0.08219  0.11643  0.00213  1.0000
  H   H26       1.0  0.07882  0.07380  0.05881  1.0000
  H   H27       1.0  0.05396  0.05542  0.04737  1.0000
  C   C18       1.0  0.00720  0.09183  0.46820  1.0000
  H   H28       1.0  0.18009  0.28550  0.04528  1.0000
  H   H29       1.0  0.10351  0.03202  0.36792  1.0000
  N   N2        1.0  0.00063  0.08336  0.98902  1.0000
  H   H30       1.0  0.09128  0.01581  0.40727  1.0000
  H   H31       1.0  0.15268  0.15812  0.40231  1.0000
  H   H32       1.0  0.02136  0.09729  0.46121  1.0000
  C   C19       1.0  0.03040  0.07532  0.17848  1.0000
  C   C20       1.0  0.12607  0.07365  0.41872  1.0000
  C   C21       1.0  0.12364  0.06148  0.43982  1.0000
  C   C22       1.0  0.12466  0.04426  0.43969  1.0000
  C   C23       1.0  0.12847  0.03930  0.41840  1.0000
  C   C24       1.0  0.13144  0.05162  0.39735  1.0000
  C   C25       1.0  0.13009  0.06868  0.39750  1.0000
  H   H33       1.0  0.12060  0.06527  0.45631  1.0000
  H   H34       1.0  0.12235  0.03482  0.45601  1.0000
  H   H35       1.0  0.13451  0.04786  0.38086  1.0000
  H   H36       1.0  0.13221  0.07793  0.38116  1.0000
  C   C26       1.0  0.05711  0.13981  0.39517  1.0000
  C   C27       1.0  0.04987  0.12268  0.39332  1.0000
  C   C28       1.0  0.03187  0.11547  0.39974  1.0000
  C   C29       1.0  0.02101  0.12532  0.40802  1.0000
  C   C30       1.0  0.02827  0.14215  0.41090  1.0000
  C   C31       1.0  0.04629  0.14941  0.40435  1.0000
  H   H37       1.0  0.05803  0.11523  0.38607  1.0000
  H   H38       1.0  0.02631  0.10245  0.39741  1.0000
  H   H39       1.0  0.01998  0.14989  0.41712  1.0000
  H   H40       1.0  0.05183  0.16268  0.40583  1.0000
  C   C32       1.0  0.18977  0.20326  0.31851  1.0000
  C   C33       1.0  0.19598  0.19353  0.30330  1.0000
  C   C34       1.0  0.18518  0.17754  0.30154  1.0000
  C   C35       1.0  0.16823  0.17092  0.31532  1.0000
  C   C36       1.0  0.16211  0.18053  0.33073  1.0000
  C   C37       1.0  0.17281  0.19663  0.33220  1.0000
  H   H41       1.0  0.20911  0.19816  0.29309  1.0000
  H   H42       1.0  0.19006  0.17012  0.28970  1.0000
  H   H43       1.0  0.14911  0.17562  0.34142  1.0000
  H   H44       1.0  0.16787  0.20407  0.34400  1.0000
  C   C38       1.0  0.07122  0.07664  0.31900  1.0000
  C   C39       1.0  0.05884  0.06090  0.32031  1.0000
  C   C40       1.0  0.05006  0.05889  0.30222  1.0000
  C   C41       1.0  0.05373  0.07257  0.28250  1.0000
  C   C42       1.0  0.06601  0.08841  0.28123  1.0000
  C   C43       1.0  0.07470  0.09048  0.29948  1.0000
  H   H45       1.0  0.05606  0.05016  0.33537  1.0000
  H   H46       1.0  0.04063  0.04665  0.30337  1.0000
  H   H47       1.0  0.06894  0.09902  0.26597  1.0000
  N   N3        1.0  0.16959  0.14802  0.38029  1.0000
  C   C44       1.0  0.10048  0.07372  0.98684  1.0000
  H   H48       1.0  0.99097  0.02553  0.19818  1.0000
  S   S22       1.0  0.01560  0.00595  0.20853  1.0000
  H   H49       1.0  0.19603  0.23932  0.27567  1.0000
  H   H50       1.0  0.08104  0.06983  0.42869  1.0000
  C   C45       1.0  0.04093  0.10568  0.33473  1.0000
  C   C46       1.0  0.11723  0.07982  0.99001  1.0000
  H   H51       1.0  0.23848  0.22045  0.20004  1.0000
  C   C47       1.0  0.00818  0.01038  0.14220  1.0000
  H   H52       1.0  0.18400  0.25564  0.04679  1.0000
  H   H53       1.0  0.05125  0.04956  0.22417  1.0000
  H   H54       1.0  0.04806  0.03061  0.21184  1.0000
  C   C48       1.0  0.20068  0.22793  0.22405  1.0000
  H   H55       1.0  0.21121  0.22445  0.18975  1.0000
  C   C49       1.0  0.00751  0.01108  0.18327  1.0000
  N   N4        1.0  0.04889  0.13576  0.33798  1.0000
  C   C50       1.0  0.05343  0.12162  0.33149  1.0000
  C   C51       1.0  0.03199  0.13460  0.34718  1.0000
  H   H56       1.0  0.04180  0.07376  0.20847  1.0000
  C   C52       1.0  0.01916  0.11886  0.35064  1.0000
  H   H57       1.0  0.19360  0.17524  0.06998  1.0000
  C   C53       1.0  0.06209  0.15246  0.33413  1.0000
  C   C54       1.0  0.19345  0.26701  0.03505  1.0000
  H   H58       1.0  0.02839  0.14569  0.35271  1.0000
  Fe  Fe9       1.0  0.23532  0.25723  0.10355  1.0000
  H   H59       1.0  0.09037  0.07863  0.99517  1.0000
  H   H60       1.0  0.02947  0.04676  0.14247  1.0000
  C   C55       1.0  0.21840  0.22670  0.25165  1.0000
  C   C56       1.0  0.05314  0.04516  0.20742  1.0000
  H   H61       1.0  0.17488  0.16296  0.40551  1.0000
  C   C57       1.0  0.20801  0.26485  0.02099  1.0000
  C   C58       1.0  0.18134  0.15265  0.35933  1.0000
  H   H62       1.0  0.06679  0.12254  0.32396  1.0000
  C   C59       1.0  0.16382  0.11769  0.37815  1.0000
  C   C60       1.0  0.22842  0.22231  0.21311  1.0000
  S   S23       1.0  0.23338  0.23107  0.09412  1.0000
  H   H63       1.0  0.02616  0.08679  0.18116  1.0000
  H   H64       1.0  0.00873  0.07747  0.02101  1.0000
  H   H65       1.0  0.19939  0.15045  0.03586  1.0000
  H   H66       1.0  0.18891  0.22988  0.21933  1.0000
  H   H67       1.0  0.18129  0.21942  0.27366  1.0000
  C   C61       1.0  0.19770  0.16374  0.03038  1.0000
  C   C62       1.0  0.16120  0.13075  0.39004  1.0000
  H   H68       1.0  0.20501  0.20619  0.98653  1.0000
  C   C63       1.0  0.18411  0.13996  0.34684  1.0000
  H   H69       1.0  0.99289  0.05575  0.99318  1.0000
  C   C64       1.0  0.17514  0.12240  0.35624  1.0000
  C   C65       1.0  0.02420  0.10227  0.99947  1.0000
  H   H70       1.0  0.15212  0.12698  0.40690  1.0000
  N   N5        1.0  0.09090  0.04226  0.39481  1.0000
  C   C66       1.0  0.08776  0.05711  0.40068  1.0000
  C   C67       1.0  0.08850  0.02752  0.41182  1.0000
  C   C68       1.0  0.08270  0.05773  0.42415  1.0000
  C   C69       1.0  0.08323  0.02760  0.43546  1.0000
  C   C70       1.0  0.08046  0.04285  0.44163  1.0000
  Fe  Fe10      1.0  0.14972  0.16061  0.98351  1.0000
  H   H71       1.0  0.08967  0.06873  0.38717  1.0000
  H   H72       1.0  0.19900  0.16687  0.01107  1.0000
  H   H73       1.0  0.08184  0.01608  0.44889  1.0000
  N   N6        1.0  0.20351  0.22911  0.24580  1.0000
  H   H74       1.0  0.22760  0.30748  0.99461  1.0000
  S   S24       1.0  0.17430  0.18066  0.98558  1.0000
  C   C71       1.0  0.22650  0.18418  0.02319  1.0000
  S   S25       1.0  0.02323  0.01907  0.06194  1.0000
  H   H75       1.0  0.01395  0.09195  0.34737  1.0000
  C   C72       1.0  0.21777  0.29616  0.00576  1.0000
  C   C73       1.0  0.02371  0.10431  0.34444  1.0000
  H   H76       1.0  0.07480  0.15028  0.33586  1.0000
  H   H77       1.0  0.05877  0.15993  0.34756  1.0000
  C   C74       1.0  0.16644  0.16155  0.39282  1.0000
  S   S26       1.0  0.23180  0.26552  0.27450  1.0000
  C   C75       1.0  0.19018  0.23217  0.26332  1.0000
  C   C76       1.0  0.20643  0.18083  0.05880  1.0000
  H   H78       1.0  0.21969  0.26900  0.18549  1.0000
  C   C77       1.0  0.21861  0.19281  0.06614  1.0000
  C   C78       1.0  0.23195  0.26580  0.18328  1.0000
  S   S27       1.0  0.99857  0.11733  0.41109  1.0000
  H   H79       1.0  0.19059  0.31714  0.00856  1.0000
  Fe  Fe11      1.0  0.99751  0.02102  0.08066  1.0000
  H   H80       1.0  0.07692  0.04324  0.45994  1.0000
  C   C79       1.0  0.20068  0.31567  0.01849  1.0000
  H   H81       1.0  0.08507  0.03970  0.36203  1.0000
  Fe  Fe12      1.0  0.00126  0.00881  0.29317  1.0000
  H   H82       1.0  0.18427  0.16364  0.03821  1.0000
  Fe  Fe13      1.0  0.02015  0.03796  0.03144  1.0000
  H   H83       1.0  0.04469  0.03385  0.17046  1.0000
  S   S28       1.0  0.22618  0.26017  0.14077  1.0000
  Fe  Fe14      1.0  0.22913  0.24232  0.30350  1.0000
  C   C80       1.0  0.09647  0.04214  0.37007  1.0000
  H   H84       1.0  0.21518  0.19642  0.08273  1.0000
  H   H85       1.0  0.19664  0.31776  0.03637  1.0000
  H   H86       1.0  0.04461  0.09442  0.32988  1.0000
  C   C81       1.0  0.01075  0.08684  0.00463  1.0000
  N   N7        1.0  0.04406  0.05301  0.19108  1.0000
  C   C82       1.0  0.03922  0.06786  0.19390  1.0000
  C   C83       1.0  0.04097  0.04570  0.17260  1.0000
  C   C84       1.0  0.21311  0.22459  0.20735  1.0000
  C   C85       1.0  0.02687  0.06771  0.15986  1.0000
  N   N8        1.0  0.20349  0.29820  0.01967  1.0000
  H   H87       1.0  0.22062  0.22761  0.26889  1.0000
  H   H88       1.0  0.14363  0.07888  0.98058  1.0000
  C   C86       1.0  0.13044  0.07370  0.97907  1.0000
  C   C87       1.0  0.99026  0.02593  0.16196  1.0000
  C   C88       1.0  0.01367  0.00564  0.16299  1.0000
  C   C89       1.0  0.23348  0.31911  0.05016  1.0000
  C   C90       1.0  0.99645  0.02057  0.14164  1.0000
  H   H89       1.0  0.01304  0.00620  0.12663  1.0000
  S   S29       1.0  0.99581  0.04157  0.05105  1.0000
  C   C91       1.0  0.23110  0.22335  0.23540  1.0000
  H   H90       1.0  0.00116  0.09210  0.45281  1.0000
  H   H91       1.0  0.07143  0.04529  0.98432  1.0000
  C   C92       1.0  0.02744  0.11407  0.97803  1.0000
  C   C93       1.0  0.23866  0.26149  0.16230  1.0000
  S   S30       1.0  0.23855  0.30582  0.30360  1.0000
  H   H92       1.0  0.21647  0.33202  0.06787  1.0000
  S   S31       1.0  0.98949  0.02740  0.11594  1.0000
  H   H93       1.0  0.01731  0.15049  0.77694  1.0000
  H   H94       1.0  0.06508  0.32288  0.88346  1.0000
  C   C94       1.0  0.03827  0.31008  0.62541  1.0000
  C   C95       1.0  0.03809  0.00455  0.52544  1.0000
  C   C96       1.0  0.01531  0.21575  0.81150  1.0000
  N   N9        1.0  0.01962  0.21136  0.87307  1.0000
  Fe  Fe15      1.0  0.08707  0.02618  0.83993  1.0000
  S   S32       1.0  0.07110  0.03652  0.81629  1.0000
  Fe  Fe16      1.0  0.10453  0.03888  0.87813  1.0000
  S   S33       1.0  0.10134  0.05985  0.89812  1.0000
  S   S34       1.0  0.11402  0.04131  0.83952  1.0000
  H   H95       1.0  0.16905  0.01000  0.56830  1.0000
  H   H96       1.0  0.07723  0.17270  0.91212  1.0000
  C   C97       1.0  0.01983  0.00581  0.85285  1.0000
  S   S35       1.0  0.15357  0.11428  0.93503  1.0000
  H   H97       1.0  0.22802  0.05847  0.77569  1.0000
  S   S36       1.0  0.11066  0.01320  0.88940  1.0000
  C   C98       1.0  0.03871  0.29706  0.66559  1.0000
  S   S37       1.0  0.21175  0.01360  0.54182  1.0000
  C   C99       1.0  0.99208  0.07561  0.82427  1.0000
  N   N10       1.0  0.01177  0.00352  0.69968  1.0000
  H   H98       1.0  0.01266  0.12728  0.77837  1.0000
  C   C100      1.0  0.99452  0.04036  0.51063  1.0000
  C   C101      1.0  0.08285  0.15152  0.93428  1.0000
  Fe  Fe17      1.0  0.00117  0.28326  0.55083  1.0000
  S   S38       1.0  0.01788  0.31185  0.53989  1.0000
  S   S39       1.0  0.00728  0.25896  0.56817  1.0000
  Fe  Fe18      1.0  0.01589  0.25994  0.78626  1.0000
  S   S40       1.0  0.01283  0.27699  0.81212  1.0000
  S   S41       1.0  0.02709  0.23657  0.79363  1.0000
  Fe  Fe19      1.0  0.00462  0.28277  0.74868  1.0000
  S   S42       1.0  0.00057  0.30150  0.77205  1.0000
  S   S43       1.0  0.00068  0.29031  0.71119  1.0000
  Fe  Fe20      1.0  0.02573  0.30004  0.78200  1.0000
  C   C102      1.0  0.20071  0.05502  0.78697  1.0000
  S   S44       1.0  0.03077  0.28305  0.75645  1.0000
  H   H99       1.0  0.16359  0.01089  0.77216  1.0000
  H   H100      1.0  0.19499  0.02246  0.74653  1.0000
  C   C103      1.0  0.02912  0.22667  0.85767  1.0000
  Fe  Fe21      1.0  0.08386  0.00033  0.88609  1.0000
  H   H101      1.0  0.17301  0.04815  0.79601  1.0000
  C   C104      1.0  0.02382  0.20252  0.81526  1.0000
  C   C105      1.0  0.98946  0.25005  0.67761  1.0000
  H   H102      1.0  0.99522  0.19723  0.89566  1.0000
  C   C106      1.0  0.05723  0.12940  0.91842  1.0000
  C   C107      1.0  0.99635  0.06528  0.80864  1.0000
  H   H103      1.0  0.99083  0.02989  0.67270  1.0000
  C   C108      1.0  0.21523  0.05203  0.77390  1.0000
  H   H104      1.0  0.03309  0.28449  0.67891  1.0000
  H   H105      1.0  0.06125  0.30743  0.81359  1.0000
  S   S45       1.0  0.11360  0.12477  0.97056  1.0000
  C   C109      1.0  0.05239  0.31215  0.53711  1.0000
  H   H106      1.0  0.07950  0.31332  0.53258  1.0000
  H   H107      1.0  0.04834  0.29811  0.53862  1.0000
  C   C110      1.0  0.07937  0.05623  0.96956  1.0000
  C   C111      1.0  0.11657  0.07480  0.90745  1.0000
  C   C112      1.0  0.11051  0.08639  0.91956  1.0000
  C   C113      1.0  0.12183  0.09858  0.92773  1.0000
  C   C114      1.0  0.13935  0.09929  0.92409  1.0000
  C   C115      1.0  0.14554  0.08782  0.91166  1.0000
  C   C116      1.0  0.13414  0.07552  0.90335  1.0000
  H   H108      1.0  0.09695  0.08606  0.92250  1.0000
  C   C117      1.0  0.18423  0.04616  0.78520  1.0000
  H   H109      1.0  0.15914  0.08834  0.90865  1.0000
  H   H110      1.0  0.13891  0.06662  0.89392  1.0000
  C   C118      1.0  0.02168  0.24043  0.85215  1.0000
  H   H111      1.0  0.18812  0.02162  0.51398  1.0000
  C   C119      1.0  0.19831  0.02201  0.82946  1.0000
  C   C120      1.0  0.18693  0.02921  0.84277  1.0000
  C   C121      1.0  0.16902  0.02409  0.84389  1.0000
  H   H112      1.0  0.19203  0.03901  0.85197  1.0000
  H   H113      1.0  0.16044  0.02996  0.85384  1.0000
  C   C122      1.0  0.06578  0.12234  0.93460  1.0000
  C   C123      1.0  0.07834  0.13334  0.94272  1.0000
  H   H114      1.0  0.08467  0.12767  0.95522  1.0000
  H   H115      1.0  0.99926  0.16053  0.80843  1.0000
  H   H116      1.0  0.02647  0.07845  0.49440  1.0000
  H   H117      1.0  0.08430  0.31786  0.83430  1.0000
  C   C124      1.0  0.05220  0.00927  0.50626  1.0000
  H   H118      1.0  0.02834  0.26726  0.65125  1.0000
  C   C125      1.0  0.04205  0.02713  0.79934  1.0000
  C   C126      1.0  0.05606  0.02190  0.80607  1.0000
  H   H119      1.0  0.07936  0.05197  0.95273  1.0000
  H   H120      1.0  0.04078  0.04012  0.80027  1.0000
  C   C127      1.0  0.98966  0.19632  0.83905  1.0000
  H   H121      1.0  0.03783  0.19707  0.86383  1.0000
  S   S46       1.0  0.99833  0.12707  0.90914  1.0000
  S   S47       1.0  0.14616  0.15930  0.94693  1.0000
  N   N11       1.0  0.03564  0.29529  0.64244  1.0000
  C   C128      1.0  0.07387  0.15864  0.91866  1.0000
  S   S48       1.0  0.02064  0.13376  0.85475  1.0000
  H   H122      1.0  0.00847  0.06994  0.79574  1.0000
  H   H123      1.0  0.11693  0.10757  0.93649  1.0000
  H   H124      1.0  0.07306  0.06713  0.96881  1.0000
  S   S49       1.0  0.09159  0.99955  0.84828  1.0000
  H   H125      1.0  0.12390  0.01145  0.54059  1.0000
  C   C129      1.0  0.10972  0.05541  0.96295  1.0000
  H   H126      1.0  0.16266  0.03007  0.75174  1.0000
  C   C130      1.0  0.14688  0.01291  0.55438  1.0000
  H   H127      1.0  0.99448  0.25268  0.71160  1.0000
  H   H128      1.0  0.99843  0.24895  0.85800  1.0000
  H   H129      1.0  0.20222  0.06359  0.79912  1.0000
  N   N12       1.0  0.18230  0.03457  0.77089  1.0000
  C   C131      1.0  0.17366  0.00399  0.81912  1.0000
  H   H130      1.0  0.20019  0.00358  0.80755  1.0000
  H   H131      1.0  0.04156  0.01909  0.86506  1.0000
  C   C132      1.0  0.19691  0.00003  0.52967  1.0000
  H   H132      1.0  0.01935  0.04830  0.51900  1.0000
  H   H133      1.0  0.01915  0.13559  0.80242  1.0000
  H   H134      1.0  0.03743  0.32051  0.58965  1.0000
  S   S50       1.0  0.00620  0.09636  0.82200  1.0000
  H   H135      1.0  0.06285  0.10824  0.94066  1.0000
  S   S51       1.0  0.07739  0.02573  0.87738  1.0000
  C   C133      1.0  0.07907  0.32728  0.82463  1.0000
  C   C134      1.0  0.00359  0.01286  0.65661  1.0000
  C   C135      1.0  0.01707  0.11044  0.96222  1.0000
  C   C136      1.0  0.13239  0.00425  0.54736  1.0000
  C   C137      1.0  0.21317  0.04034  0.75915  1.0000
  C   C138      1.0  0.99855  0.02065  0.67490  1.0000
  C   C139      1.0  0.00262  0.01568  0.69652  1.0000
  C   C140      1.0  0.02949  0.01554  0.79189  1.0000
  C   C141      1.0  0.00448  0.23853  0.86261  1.0000
  C   C142      1.0  0.01429  0.06917  0.49513  1.0000
  H   H136      1.0  0.03360  0.19873  0.89414  1.0000
  H   H137      1.0  0.22443  0.03785  0.74904  1.0000
  S   S52       1.0  0.04327  0.11479  0.90673  1.0000
  H   H138      1.0  0.10699  0.04618  0.95188  1.0000
  H   H139      1.0  0.99800  0.02128  0.71090  1.0000
  H   H140      1.0  0.02224  0.17648  0.83430  1.0000
  H   H141      1.0  0.04236  0.22815  0.84892  1.0000
  H   H142      1.0  0.02292  0.26431  0.61239  1.0000
  C   C143      1.0  0.06786  0.00573  0.50894  1.0000
  H   H143      1.0  0.05096  0.01560  0.48930  1.0000
  H   H144      1.0  0.02741  0.29112  0.58135  1.0000
  C   C144      1.0  0.06595  0.32129  0.81294  1.0000
  N   N13       1.0  0.00294  0.07397  0.48256  1.0000
  C   C145      1.0  0.98938  0.14858  0.80956  1.0000
  Fe  Fe22      1.0  0.02119  0.11978  0.89079  1.0000
  S   S53       1.0  0.14020  0.00573  0.83090  1.0000
  H   H145      1.0  0.05454  0.15316  0.89823  1.0000
  H   H146      1.0  0.00585  0.19381  0.51482  1.0000
  S   S54       1.0  0.10032  0.16549  0.94163  1.0000
  Fe  Fe23      1.0  0.11828  0.01455  0.85052  1.0000
  C   C146      1.0  0.02750  0.27726  0.61576  1.0000
  N   N14       1.0  0.09699  0.06202  0.97302  1.0000
  C   C147      1.0  0.16232  0.01154  0.83191  1.0000
  C   C148      1.0  0.16498  0.02524  0.76921  1.0000
  H   H147      1.0  0.03716  0.20499  0.80626  1.0000
  C   C149      1.0  0.05770  0.00514  0.80477  1.0000
  H   H148      1.0  0.01802  0.18410  0.88319  1.0000
  H   H149      1.0  0.99116  0.17290  0.49356  1.0000
  H   H150      1.0  0.01961  0.11947  0.94543  1.0000
  C   C150      1.0  0.19650  0.03168  0.75783  1.0000
  H   H151      1.0  0.14991  0.02699  0.55287  1.0000
  C   C151      1.0  0.19158  0.00929  0.81772  1.0000
  C   C152      1.0  0.06100  0.14761  0.91082  1.0000
  N   N15       1.0  0.11865  0.13069  0.88654  1.0000
  C   C153      1.0  0.10143  0.12885  0.88763  1.0000
  C   C154      1.0  0.12702  0.12061  0.87510  1.0000
  C   C155      1.0  0.09183  0.11583  0.87860  1.0000
  C   C156      1.0  0.11787  0.10762  0.86554  1.0000
  C   C157      1.0  0.10011  0.10503  0.86772  1.0000
  C   C158      1.0  0.12827  0.14383  0.89718  1.0000
  H   H152      1.0  0.09497  0.13731  0.89584  1.0000
  H   H153      1.0  0.14068  0.12204  0.87424  1.0000
  H   H154      1.0  0.07800  0.11397  0.88037  1.0000
  H   H155      1.0  0.12432  0.09902  0.85754  1.0000
  H   H156      1.0  0.09275  0.09447  0.86133  1.0000
  H   H157      1.0  0.11975  0.14594  0.91259  1.0000
  H   H158      1.0  0.13890  0.13946  0.90373  1.0000
  H   H159      1.0  0.13377  0.15653  0.88424  1.0000
  C   C159      1.0  0.03542  0.30879  0.60316  1.0000
  C   C160      1.0  0.03482  0.00688  0.86137  1.0000
  Fe  Fe24      1.0  0.99643  0.13918  0.87279  1.0000
  C   C161      1.0  0.00368  0.09489  0.96795  1.0000
  H   H160      1.0  0.02908  0.25224  0.83917  1.0000
  C   C162      1.0  0.12666  0.06125  0.96568  1.0000
  S   S55       1.0  0.01860  0.00890  0.52134  1.0000
  H   H161      1.0  0.05279  0.30142  0.66473  1.0000
  H   H162      1.0  0.01860  0.01960  0.78708  1.0000
  H   H163      1.0  0.01488  0.01722  0.84979  1.0000
  C   C163      1.0  0.99836  0.18335  0.84342  1.0000
  Fe  Fe25      1.0  0.11768  0.15378  0.96193  1.0000
  C   C164      1.0  0.99314  0.25944  0.69492  1.0000
  C   C165      1.0  0.01153  0.13733  0.78883  1.0000
  C   C166      1.0  0.03058  0.27902  0.63776  1.0000
  H   H164      1.0  0.03237  0.30670  0.67207  1.0000
  C   C167      1.0  0.07008  0.32083  0.53357  1.0000
  S   S56       1.0  0.22082  0.02991  0.82716  1.0000
  Fe  Fe26      1.0  0.00262  0.10821  0.85350  1.0000
  S   S57       1.0  0.04286  0.32663  0.78446  1.0000
  C   C168      1.0  0.02989  0.29226  0.59842  1.0000
  C   C169      1.0  0.01538  0.18635  0.83109  1.0000
  C   C170      1.0  0.99517  0.27755  0.69056  1.0000
  C   C171      1.0  0.00281  0.20946  0.88370  1.0000
  C   C172      1.0  0.99497  0.22298  0.87856  1.0000
  C   C173      1.0  0.04013  0.32173  0.53785  1.0000
  C   C174      1.0  0.02769  0.19715  0.87891  1.0000
  S   S58       1.0  0.13085  0.00113  0.48405  1.0000
  H   H165      1.0  0.00248  0.10053  0.47886  1.0000
  S   S59       1.0  0.00520  0.09389  0.88764  1.0000
  Fe  Fe27      1.0  0.14207  0.13026  0.95818  1.0000
  C   C175      1.0  0.99807  0.21245  0.82314  1.0000
  H   H166      1.0  0.07876  0.00954  0.49417  1.0000
  C   C176      1.0  0.01032  0.05225  0.50917  1.0000
  H   H167      1.0  0.15469  0.02699  0.78282  1.0000
  H   H168      1.0  0.23540  0.00346  0.48872  1.0000
  H   H169      1.0  0.99586  0.09208  0.95535  1.0000
  H   H170      1.0  0.99137  0.22251  0.82033  1.0000
  Fe  Fe28      1.0  0.23422  0.00603  0.55511  1.0000
  S   S60       1.0  0.99692  0.22177  0.53388  1.0000
  C   C177      1.0  0.99384  0.19500  0.51025  1.0000
  H   H171      1.0  0.99118  0.02732  0.52177  1.0000
  H   H172      1.0  0.13691  0.05665  0.95674  1.0000
  H   H173      1.0  0.04249  0.32297  0.62903  1.0000
  H   H174      1.0  0.04674  0.32550  0.48750  1.0000
  C   C178      1.0  0.18655  0.00762  0.51678  1.0000
  H   H175      1.0  0.16628  0.00331  0.49763  1.0000
  S   S61       1.0  0.99002  0.25870  0.77709  1.0000
  C   C179      1.0  0.99342  0.28609  0.66868  1.0000
  C   C180      1.0  0.15753  0.00338  0.56320  1.0000
  H   H176      1.0  0.99502  0.30011  0.66508  1.0000
  N   N16       1.0  0.99351  0.13534  0.80011  1.0000
  H   H177      1.0  0.06856  0.00109  0.80973  1.0000
  H   H178      1.0  0.99474  0.05846  0.92312  1.0000
  C   C181      1.0  0.01263  0.00025  0.66011  1.0000
  H   H179      1.0  0.01493  0.00789  0.73344  1.0000
  H   H180      1.0  0.99987  0.01601  0.64006  1.0000
  Fe  Fe29      1.0  0.98940  0.24414  0.54868  1.0000
  C   C182      1.0  0.98985  0.27671  0.65131  1.0000
  H   H181      1.0  0.03814  0.12588  0.97352  1.0000
  H   H182      1.0  0.10276  0.63950  0.40115  1.0000
  H   H183      1.0  0.23332  0.50844  0.16433  1.0000
  S   S62       1.0  0.21823  0.40129  0.38700  1.0000
  H   H184      1.0  0.01916  0.48648  0.30762  1.0000
  S   S63       1.0  0.21732  0.41234  0.01575  1.0000
  C   C183      1.0  0.06041  0.47446  0.28174  1.0000
  C   C184      1.0  0.14638  0.48907  0.12726  1.0000
  C   C185      1.0  0.23239  0.49614  0.21865  1.0000
  C   C186      1.0  0.20918  0.40414  0.45551  1.0000
  S   S64       1.0  0.05780  0.52319  0.99220  1.0000
  C   C187      1.0  0.23699  0.53630  0.15413  1.0000
  C   C188      1.0  0.22642  0.33327  0.05258  1.0000
  H   H185      1.0  0.06911  0.54891  0.02116  1.0000
  Fe  Fe30      1.0  0.05493  0.47189  0.39926  1.0000
  S   S65       1.0  0.03485  0.48691  0.40160  1.0000
  S   S66       1.0  0.05459  0.45432  0.43363  1.0000
  Fe  Fe31      1.0  0.06951  0.48841  0.34745  1.0000
  S   S67       1.0  0.05081  0.50477  0.34608  1.0000
  S   S68       1.0  0.08895  0.48766  0.31556  1.0000
  Fe  Fe32      1.0  0.05639  0.50978  0.38027  1.0000
  S   S69       1.0  0.05641  0.53598  0.38876  1.0000
  Fe  Fe33      1.0  0.03075  0.48052  0.36752  1.0000
  S   S70       1.0  0.00465  0.47718  0.35797  1.0000
  S   S71       1.0  0.07689  0.49542  0.38020  1.0000
  S   S72       1.0  0.04900  0.46347  0.36667  1.0000
  Fe  Fe34      1.0  0.13476  0.54422  0.13441  1.0000
  S   S73       1.0  0.13308  0.52509  0.16767  1.0000
  S   S74       1.0  0.12764  0.54008  0.09987  1.0000
  Fe  Fe35      1.0  0.15298  0.57599  0.15225  1.0000
  S   S75       1.0  0.15316  0.55927  0.18673  1.0000
  S   S76       1.0  0.15971  0.60570  0.13920  1.0000
  Fe  Fe36      1.0  0.16053  0.54040  0.16539  1.0000
  S   S77       1.0  0.17768  0.52253  0.17301  1.0000
  Fe  Fe37      1.0  0.12592  0.54509  0.18681  1.0000
  S   S78       1.0  0.10399  0.54182  0.21797  1.0000
  S   S79       1.0  0.16270  0.55826  0.13086  1.0000
  S   S80       1.0  0.12522  0.56301  0.15367  1.0000
  C   C189      1.0  0.19164  0.44384  0.45049  1.0000
  S   S81       1.0  0.06826  0.45085  0.02346  1.0000
  H   H186      1.0  0.19977  0.43045  0.37780  1.0000
  Fe  Fe38      1.0  0.06002  0.49551  0.00084  1.0000
  S   S82       1.0  0.04560  0.47802  0.03570  1.0000
  C   C190      1.0  0.00451  0.43005  0.00719  1.0000
  Fe  Fe39      1.0  0.07148  0.47441  0.03979  1.0000
  S   S83       1.0  0.07861  0.47483  0.07516  1.0000
  Fe  Fe40      1.0  0.04345  0.45616  0.01643  1.0000
  S   S84       1.0  0.01926  0.43320  0.02563  1.0000
  S   S85       1.0  0.08598  0.49326  0.00610  1.0000
  S   S86       1.0  0.12135  0.43071  0.45048  1.0000
  H   H187      1.0  0.07240  0.47154  0.27494  1.0000
  H   H188      1.0  0.01487  0.45564  0.98420  1.0000
  C   C191      1.0  0.11428  0.52151  0.09354  1.0000
  C   C192      1.0  0.10490  0.50664  0.11091  1.0000
  C   C193      1.0  0.09433  0.49229  0.10491  1.0000
  C   C194      1.0  0.09288  0.49275  0.08160  1.0000
  C   C195      1.0  0.10240  0.50757  0.06423  1.0000
  C   C196      1.0  0.11309  0.52183  0.07018  1.0000
  H   H189      1.0  0.10575  0.50621  0.12894  1.0000
  H   H190      1.0  0.08701  0.48085  0.11846  1.0000
  H   H191      1.0  0.10145  0.50807  0.04624  1.0000
  H   H192      1.0  0.12037  0.53326  0.05661  1.0000
  H   H193      1.0  0.18446  0.65043  0.09374  1.0000
  C   C197      1.0  0.22704  0.51886  0.16214  1.0000
  C   C198      1.0  0.20889  0.51491  0.16768  1.0000
  C   C199      1.0  0.20051  0.52829  0.16494  1.0000
  C   C200      1.0  0.21042  0.54571  0.15642  1.0000
  C   C201      1.0  0.22860  0.54969  0.15121  1.0000
  C   C202      1.0  0.03072  0.48314  0.30004  1.0000
  H   H194      1.0  0.20131  0.50140  0.17417  1.0000
  H   H195      1.0  0.20410  0.55613  0.15433  1.0000
  H   H196      1.0  0.02269  0.52522  0.37637  1.0000
  H   H197      1.0  0.16561  0.54697  0.08128  1.0000
  C   C203      1.0  0.19105  0.39974  0.46190  1.0000
  H   H198      1.0  0.05673  0.44043  0.30127  1.0000
  H   H199      1.0  0.23622  0.56322  0.14511  1.0000
  H   H200      1.0  0.07430  0.47378  0.46975  1.0000
  H   H201      1.0  0.21031  0.43960  0.41136  1.0000
  C   C204      1.0  0.09413  0.50375  0.28912  1.0000
  C   C205      1.0  0.10610  0.50247  0.26988  1.0000
  C   C206      1.0  0.10960  0.51430  0.24807  1.0000
  C   C207      1.0  0.10097  0.52738  0.24531  1.0000
  C   C208      1.0  0.08916  0.52880  0.26461  1.0000
  C   C209      1.0  0.08584  0.51713  0.28646  1.0000
  H   H202      1.0  0.11260  0.49218  0.27178  1.0000
  H   H203      1.0  0.11873  0.51308  0.23334  1.0000
  H   H204      1.0  0.08243  0.53889  0.26262  1.0000
  H   H205      1.0  0.07663  0.51830  0.30110  1.0000
  N   N17       1.0  0.04940  0.46406  0.30186  1.0000
  C   C210      1.0  0.08210  0.55344  0.44637  1.0000
  C   C211      1.0  0.06832  0.55956  0.44070  1.0000
  C   C212      1.0  0.06066  0.55419  0.42287  1.0000
  C   C213      1.0  0.06638  0.54225  0.41105  1.0000
  C   C214      1.0  0.07991  0.53577  0.41701  1.0000
  C   C215      1.0  0.08788  0.54151  0.43449  1.0000
  C   C216      1.0  0.19664  0.43723  0.41155  1.0000
  H   H206      1.0  0.05020  0.55922  0.41840  1.0000
  H   H207      1.0  0.08448  0.52666  0.40781  1.0000
  C   C217      1.0  0.18047  0.64841  0.17728  1.0000
  C   C218      1.0  0.17263  0.65217  0.15862  1.0000
  C   C219      1.0  0.16627  0.63888  0.14725  1.0000
  C   C220      1.0  0.16770  0.62175  0.15438  1.0000
  C   C221      1.0  0.17544  0.61796  0.17312  1.0000
  C   C222      1.0  0.18181  0.63126  0.18449  1.0000
  H   H208      1.0  0.14789  0.42717  0.41263  1.0000
  H   H209      1.0  0.16006  0.64184  0.13299  1.0000
  H   H210      1.0  0.17664  0.60484  0.17874  1.0000
  H   H211      1.0  0.18783  0.62825  0.19895  1.0000
  C   C223      1.0  0.10266  0.43723  0.44639  1.0000
  H   H212      1.0  0.22992  0.33362  0.32296  1.0000
  H   H213      1.0  0.07550  0.64565  0.41841  1.0000
  C   C224      1.0  0.07318  0.44773  0.43809  1.0000
  C   C225      1.0  0.08819  0.45260  0.42038  1.0000
  C   C226      1.0  0.10285  0.44730  0.42451  1.0000
  C   C227      1.0  0.08038  0.54602  0.02762  1.0000
  H   H214      1.0  0.08851  0.46037  0.40346  1.0000
  H   H215      1.0  0.11441  0.45106  0.41067  1.0000
  C   C228      1.0  0.17460  0.53859  0.08322  1.0000
  C   C229      1.0  0.99395  0.44082  0.36730  1.0000
  H   H216      1.0  0.08120  0.53479  0.10623  1.0000
  Fe  Fe41      1.0  0.22551  0.42008  0.97646  1.0000
  C   C230      1.0  0.20814  0.39953  0.41643  1.0000
  C   C231      1.0  0.21772  0.40413  0.43282  1.0000
  C   C232      1.0  0.00479  0.44342  0.98853  1.0000
  S   S87       1.0  0.09153  0.55973  0.46915  1.0000
  C   C233      1.0  0.18147  0.39490  0.44561  1.0000
  C   C234      1.0  0.18999  0.39464  0.42305  1.0000
  H   H217      1.0  0.06574  0.49779  0.25442  1.0000
  H   H218      1.0  0.16751  0.39138  0.45036  1.0000
  H   H219      1.0  0.18250  0.39099  0.41049  1.0000
  H   H220      1.0  0.00474  0.44087  0.37560  1.0000
  S   S88       1.0  0.05577  0.47408  0.98098  1.0000
  N   N18       1.0  0.18524  0.43837  0.43064  1.0000
  H   H221      1.0  0.09636  0.39478  0.46412  1.0000
  H   H222      1.0  0.09852  0.53671  0.43884  1.0000
  H   H223      1.0  0.08647  0.53880  0.01576  1.0000
  C   C235      1.0  0.20261  0.66458  0.11050  1.0000
  H   H224      1.0  0.08990  0.55868  0.02646  1.0000
  H   H225      1.0  0.18045  0.53702  0.06568  1.0000
  H   H226      1.0  0.15894  0.43628  0.44587  1.0000
  C   C236      1.0  0.16798  0.43510  0.43093  1.0000
  H   H227      1.0  0.20349  0.43968  0.45244  1.0000
  C   C237      1.0  0.16165  0.42998  0.41209  1.0000
  Fe  Fe42      1.0  0.23283  0.39266  0.01355  1.0000
  C   C238      1.0  0.05532  0.36951  0.47113  1.0000
  C   C239      1.0  0.22738  0.39579  0.07542  1.0000
  C   C240      1.0  0.01722  0.54323  0.39785  1.0000
  C   C241      1.0  0.06901  0.38469  0.46693  1.0000
  H   H228      1.0  0.01726  0.55997  0.43859  1.0000
  H   H229      1.0  0.99103  0.40385  0.02701  1.0000
  C   C242      1.0  0.04294  0.50741  0.45837  1.0000
  C   C243      1.0  0.16016  0.49953  0.13376  1.0000
  C   C244      1.0  0.01347  0.52754  0.39019  1.0000
  S   S89       1.0  0.07596  0.60231  0.45722  1.0000
  S   S90       1.0  0.22164  0.36570  0.03783  1.0000
  N   N19       1.0  0.07462  0.53521  0.05153  1.0000
  C   C245      1.0  0.06297  0.51914  0.05559  1.0000
  C   C246      1.0  0.08097  0.54095  0.06948  1.0000
  C   C247      1.0  0.05750  0.50827  0.07805  1.0000
  C   C248      1.0  0.07567  0.53047  0.09221  1.0000
  C   C249      1.0  0.06391  0.51399  0.09644  1.0000
  H   H230      1.0  0.05808  0.51457  0.04130  1.0000
  H   H231      1.0  0.03245  0.50714  0.44936  1.0000
  H   H232      1.0  0.04885  0.49521  0.08099  1.0000
  N   N20       1.0  0.06811  0.49813  0.46431  1.0000
  H   H233      1.0  0.06023  0.50541  0.11376  1.0000
  C   C250      1.0  0.04186  0.49379  0.27946  1.0000
  C   C251      1.0  0.05435  0.49721  0.45388  1.0000
  H   H234      1.0  0.08214  0.48684  0.44028  1.0000
  C   C252      1.0  0.16947  0.51575  0.11901  1.0000
  C   C253      1.0  0.17312  0.42839  0.39279  1.0000
  H   H235      1.0  0.23669  0.46881  0.07800  1.0000
  H   H236      1.0  0.13891  0.47658  0.13870  1.0000
  Fe  Fe43      1.0  0.08064  0.47016  0.98923  1.0000
  H   H237      1.0  0.02603  0.46016  0.32722  1.0000
  H   H238      1.0  0.03909  0.50555  0.27092  1.0000
  H   H239      1.0  0.22731  0.48471  0.23381  1.0000
  H   H240      1.0  0.04304  0.44036  0.32842  1.0000
  H   H241      1.0  0.06533  0.45302  0.32103  1.0000
  H   H242      1.0  0.04022  0.33591  0.46244  1.0000
  C   C254      1.0  0.08842  0.36648  0.47144  1.0000
  H   H243      1.0  0.16351  0.49527  0.15029  1.0000
  H   H244      1.0  0.21727  0.38939  0.06764  1.0000
  S   S91       1.0  0.11241  0.64651  0.44839  1.0000
  H   H245      1.0  0.19447  0.45831  0.44804  1.0000
  C   C255      1.0  0.08768  0.43246  0.46419  1.0000
  N   N21       1.0  0.00581  0.54615  0.41547  1.0000
  H   H246      1.0  0.18008  0.52384  0.12435  1.0000
  H   H247      1.0  0.09051  0.55350  0.06628  1.0000
  C   C256      1.0  0.05676  0.48939  0.27013  1.0000
  C   C257      1.0  0.08538  0.65576  0.40524  1.0000
  N   N22       1.0  0.13348  0.58793  0.22914  1.0000
  C   C258      1.0  0.14089  0.60270  0.23617  1.0000
  C   C259      1.0  0.12808  0.58931  0.20854  1.0000
  C   C260      1.0  0.14306  0.61938  0.22241  1.0000
  C   C261      1.0  0.13007  0.60577  0.19436  1.0000
  C   C262      1.0  0.13746  0.62088  0.20149  1.0000
  C   C263      1.0  0.13063  0.57050  0.24407  1.0000
  H   H248      1.0  0.14527  0.60167  0.25241  1.0000
  H   H249      1.0  0.12230  0.57764  0.20287  1.0000
  H   H250      1.0  0.14939  0.63112  0.22760  1.0000
  H   H251      1.0  0.12630  0.60677  0.17766  1.0000
  H   H252      1.0  0.13936  0.63374  0.19047  1.0000
  H   H253      1.0  0.11670  0.56502  0.25272  1.0000
  H   H254      1.0  0.13441  0.56132  0.23348  1.0000
  H   H255      1.0  0.13833  0.57082  0.25773  1.0000
  N   N23       1.0  0.16512  0.52140  0.09838  1.0000
  H   H256      1.0  0.13136  0.48692  0.10089  1.0000
  C   C264      1.0  0.15176  0.51113  0.09175  1.0000
  H   H257      1.0  0.98980  0.45180  0.04168  1.0000
  C   C265      1.0  0.01040  0.56220  0.42422  1.0000
  H   H258      1.0  0.22127  0.50084  0.21441  1.0000
  H   H259      1.0  0.01892  0.57336  0.41016  1.0000
  H   H260      1.0  0.15210  0.44419  0.98487  1.0000
  H   H261      1.0  0.14815  0.51575  0.07557  1.0000
  H   H262      1.0  0.10121  0.36500  0.47213  1.0000
  C   C266      1.0  0.14218  0.49483  0.10605  1.0000
  H   H263      1.0  0.99521  0.50236  0.39526  1.0000
  C   C267      1.0  0.07296  0.43766  0.46000  1.0000
  S   S92       1.0  0.18804  0.66443  0.19274  1.0000
  H   H264      1.0  0.04241  0.37082  0.47099  1.0000
  H   H265      1.0  0.18513  0.54559  0.09055  1.0000
  H   H266      1.0  0.05235  0.48875  0.44169  1.0000
  C   C268      1.0  0.99128  0.41427  0.01265  1.0000
  H   H267      1.0  0.03256  0.65350  0.97943  1.0000
  H   H268      1.0  0.20369  0.65281  0.12159  1.0000
  H   H269      1.0  0.99871  0.56621  0.43115  1.0000
  H   H270      1.0  0.23840  0.49155  0.20350  1.0000
  H   H271      1.0  0.23169  0.40787  0.42792  1.0000
  C   C269      1.0  0.10069  0.65228  0.39545  1.0000
  H   H272      1.0  0.06676  0.39759  0.46353  1.0000
  H   H273      1.0  0.02945  0.55295  0.38978  1.0000
  C   C270      1.0  0.22623  0.41069  0.08389  1.0000
  H   H274      1.0  0.09278  0.49285  0.46270  1.0000
  H   H275      1.0  0.21542  0.41617  0.08230  1.0000
  H   H276      1.0  0.08388  0.66034  0.46610  1.0000
  C   C271      1.0  0.23195  0.34888  0.03519  1.0000
  C   C272      1.0  0.99118  0.45669  0.35721  1.0000
  C   C273      1.0  0.99059  0.53369  0.42594  1.0000
  H   H277      1.0  0.16836  0.42409  0.37825  1.0000
  C   C274      1.0  0.05379  0.44867  0.31376  1.0000
  C   C275      1.0  0.03471  0.46823  0.31109  1.0000
  C   C276      1.0  0.19075  0.43213  0.39240  1.0000
  C   C277      1.0  0.14660  0.43402  0.97637  1.0000
  C   C278      1.0  0.04547  0.51831  0.47405  1.0000
  H   H278      1.0  0.12574  0.66296  0.37244  1.0000
  H   H279      1.0  0.06338  0.56826  0.45023  1.0000
  C   C279      1.0  0.99805  0.51469  0.40088  1.0000
  C   C280      1.0  0.19173  0.66334  0.09475  1.0000
  C   C281      1.0  0.08565  0.38312  0.46717  1.0000
  C   C282      1.0  0.11368  0.66567  0.37935  1.0000
  C   C283      1.0  0.07993  0.48739  0.45910  1.0000
  H   H280      1.0  0.21669  0.40779  0.46806  1.0000
  H   H281      1.0  0.12254  0.44107  0.97731  1.0000
  C   C284      1.0  0.99174  0.44114  0.97578  1.0000
  H   H282      1.0  0.17136  0.66528  0.15311  1.0000
  H   H283      1.0  0.18195  0.43751  0.46719  1.0000
  Fe  Fe44      1.0  0.09211  0.62264  0.47169  1.0000
  H   H284      1.0  0.06140  0.43396  0.47382  1.0000
  H   H285      1.0  0.23856  0.43068  0.09974  1.0000
  C   C285      1.0  0.11875  0.40877  0.77838  1.0000
  C   C286      1.0  0.17531  0.57490  0.71946  1.0000
  Fe  Fe45      1.0  0.15232  0.39969  0.49867  1.0000
  S   S93       1.0  0.14600  0.42520  0.50008  1.0000
  Fe  Fe46      1.0  0.11398  0.37824  0.51637  1.0000
  S   S94       1.0  0.10496  0.40241  0.51921  1.0000
  S   S95       1.0  0.09833  0.34942  0.52435  1.0000
  C   C287      1.0  0.07575  0.33915  0.53077  1.0000
  Fe  Fe47      1.0  0.12830  0.41099  0.53466  1.0000
  S   S96       1.0  0.12811  0.42134  0.56804  1.0000
  C   C288      1.0  0.08722  0.65370  0.94750  1.0000
  S   S97       1.0  0.13586  0.38588  0.53432  1.0000
  Fe  Fe48      1.0  0.14329  0.39404  0.87306  1.0000
  S   S98       1.0  0.13608  0.41950  0.87013  1.0000
  S   S99       1.0  0.16274  0.38623  0.89328  1.0000
  Fe  Fe49      1.0  0.11435  0.37764  0.84900  1.0000
  S   S100      1.0  0.10507  0.40189  0.84485  1.0000
  S   S101      1.0  0.10158  0.35182  0.83985  1.0000
  Fe  Fe50      1.0  0.13334  0.41657  0.83381  1.0000
  S   S102      1.0  0.14062  0.44068  0.80418  1.0000
  Fe  Fe51      1.0  0.10867  0.40284  0.88120  1.0000
  S   S103      1.0  0.08740  0.40559  0.90900  1.0000
  S   S104      1.0  0.14263  0.39220  0.83563  1.0000
  S   S105      1.0  0.11584  0.37741  0.88648  1.0000
  Fe  Fe52      1.0  0.17672  0.62251  0.66052  1.0000
  S   S106      1.0  0.14965  0.61127  0.65756  1.0000
  S   S107      1.0  0.19615  0.60641  0.66191  1.0000
  C   C289      1.0  0.20252  0.60709  0.60187  1.0000
  S   S108      1.0  0.14406  0.65049  0.65710  1.0000
  Fe  Fe53      1.0  0.14233  0.62648  0.68435  1.0000
  S   S109      1.0  0.12001  0.61077  0.71469  1.0000
  Fe  Fe54      1.0  0.15360  0.63594  0.63066  1.0000
  S   S110      1.0  0.14913  0.63567  0.59379  1.0000
  S   S111      1.0  0.16931  0.63611  0.68922  1.0000
  S   S112      1.0  0.18154  0.64649  0.63183  1.0000
  Fe  Fe55      1.0  0.05479  0.59931  0.48852  1.0000
  Fe  Fe56      1.0  0.07986  0.60129  0.52186  1.0000
  C   C290      1.0  0.05916  0.33326  0.80009  1.0000
  S   S113      1.0  0.08172  0.60223  0.55956  1.0000
  H   H286      1.0  0.18012  0.42244  0.60051  1.0000
  H   H287      1.0  0.02970  0.56128  0.49216  1.0000
  H   H288      1.0  0.15232  0.40436  0.59992  1.0000
  S   S114      1.0  0.07023  0.62171  0.50096  1.0000
  S   S115      1.0  0.06231  0.57875  0.51205  1.0000
  Fe  Fe57      1.0  0.06740  0.61938  0.89196  1.0000
  S   S116      1.0  0.08744  0.60837  0.87345  1.0000
  H   H289      1.0  0.04481  0.36453  0.84026  1.0000
  Fe  Fe58      1.0  0.04111  0.60633  0.86267  1.0000
  S   S117      1.0  0.05944  0.59486  0.84168  1.0000
  S   S118      1.0  0.01460  0.60667  0.85543  1.0000
  Fe  Fe59      1.0  0.06525  0.58489  0.87638  1.0000
  S   S119      1.0  0.06630  0.55675  0.88523  1.0000
  Fe  Fe60      1.0  0.07994  0.61930  0.84042  1.0000
  S   S120      1.0  0.09985  0.63638  0.80820  1.0000
  S   S121      1.0  0.04560  0.59479  0.89748  1.0000
  S   S122      1.0  0.06120  0.63188  0.85881  1.0000
  Fe  Fe61      1.0  0.19689  0.48157  0.62245  1.0000
  S   S123      1.0  0.17641  0.47992  0.65385  1.0000
  S   S124      1.0  0.19359  0.47244  0.58875  1.0000
  C   C291      1.0  0.03905  0.61224  0.79620  1.0000
  S   S125      1.0  0.20789  0.49801  0.67817  1.0000
  Fe  Fe62      1.0  0.19392  0.47102  0.67564  1.0000
  S   S126      1.0  0.18701  0.44646  0.70456  1.0000
  Fe  Fe63      1.0  0.19188  0.50725  0.65368  1.0000
  S   S127      1.0  0.17498  0.52578  0.65869  1.0000
  S   S128      1.0  0.21335  0.47063  0.64425  1.0000
  S   S129      1.0  0.21145  0.50952  0.62071  1.0000
  C   C292      1.0  0.12236  0.65985  0.54724  1.0000
  H   H290      1.0  0.20155  0.39231  0.94778  1.0000
  H   H291      1.0  0.17741  0.61373  0.73447  1.0000
  C   C293      1.0  0.00371  0.57134  0.85542  1.0000
  C   C294      1.0  0.04232  0.66178  0.96443  1.0000
  H   H292      1.0  0.01583  0.57030  0.85974  1.0000
  C   C295      1.0  0.06193  0.54738  0.91535  1.0000
  C   C296      1.0  0.06326  0.55797  0.93163  1.0000
  C   C297      1.0  0.06149  0.55035  0.95533  1.0000
  C   C298      1.0  0.09777  0.64826  0.53282  1.0000
  C   C299      1.0  0.05668  0.52153  0.94662  1.0000
  C   C300      1.0  0.05836  0.52913  0.92295  1.0000
  H   H293      1.0  0.06603  0.57207  0.92588  1.0000
  H   H294      1.0  0.05410  0.50748  0.95228  1.0000
  H   H295      1.0  0.05716  0.52090  0.91042  1.0000
  Fe  Fe64      1.0  0.17192  0.65938  0.66023  1.0000
  C   C301      1.0  0.19030  0.58404  0.66074  1.0000
  C   C302      1.0  0.17325  0.57527  0.66142  1.0000
  C   C303      1.0  0.16884  0.55740  0.66095  1.0000
  C   C304      1.0  0.18147  0.54817  0.65935  1.0000
  C   C305      1.0  0.19860  0.55693  0.65845  1.0000
  C   C306      1.0  0.20297  0.57481  0.65928  1.0000
  H   H296      1.0  0.16335  0.58211  0.66270  1.0000
  H   H297      1.0  0.15556  0.55068  0.66169  1.0000
  H   H298      1.0  0.20842  0.54991  0.65727  1.0000
  H   H299      1.0  0.21622  0.58150  0.65876  1.0000
  C   C307      1.0  0.11592  0.61760  0.74129  1.0000
  C   C308      1.0  0.12327  0.63474  0.74295  1.0000
  C   C309      1.0  0.11859  0.64015  0.76385  1.0000
  C   C310      1.0  0.10659  0.62847  0.78323  1.0000
  C   C311      1.0  0.09952  0.61121  0.78173  1.0000
  C   C312      1.0  0.10421  0.60580  0.76083  1.0000
  H   H300      1.0  0.13225  0.64396  0.72798  1.0000
  H   H301      1.0  0.10114  0.64725  0.58821  1.0000
  H   H302      1.0  0.09027  0.60211  0.79655  1.0000
  H   H303      1.0  0.09851  0.59249  0.75970  1.0000
  C   C313      1.0  0.13063  0.62427  0.58534  1.0000
  C   C314      1.0  0.11469  0.61679  0.60115  1.0000
  C   C315      1.0  0.09998  0.60937  0.59312  1.0000
  C   C316      1.0  0.10104  0.60934  0.56927  1.0000
  C   C317      1.0  0.11715  0.61612  0.55366  1.0000
  C   C318      1.0  0.13185  0.62352  0.56168  1.0000
  H   H304      1.0  0.11357  0.61718  0.61943  1.0000
  H   H305      1.0  0.08759  0.60406  0.60537  1.0000
  H   H306      1.0  0.11819  0.61609  0.53529  1.0000
  H   H307      1.0  0.14416  0.62911  0.54933  1.0000
  H   H308      1.0  0.19201  0.60032  0.73720  1.0000
  H   H309      1.0  0.20956  0.61234  0.58333  1.0000
  H   H310      1.0  0.12370  0.43219  0.75183  1.0000
  C   C319      1.0  0.04706  0.62730  0.80293  1.0000
  C   C320      1.0  0.09128  0.42366  0.92235  1.0000
  C   C321      1.0  0.07871  0.42445  0.94119  1.0000
  C   C322      1.0  0.08180  0.43817  0.95303  1.0000
  C   C323      1.0  0.09755  0.45116  0.94611  1.0000
  C   C324      1.0  0.11003  0.45054  0.92705  1.0000
  C   C325      1.0  0.10690  0.43686  0.91516  1.0000
  H   H311      1.0  0.06657  0.41431  0.94685  1.0000
  H   H312      1.0  0.04074  0.59640  0.77081  1.0000
  H   H313      1.0  0.12224  0.46057  0.92159  1.0000
  H   H314      1.0  0.11663  0.43649  0.90058  1.0000
  C   C326      1.0  0.15482  0.44267  0.77730  1.0000
  C   C327      1.0  0.16231  0.42926  0.77288  1.0000
  C   C328      1.0  0.17250  0.43077  0.75061  1.0000
  C   C329      1.0  0.17533  0.44570  0.73271  1.0000
  C   C330      1.0  0.16815  0.45927  0.73725  1.0000
  C   C331      1.0  0.15788  0.45772  0.75947  1.0000
  H   H315      1.0  0.16003  0.41763  0.78650  1.0000
  H   H316      1.0  0.17804  0.42023  0.74719  1.0000
  H   H317      1.0  0.17020  0.47080  0.72352  1.0000
  H   H318      1.0  0.15208  0.46812  0.76279  1.0000
  C   C332      1.0  0.01268  0.57723  0.48450  1.0000
  C   C333      1.0  0.06558  0.35127  0.79939  1.0000
  C   C334      1.0  0.07858  0.35725  0.81128  1.0000
  H   H319      1.0  0.06046  0.36066  0.78947  1.0000
  H   H320      1.0  0.08323  0.37109  0.81060  1.0000
  S   S130      1.0  0.18088  0.40123  0.48995  1.0000
  C   C335      1.0  0.14593  0.43660  0.57310  1.0000
  C   C336      1.0  0.16063  0.44529  0.55535  1.0000
  C   C337      1.0  0.17478  0.45679  0.56028  1.0000
  C   C338      1.0  0.17457  0.45950  0.58305  1.0000
  C   C339      1.0  0.15981  0.45095  0.60076  1.0000
  C   C340      1.0  0.14555  0.43963  0.59576  1.0000
  H   H321      1.0  0.16111  0.44317  0.53783  1.0000
  H   H322      1.0  0.18611  0.46337  0.54643  1.0000
  H   H323      1.0  0.15944  0.45293  0.61834  1.0000
  H   H324      1.0  0.13420  0.43305  0.60958  1.0000
  C   C341      1.0  0.07153  0.34404  0.90100  1.0000
  C   C342      1.0  0.06344  0.34870  0.53200  1.0000
  C   C343      1.0  0.04364  0.33758  0.47932  1.0000
  H   H325      1.0  0.06759  0.36280  0.52986  1.0000
  C   C344      1.0  0.22826  0.48817  0.73065  1.0000
  C   C345      1.0  0.19638  0.41695  0.93551  1.0000
  C   C346      1.0  0.19497  0.39914  0.93657  1.0000
  C   C347      1.0  0.18483  0.39006  0.92325  1.0000
  C   C348      1.0  0.17590  0.39859  0.90883  1.0000
  C   C349      1.0  0.17742  0.41644  0.90765  1.0000
  C   C350      1.0  0.18765  0.42555  0.92085  1.0000
  C   C351      1.0  0.00480  0.54543  0.49027  1.0000
  H   H326      1.0  0.18378  0.37627  0.92428  1.0000
  H   H327      1.0  0.17071  0.42322  0.89657  1.0000
  H   H328      1.0  0.18868  0.43934  0.91984  1.0000
  C   C352      1.0  0.07117  0.36122  0.90161  1.0000
  N   N24       1.0  0.17487  0.41022  0.57244  1.0000
  C   C353      1.0  0.99992  0.58755  0.85236  1.0000
  H   H329      1.0  0.12408  0.65354  0.76487  1.0000
  H   H330      1.0  0.07677  0.33875  0.47916  1.0000
  C   C354      1.0  0.09384  0.64914  0.57428  1.0000
  C   C355      1.0  0.06445  0.33606  0.88455  1.0000
  H   H331      1.0  0.19551  0.57239  0.60565  1.0000
  H   H332      1.0  0.03638  0.34759  0.53598  1.0000
  H   H333      1.0  0.11223  0.41400  0.79187  1.0000
  C   C356      1.0  0.15601  0.42254  0.96972  1.0000
  C   C357      1.0  0.15563  0.58998  0.60262  1.0000
  C   C358      1.0  0.15406  0.57211  0.60445  1.0000
  H   H334      1.0  0.14450  0.59511  0.60179  1.0000
  H   H335      1.0  0.14165  0.56318  0.60521  1.0000
  C   C359      1.0  0.07028  0.61452  0.74098  1.0000
  H   H336      1.0  0.02685  0.60366  0.80691  1.0000
  H   H337      1.0  0.07754  0.33704  0.91298  1.0000
  H   H338      1.0  0.16713  0.54885  0.71318  1.0000
  S   S131      1.0  0.13140  0.39004  0.48048  1.0000
  H   H339      1.0  0.06441  0.38392  0.88548  1.0000
  C   C360      1.0  0.18347  0.60462  0.72613  1.0000
  H   H340      1.0  0.20084  0.61821  0.61005  1.0000
  H   H341      1.0  0.08364  0.48953  0.89834  1.0000
  H   H342      1.0  0.05710  0.66471  0.90650  1.0000
  H   H343      1.0  0.06278  0.55864  0.96778  1.0000
  N   N25       1.0  0.05739  0.36250  0.86906  1.0000
  N   N26       1.0  0.13289  0.40850  0.95354  1.0000
  N   N27       1.0  0.10497  0.65231  0.55096  1.0000
  H   H344      1.0  0.11633  0.38398  0.80136  1.0000
  C   C361      1.0  0.18070  0.40930  0.54982  1.0000
  C   C362      1.0  0.19666  0.42022  0.53664  1.0000
  C   C363      1.0  0.20671  0.43204  0.54678  1.0000
  H   H345      1.0  0.17296  0.40021  0.54172  1.0000
  H   H346      1.0  0.20111  0.41954  0.51862  1.0000
  C   C364      1.0  0.22631  0.47475  0.71837  1.0000
  N   N28       1.0  0.13427  0.41291  0.73874  1.0000
  C   C365      1.0  0.12533  0.41905  0.75563  1.0000
  C   C366      1.0  0.13653  0.39643  0.74375  1.0000
  C   C367      1.0  0.08707  0.64925  0.92566  1.0000
  C   C368      1.0  0.13006  0.38577  0.76633  1.0000
  C   C369      1.0  0.12118  0.39205  0.78373  1.0000
  C   C370      1.0  0.14081  0.42370  0.71485  1.0000
  H   H347      1.0  0.03706  0.52672  0.47720  1.0000
  H   H348      1.0  0.14350  0.39151  0.73032  1.0000
  S   S132      1.0  0.02753  0.59753  0.48325  1.0000
  H   H349      1.0  0.13197  0.37276  0.77041  1.0000
  Fe  Fe65      1.0  0.12368  0.41464  0.48440  1.0000
  H   H350      1.0  0.13125  0.42037  0.70402  1.0000
  H   H351      1.0  0.14347  0.43794  0.71473  1.0000
  H   H352      1.0  0.15330  0.42167  0.70661  1.0000
  H   H353      1.0  0.12814  0.66283  0.56169  1.0000
  H   H354      1.0  0.13389  0.66110  0.48900  1.0000
  C   C371      1.0  0.05848  0.53216  0.96279  1.0000
  H   H355      1.0  0.21741  0.48889  0.74352  1.0000
  C   C372      1.0  0.12329  0.41921  0.96089  1.0000
  C   C373      1.0  0.06417  0.37038  0.88527  1.0000
  H   H356      1.0  0.08826  0.66035  0.57570  1.0000
  C   C374      1.0  0.16318  0.56029  0.71685  1.0000
  H   H357      1.0  0.07742  0.64590  0.96271  1.0000
  H   H358      1.0  0.09986  0.65621  0.88922  1.0000
  C   C375      1.0  0.07447  0.35160  0.47543  1.0000
  S   S133      1.0  0.06990  0.63178  0.92350  1.0000
  H   H359      1.0  0.21896  0.44081  0.53664  1.0000
  H   H360      1.0  0.11811  0.38294  0.95395  1.0000
  H   H361      1.0  0.99196  0.45162  0.96151  1.0000
  C   C376      1.0  0.06288  0.63806  0.78939  1.0000
  H   H362      1.0  0.99481  0.54386  0.85559  1.0000
  N   N29       1.0  0.09375  0.50887  0.91668  1.0000
  C   C377      1.0  0.09572  0.51195  0.93808  1.0000
  C   C378      1.0  0.09615  0.52258  0.89813  1.0000
  C   C379      1.0  0.09951  0.52907  0.94159  1.0000
  C   C380      1.0  0.10014  0.53989  0.90095  1.0000
  C   C381      1.0  0.10162  0.54310  0.92290  1.0000
  C   C382      1.0  0.08965  0.49078  0.91356  1.0000
  H   H363      1.0  0.09399  0.50110  0.95269  1.0000
  H   H364      1.0  0.08745  0.42482  0.48116  1.0000
  C   C383      1.0  0.07049  0.50853  0.48005  1.0000
  H   H365      1.0  0.10387  0.55640  0.92553  1.0000
  S   S134      1.0  0.10224  0.46804  0.96128  1.0000
  Fe  Fe66      1.0  0.22645  0.49831  0.64516  1.0000
  H   H366      1.0  0.06211  0.61553  0.72799  1.0000
  C   C384      1.0  0.13308  0.66310  0.52496  1.0000
  N   N30       1.0  0.06247  0.61892  0.76251  1.0000
  H   H367      1.0  0.19152  0.61198  0.70861  1.0000
  C   C385      1.0  0.07040  0.63372  0.76902  1.0000
  H   H368      1.0  0.06163  0.52761  0.49683  1.0000
  C   C386      1.0  0.04700  0.60820  0.77582  1.0000
  S   S135      1.0  0.10244  0.60329  0.49314  1.0000
  C   C387      1.0  0.04575  0.34003  0.53547  1.0000
  H   H369      1.0  0.18870  0.57464  0.71766  1.0000
  H   H370      1.0  0.08343  0.62340  0.73285  1.0000
  C   C388      1.0  0.05723  0.34548  0.86876  1.0000
  H   H371      1.0  0.08284  0.64208  0.75882  1.0000
  H   H372      1.0  0.99269  0.58931  0.47699  1.0000
  N   N31       1.0  0.17046  0.58947  0.72361  1.0000
  C   C389      1.0  0.17169  0.60129  0.60188  1.0000
  H   H373      1.0  0.17281  0.61517  0.60040  1.0000
  S   S136      1.0  0.20838  0.42890  0.95262  1.0000
  H   H374      1.0  0.21050  0.60048  0.61173  1.0000
  C   C390      1.0  0.08549  0.34526  0.82390  1.0000
  H   H375      1.0  0.05207  0.33924  0.85575  1.0000
  H   H376      1.0  0.10161  0.48631  0.91105  1.0000
  C   C391      1.0  0.15822  0.39850  0.58608  1.0000
  H   H377      1.0  0.15991  0.38568  0.59417  1.0000
  C   C392      1.0  0.20080  0.43265  0.56999  1.0000
  H   H378      1.0  0.08031  0.48177  0.92925  1.0000
  N   N32       1.0  0.05815  0.35324  0.47548  1.0000
  C   C393      1.0  0.16853  0.56578  0.60536  1.0000
  H   H379      1.0  0.16743  0.55185  0.60721  1.0000
  H   H380      1.0  0.11035  0.41779  0.95792  1.0000
  H   H381      1.0  0.04113  0.63049  0.81883  1.0000
  N   N33       1.0  0.18574  0.59494  0.60315  1.0000
  H   H382      1.0  0.12821  0.57670  0.72203  1.0000
  C   C394      1.0  0.18480  0.42150  0.58269  1.0000
  C   C395      1.0  0.18440  0.57748  0.60453  1.0000
  C   C396      1.0  0.14138  0.57594  0.72158  1.0000
  H   H383      1.0  0.14993  0.60183  0.72736  1.0000
  H   H384      1.0  0.13670  0.54983  0.71518  1.0000
  H   H385      1.0  0.13620  0.39232  0.92909  1.0000
  H   H386      1.0  0.20825  0.44214  0.57790  1.0000
  H   H387      1.0  0.14878  0.39631  0.57478  1.0000
  H   H388      1.0  0.21388  0.46511  0.72208  1.0000
  C   C397      1.0  0.12574  0.39524  0.94118  1.0000
  C   C398      1.0  0.15377  0.59018  0.72450  1.0000
  C   C399      1.0  0.14613  0.56089  0.71780  1.0000
  C   C400      1.0  0.01700  0.56132  0.48918  1.0000
  H   H389      1.0  0.00819  0.53318  0.49418  1.0000
  H   H390      1.0  0.08313  0.63691  0.57764  1.0000
  H   H391      1.0  0.03215  0.33864  0.49156  1.0000
  H   H392      1.0  0.11730  0.39997  0.93021  1.0000
  H   H393      1.0  0.09451  0.52022  0.88116  1.0000
  H   H394      1.0  0.07668  0.36761  0.91428  1.0000
  H   H395      1.0  0.10120  0.55068  0.88649  1.0000
  H   H396      1.0  0.03452  0.64580  0.94043  1.0000
  C   C401      1.0  0.05080  0.37269  0.85156  1.0000
  H   H397      1.0  0.08402  0.64210  0.53581  1.0000
  H   H398      1.0  0.15617  0.40073  0.95346  1.0000
  H   H399      1.0  0.08145  0.50943  0.48824  1.0000
  H   H400      1.0  0.22383  0.45352  0.69007  1.0000
  C   C402      1.0  0.05921  0.51876  0.48517  1.0000
  C   C403      1.0  0.04326  0.65758  0.94253  1.0000
  C   C404      1.0  0.10809  0.65150  0.51032  1.0000
  C   C405      1.0  0.23768  0.45996  0.68875  1.0000
  C   C406      1.0  0.99612  0.57705  0.48065  1.0000
  Fe  Fe67      1.0  0.08422  0.58273  0.48126  1.0000
  H   H401      1.0  0.23421  0.41828  0.92103  1.0000
  C   C407      1.0  0.09982  0.65945  0.90614  1.0000
  H   H402      1.0  0.10241  0.64815  0.49601  1.0000
  H   H403      1.0  0.06160  0.38356  0.84003  1.0000
  H   H404      1.0  0.04085  0.37826  0.86033  1.0000
  H   H405      1.0  0.07170  0.60096  0.74486  1.0000
  H   H406      1.0  0.10023  0.53136  0.95887  1.0000
  C   C408      1.0  0.99173  0.55635  0.85309  1.0000
  C   C409      1.0  0.12584  0.65886  0.50640  1.0000
  C   C410      1.0  0.14882  0.40965  0.95849  1.0000
  H   H407      1.0  0.06953  0.64945  0.79495  1.0000
  H   H408      1.0  0.07208  0.43854  0.96771  1.0000
  C   C411      1.0  0.13007  0.43228  0.97212  1.0000
  H   H409      1.0  0.16889  0.42371  0.97297  1.0000
  C   C412      1.0  0.03760  0.97065  0.33012  1.0000
  H   H410      1.0  0.04095  0.97135  0.36523  1.0000
  Fe  Fe68      1.0  0.02872  0.89267  0.38575  1.0000
  S   S137      1.0  0.02227  0.88310  0.35404  1.0000
  S   S138      1.0  0.05581  0.90934  0.38363  1.0000
  C   C413      1.0  0.99756  0.81960  0.02412  1.0000
  H   H411      1.0  0.03347  0.75968  0.21264  1.0000
  Fe  Fe69      1.0  0.00452  0.85892  0.37936  1.0000
  S   S139      1.0  0.00408  0.83088  0.37587  1.0000
  S   S140      1.0  0.00754  0.90588  0.38951  1.0000
  S   S141      1.0  0.01289  0.86758  0.41089  1.0000
  H   H412      1.0  0.18875  0.78744  0.44259  1.0000
  H   H413      1.0  0.21992  0.75576  0.19770  1.0000
  C   C414      1.0  0.14472  0.81054  0.45270  1.0000
  H   H414      1.0  0.04736  0.97380  0.27839  1.0000
  C   C415      1.0  0.04101  0.94626  0.35718  1.0000
  N   N34       1.0  0.19000  0.67816  0.08119  1.0000
  S   S142      1.0  0.12733  0.97116  0.45157  1.0000
  C   C416      1.0  0.00350  0.94089  0.03616  1.0000
  C   C417      1.0  0.99349  0.82929  0.33411  1.0000
  C   C418      1.0  0.02812  0.70707  0.26264  1.0000
  S   S143      1.0  0.01468  0.97359  0.04414  1.0000
  H   H415      1.0  0.12015  0.79024  0.41975  1.0000
  N   N35       1.0  0.04136  0.95958  0.97652  1.0000
  C   C419      1.0  0.22375  0.75354  0.23278  1.0000
  C   C420      1.0  0.05177  0.76147  0.23493  1.0000
  Fe  Fe70      1.0  0.14167  0.77699  0.37180  1.0000
  S   S144      1.0  0.14490  0.74974  0.38046  1.0000
  S   S145      1.0  0.15663  0.80184  0.38154  1.0000
  Fe  Fe71      1.0  0.11104  0.76461  0.34809  1.0000
  S   S146      1.0  0.11219  0.73661  0.35547  1.0000
  S   S147      1.0  0.09156  0.77443  0.32963  1.0000
  Fe  Fe72      1.0  0.11595  0.74077  0.39077  1.0000
  S   S148      1.0  0.10036  0.72208  0.42460  1.0000
  Fe  Fe73      1.0  0.14102  0.74790  0.34417  1.0000
  S   S149      1.0  0.15763  0.73414  0.32348  1.0000
  S   S150      1.0  0.11269  0.76805  0.38442  1.0000
  S   S151      1.0  0.13993  0.77588  0.33445  1.0000
  Fe  Fe74      1.0  0.10023  0.71948  0.99849  1.0000
  S   S152      1.0  0.11206  0.69688  0.00054  1.0000
  S   S153      1.0  0.07111  0.70861  0.01068  1.0000
  Fe  Fe75      1.0  0.13344  0.71395  0.01241  1.0000
  S   S154      1.0  0.13996  0.70048  0.04548  1.0000
  S   S155      1.0  0.12055  0.73581  0.01282  1.0000
  Fe  Fe76      1.0  0.00194  0.73580  0.29704  1.0000
  S   S156      1.0  0.02256  0.72625  0.31278  1.0000
  S   S157      1.0  0.00776  0.76013  0.26883  1.0000
  H   H416      1.0  0.01406  0.93805  0.04348  1.0000
  S   S158      1.0  0.01654  0.75060  0.03902  1.0000
  H   H417      1.0  0.99541  0.93100  0.36575  1.0000
  Fe  Fe77      1.0  0.19331  0.72458  0.14188  1.0000
  S   S159      1.0  0.21316  0.71080  0.15109  1.0000
  S   S160      1.0  0.19237  0.73393  0.10371  1.0000
  Fe  Fe78      1.0  0.18002  0.72531  0.19284  1.0000
  S   S161      1.0  0.19844  0.71120  0.20562  1.0000
  S   S162      1.0  0.16119  0.73591  0.21539  1.0000
  Fe  Fe79      1.0  0.21862  0.72935  0.17499  1.0000
  H   H418      1.0  0.02279  0.99780  0.16331  1.0000
  Fe  Fe80      1.0  0.19158  0.69383  0.18076  1.0000
  C   C421      1.0  0.05760  0.75226  0.25260  1.0000
  S   S163      1.0  0.20048  0.74454  0.16346  1.0000
  S   S164      1.0  0.17140  0.70655  0.17029  1.0000
  H   H419      1.0  0.11692  0.70988  0.07883  1.0000
  H   H420      1.0  0.99149  0.82960  0.02861  1.0000
  H   H421      1.0  0.05900  0.97984  0.98594  1.0000
  C   C422      1.0  0.15339  0.71089  0.06231  1.0000
  C   C423      1.0  0.16541  0.72722  0.05302  1.0000
  C   C424      1.0  0.17687  0.73433  0.06627  1.0000
  C   C425      1.0  0.17624  0.72538  0.08906  1.0000
  C   C426      1.0  0.16384  0.70928  0.09862  1.0000
  C   C427      1.0  0.15254  0.70205  0.08524  1.0000
  H   H422      1.0  0.16626  0.73414  0.03538  1.0000
  H   H423      1.0  0.18648  0.74675  0.05868  1.0000
  H   H424      1.0  0.16329  0.70220  0.11608  1.0000
  H   H425      1.0  0.14326  0.68941  0.09262  1.0000
  C   C428      1.0  0.03157  0.73877  0.03121  1.0000
  C   C429      1.0  0.02637  0.72065  0.03305  1.0000
  C   C430      1.0  0.03865  0.71167  0.02649  1.0000
  C   C431      1.0  0.05622  0.72068  0.01808  1.0000
  C   C432      1.0  0.06149  0.73878  0.01634  1.0000
  C   C433      1.0  0.04918  0.74779  0.02286  1.0000
  H   H426      1.0  0.01285  0.71360  0.03941  1.0000
  H   H427      1.0  0.03448  0.69765  0.02797  1.0000
  H   H428      1.0  0.07498  0.74586  0.00987  1.0000
  H   H429      1.0  0.05328  0.76181  0.02135  1.0000
  C   C434      1.0  0.10409  0.70130  0.43185  1.0000
  C   C435      1.0  0.11939  0.69809  0.42133  1.0000
  C   C436      1.0  0.01516  0.80953  0.99531  1.0000
  H   H430      1.0  0.99477  0.78080  0.33798  1.0000
  C   C437      1.0  0.08322  0.67252  0.39882  1.0000
  C   C438      1.0  0.09145  0.68771  0.44834  1.0000
  H   H431      1.0  0.12929  0.70855  0.40886  1.0000
  C   C439      1.0  0.99234  0.92766  0.02913  1.0000
  Fe  Fe81      1.0  0.22117  0.84338  0.46447  1.0000
  H   H432      1.0  0.03676  0.97912  0.99519  1.0000
  C   C440      1.0  0.15756  0.73379  0.29385  1.0000
  C   C441      1.0  0.14798  0.74281  0.28152  1.0000
  C   C442      1.0  0.14894  0.74299  0.25761  1.0000
  C   C443      1.0  0.15954  0.73427  0.24579  1.0000
  C   C444      1.0  0.16903  0.72515  0.25819  1.0000
  C   C445      1.0  0.16801  0.72489  0.28212  1.0000
  H   H433      1.0  0.13994  0.74976  0.29032  1.0000
  H   H434      1.0  0.14158  0.75010  0.24815  1.0000
  H   H435      1.0  0.17725  0.71841  0.24930  1.0000
  H   H436      1.0  0.17549  0.71790  0.29152  1.0000
  C   C446      1.0  0.07250  0.76075  0.32502  1.0000
  C   C447      1.0  0.06736  0.74259  0.33392  1.0000
  C   C448      1.0  0.05198  0.73227  0.33018  1.0000
  C   C449      1.0  0.04144  0.73997  0.31777  1.0000
  C   C450      1.0  0.04659  0.75813  0.30877  1.0000
  C   C451      1.0  0.06212  0.76841  0.31222  1.0000
  H   H437      1.0  0.07520  0.73650  0.34378  1.0000
  H   H438      1.0  0.04816  0.71824  0.33713  1.0000
  H   H439      1.0  0.03874  0.76419  0.29892  1.0000
  H   H440      1.0  0.06619  0.78238  0.30489  1.0000
  C   C452      1.0  0.17060  0.80651  0.40107  1.0000
  C   C453      1.0  0.17676  0.82404  0.40284  1.0000
  C   C454      1.0  0.18705  0.82840  0.41892  1.0000
  C   C455      1.0  0.19145  0.81526  0.43345  1.0000
  C   C456      1.0  0.18546  0.79775  0.43149  1.0000
  C   C457      1.0  0.17514  0.79339  0.41545  1.0000
  H   H441      1.0  0.17333  0.83432  0.39189  1.0000
  H   H442      1.0  0.19128  0.84189  0.42032  1.0000
  C   C458      1.0  0.08247  0.72009  0.06244  1.0000
  H   H443      1.0  0.17059  0.77987  0.41432  1.0000
  N   N36       1.0  0.11139  0.68203  0.37298  1.0000
  C   C459      1.0  0.10910  0.66760  0.44309  1.0000
  C   C460      1.0  0.06135  0.91743  0.40801  1.0000
  C   C461      1.0  0.07689  0.93053  0.40488  1.0000
  C   C462      1.0  0.08188  0.93687  0.42404  1.0000
  C   C463      1.0  0.07149  0.92990  0.44661  1.0000
  C   C464      1.0  0.05593  0.91686  0.44969  1.0000
  C   C465      1.0  0.05079  0.91078  0.43049  1.0000
  H   H444      1.0  0.08519  0.93570  0.38757  1.0000
  H   H445      1.0  0.09393  0.94683  0.42143  1.0000
  Fe  Fe82      1.0  0.09971  0.95984  0.47186  1.0000
  H   H446      1.0  0.03885  0.90063  0.43318  1.0000
  H   H447      1.0  0.14346  0.76790  0.47169  1.0000
  C   C466      1.0  0.99455  0.93931  0.35002  1.0000
  H   H448      1.0  0.13145  0.70567  0.36621  1.0000
  C   C467      1.0  0.04851  0.84093  0.36783  1.0000
  H   H449      1.0  0.11066  0.75846  0.43746  1.0000
  C   C468      1.0  0.03693  0.81968  0.31929  1.0000
  C   C469      1.0  0.03828  0.75266  0.22622  1.0000
  C   C470      1.0  0.19894  0.69440  0.08284  1.0000
  H   H450      1.0  0.03520  0.69937  0.25284  1.0000
  C   C471      1.0  0.12526  0.69616  0.35664  1.0000
  H   H451      1.0  0.08210  0.68341  0.08175  1.0000
  C   C472      1.0  0.99100  0.94349  0.31014  1.0000
  H   H452      1.0  0.02285  0.81151  0.97778  1.0000
  N   N37       1.0  0.03602  0.96069  0.31374  1.0000
  C   C473      1.0  0.99506  0.96823  0.32887  1.0000
  H   H453      1.0  0.12184  0.74919  0.45736  1.0000
  C   C474      1.0  0.12744  0.79163  0.43323  1.0000
  C   C475      1.0  0.03999  0.96355  0.35213  1.0000
  H   H454      1.0  0.06192  0.84472  0.37037  1.0000
  H   H455      1.0  0.00333  0.75373  0.16210  1.0000
  S   S165      1.0  0.99659  0.74688  0.21232  1.0000
  C   C476      1.0  0.99119  0.74368  0.16857  1.0000
  C   C477      1.0  0.03060  0.73475  0.23559  1.0000
  H   H456      1.0  0.18104  0.66763  0.05375  1.0000
  N   N38       1.0  0.99457  0.80401  0.03981  1.0000
  C   C478      1.0  0.08599  0.73769  0.06396  1.0000
  H   H457      1.0  0.03024  0.82175  0.30523  1.0000
  H   H458      1.0  0.07713  0.74534  0.05976  1.0000
  H   H459      1.0  0.08290  0.69016  0.05081  1.0000
  S   S166      1.0  0.20375  0.81973  0.45493  1.0000
  H   H460      1.0  0.18317  0.77011  0.24597  1.0000
  H   H461      1.0  0.05760  0.77544  0.22814  1.0000
  S   S167      1.0  0.14955  0.72474  0.97545  1.0000
  C   C479      1.0  0.12356  0.75985  0.44181  1.0000
  C   C480      1.0  0.03920  0.83168  0.33369  1.0000
  C   C481      1.0  0.19473  0.76568  0.24238  1.0000
  H   H462      1.0  0.12394  0.74096  0.08142  1.0000
  H   H463      1.0  0.04511  0.85315  0.36093  1.0000
  H   H464      1.0  0.00948  0.83463  0.98891  1.0000
  H   H465      1.0  0.03410  0.84299  0.33061  1.0000
  H   H466      1.0  0.13550  0.69117  0.34737  1.0000
  N   N39       1.0  0.09378  0.71047  0.06703  1.0000
  C   C482      1.0  0.00781  0.82256  0.00161  1.0000
  C   C483      1.0  0.20061  0.76356  0.21982  1.0000
  H   H467      1.0  0.13254  0.75778  0.42693  1.0000
  C   C484      1.0  0.20976  0.69612  0.09860  1.0000
  H   H468      1.0  0.04020  0.92278  0.34418  1.0000
  H   H469      1.0  0.00005  0.77914  0.04647  1.0000
  C   C485      1.0  0.05074  0.80187  0.34240  1.0000
  N   N40       1.0  0.13035  0.77725  0.44621  1.0000
  C   C486      1.0  0.03691  0.94368  0.31861  1.0000
  H   H470      1.0  0.19524  0.75168  0.29661  1.0000
  C   C487      1.0  0.01913  0.93419  0.97602  1.0000
  C   C488      1.0  0.04264  0.80464  0.32380  1.0000
  H   H471      1.0  0.09487  0.69871  0.37834  1.0000
  H   H472      1.0  0.21961  0.68221  0.12526  1.0000
  C   C489      1.0  0.09000  0.69213  0.06494  1.0000
  C   C490      1.0  0.00075  0.95759  0.03445  1.0000
  H   H473      1.0  0.13376  0.67887  0.41882  1.0000
  H   H474      1.0  0.15079  0.82357  0.45468  1.0000
  H   H475      1.0  0.12011  0.70329  0.34297  1.0000
  H   H476      1.0  0.04058  0.79504  0.31309  1.0000
  S   S168      1.0  0.07747  0.93670  0.47159  1.0000
  C   C491      1.0  0.03440  0.96858  0.29038  1.0000
  C   C492      1.0  0.10823  0.71765  0.07446  1.0000
  H   H477      1.0  0.05532  0.79023  0.34600  1.0000
  H   H478      1.0  0.05875  0.81172  0.37118  1.0000
  H   H479      1.0  0.03942  0.83462  0.38505  1.0000
  H   H480      1.0  0.19760  0.70621  0.07223  1.0000
  C   C493      1.0  0.05272  0.81411  0.35651  1.0000
  H   H481      1.0  0.99407  0.91457  0.03157  1.0000
  H   H482      1.0  0.19947  0.94159  0.45963  1.0000
  H   H483      1.0  0.19362  0.76621  0.20625  1.0000
  H   H484      1.0  0.00551  0.92741  0.97927  1.0000
  Fe  Fe83      1.0  0.99100  0.88024  0.41229  1.0000
  N   N41       1.0  0.04696  0.82877  0.35208  1.0000
  H   H485      1.0  0.07960  0.69016  0.45656  1.0000
  H   H486      1.0  0.99769  0.96230  0.36455  1.0000
  C   C494      1.0  0.03947  0.93625  0.34033  1.0000
  C   C495      1.0  0.99233  0.96135  0.30937  1.0000
  C   C496      1.0  0.99438  0.79428  0.33680  1.0000
  H   H487      1.0  0.10403  0.75902  0.07167  1.0000
  C   C497      1.0  0.11219  0.73522  0.07614  1.0000
  C   C498      1.0  0.04970  0.73433  0.26143  1.0000
  H   H488      1.0  0.01441  0.95680  0.98760  1.0000
  C   C499      1.0  0.10103  0.74532  0.07067  1.0000
  C   C500      1.0  0.02424  0.95080  0.98086  1.0000
  N   N42       1.0  0.03616  0.72589  0.25323  1.0000
  H   H489      1.0  0.20627  0.77492  0.28725  1.0000
  Fe  Fe84      1.0  0.12169  0.99738  0.45125  1.0000
  H   H490      1.0  0.18411  0.76676  0.28554  1.0000
  C   C501      1.0  0.00209  0.79136  0.03396  1.0000
  H   H491      1.0  0.10213  0.68821  0.06014  1.0000
  S   S169      1.0  0.99903  0.99083  0.32776  1.0000
  C   C502      1.0  0.19693  0.76393  0.28340  1.0000
  N   N43       1.0  0.20308  0.76162  0.25978  1.0000
  C   C503      1.0  0.12192  0.68131  0.42707  1.0000
  C   C504      1.0  0.21746  0.75568  0.25521  1.0000
  C   C505      1.0  0.21153  0.68109  0.11259  1.0000
  H   H492      1.0  0.02820  0.70336  0.28153  1.0000
  H   H493      1.0  0.04790  0.91118  0.46706  1.0000
  H   H494      1.0  0.05410  0.72732  0.27547  1.0000
  C   C506      1.0  0.14055  0.77919  0.46209  1.0000
  H   H495      1.0  0.03540  0.93567  0.30580  1.0000
  H   H496      1.0  0.13264  0.81984  0.42540  1.0000
  H   H497      1.0  0.04293  0.94054  0.37414  1.0000
  S   S170      1.0  0.99254  0.91064  0.32996  1.0000
  H   H498      1.0  0.01996  0.72807  0.22888  1.0000
  H   H499      1.0  0.22410  0.75250  0.26896  1.0000
  C   C507      1.0  0.99819  0.80280  0.35484  1.0000
  H   H500      1.0  0.06795  0.75897  0.25976  1.0000
  C   C508      1.0  0.14780  0.79584  0.46567  1.0000
  H   H501      1.0  0.01801  0.78357  0.00702  1.0000
  S   S171      1.0  0.22703  0.87257  0.45030  1.0000
  C   C509      1.0  0.01238  0.79386  0.01161  1.0000
  H   H502      1.0  0.07072  0.71423  0.05732  1.0000
  H   H503      1.0  0.02615  0.95877  0.28309  1.0000
  C   C510      1.0  0.13448  0.80846  0.43636  1.0000
  H   H504      1.0  0.21644  0.70908  0.10021  1.0000
  H   H505      1.0  0.01435  0.70345  0.26149  1.0000
  C   C511      1.0  0.99572  0.95707  0.34936  1.0000
  S   S172      1.0  0.09375  0.98586  0.46918  1.0000
  C   C512      1.0  0.21523  0.75751  0.21506  1.0000
  H   H506      1.0  0.03662  0.98405  0.32641  1.0000
  Fe  Fe85      1.0  0.99975  0.89469  0.35998  1.0000
  C   C513      1.0  0.09645  0.68559  0.38262  1.0000
  C   C514      1.0  0.09388  0.67084  0.45383  1.0000
  C   C515      1.0  0.99251  0.93251  0.33029  1.0000
  H   H507      1.0  0.22305  0.84448  0.40666  1.0000
  C   C516      1.0  0.04639  0.97730  0.98073  1.0000
  H   H508      1.0  0.07162  0.67554  0.40694  1.0000
  H   H509      1.0  0.02816  0.97947  0.29096  1.0000
  C   C517      1.0  0.99784  0.82037  0.35357  1.0000
  H   H510      1.0  0.23340  0.81837  0.41855  1.0000
  H   H511      1.0  0.00166  0.79582  0.36975  1.0000
  H   H512      1.0  0.99199  0.80416  0.07587  1.0000
  H   H513      1.0  0.99165  0.96985  0.29353  1.0000
  Fe  Fe86      1.0  0.00710  0.99850  0.04730  1.0000
  C   C518      1.0  0.17807  0.67645  0.06539  1.0000
  C   C519      1.0  0.98957  0.82074  0.31615  1.0000
  H   H514      1.0  0.19404  0.96918  0.46950  1.0000
  H   H515      1.0  0.23511  0.74874  0.22905  1.0000
  H   H516      1.0  0.21486  0.93254  0.47213  1.0000
  H   H517      1.0  0.17886  0.68932  0.05408  1.0000
  H   H518      1.0  0.05371  0.67971  0.98401  1.0000
  C   C520      1.0  0.99007  0.80324  0.31731  1.0000
  H   H519      1.0  0.99323  0.84282  0.33282  1.0000
  C   C521      1.0  0.23668  0.84525  0.40174  1.0000
  C   C522      1.0  0.20659  0.97152  0.47403  1.0000
  H   H520      1.0  0.16454  0.67099  0.07573  1.0000
  Fe  Fe87      1.0  0.13561  0.74580  0.97520  1.0000
  H   H521      1.0  0.98923  0.93828  0.29487  1.0000
  C   C523      1.0  0.22538  0.92437  0.79434  1.0000
  H   H522      1.0  0.19504  0.73897  0.89769  1.0000
  C   C524      1.0  0.23003  0.96114  0.48359  1.0000
  H   H523      1.0  0.05661  0.97104  0.49749  1.0000
  S   S173      1.0  0.23184  0.98028  0.57929  1.0000
  H   H524      1.0  0.17779  0.76118  0.95408  1.0000
  C   C525      1.0  0.13569  0.95801  0.55861  1.0000
  S   S174      1.0  0.00588  0.91737  0.90549  1.0000
  C   C526      1.0  0.22550  0.88460  0.56101  1.0000
  C   C527      1.0  0.04907  0.93601  0.96115  1.0000
  H   H525      1.0  0.14766  0.95355  0.55668  1.0000
  H   H526      1.0  0.01087  0.91748  0.48996  1.0000
  C   C528      1.0  0.22082  0.77366  0.62227  1.0000
  H   H527      1.0  0.22758  0.86406  0.54274  1.0000
  C   C529      1.0  0.16762  0.73559  0.90815  1.0000
  C   C530      1.0  0.03968  0.99637  0.54738  1.0000
  C   C531      1.0  0.23460  0.89833  0.56938  1.0000
  H   H528      1.0  0.09975  0.67145  0.96671  1.0000
  H   H529      1.0  0.11758  0.97953  0.54354  1.0000
  C   C532      1.0  0.22852  0.91255  0.51329  1.0000
  H   H530      1.0  0.23066  0.93869  0.79281  1.0000
  H   H531      1.0  0.08502  0.69744  0.96702  1.0000
  S   S175      1.0  0.06344  0.98160  0.91630  1.0000
  C   C533      1.0  0.02048  0.95692  0.51910  1.0000
  H   H532      1.0  0.16450  0.72151  0.91495  1.0000
  H   H533      1.0  0.21757  0.91882  0.81254  1.0000
  S   S176      1.0  0.08893  0.99275  0.53434  1.0000
  N   N44       1.0  0.01848  0.97608  0.84995  1.0000
  S   S177      1.0  0.21581  0.89479  0.50443  1.0000
  C   C534      1.0  0.06783  0.68282  0.92652  1.0000
  C   C535      1.0  0.23481  0.84020  0.95404  1.0000
  N   N45       1.0  0.03362  0.95035  0.51021  1.0000
  S   S178      1.0  0.21931  0.84634  0.50203  1.0000
  H   H534      1.0  0.06723  0.95988  0.96191  1.0000
  C   C536      1.0  0.00346  0.94928  0.51809  1.0000
  S   S179      1.0  0.22524  0.80772  0.90038  1.0000
  C   C537      1.0  0.23642  0.82639  0.58698  1.0000
  S   S180      1.0  0.14739  0.77475  0.95798  1.0000
  H   H535      1.0  0.99305  0.95443  0.52529  1.0000
  N   N46       1.0  0.23564  0.77434  0.60392  1.0000
  H   H536      1.0  0.17795  0.78558  0.88461  1.0000
  H   H537      1.0  0.03904  0.96623  0.85912  1.0000
  S   S181      1.0  0.98946  0.89156  0.97159  1.0000
  S   S182      1.0  0.23432  0.85097  0.84641  1.0000
  C   C538      1.0  0.22656  0.71857  0.72013  1.0000
  C   C539      1.0  0.07980  0.70157  0.95155  1.0000
  H   H538      1.0  0.00058  0.98975  0.83964  1.0000
  H   H539      1.0  0.20164  0.77125  0.88227  1.0000
  H   H540      1.0  0.22448  0.76075  0.74174  1.0000
  S   S183      1.0  0.18170  0.68812  0.66265  1.0000
  C   C540      1.0  0.14427  0.77051  0.90221  1.0000
  C   C541      1.0  0.04543  0.99374  0.79664  1.0000
  C   C542      1.0  0.23329  0.70629  0.66118  1.0000
  H   H541      1.0  0.05887  0.93074  0.95249  1.0000
  H   H542      1.0  0.21071  0.76109  0.62513  1.0000
  C   C543      1.0  0.21715  0.69518  0.66095  1.0000
  C   C544      1.0  0.20248  0.70148  0.66253  1.0000
  C   C545      1.0  0.20422  0.71903  0.66436  1.0000
  C   C546      1.0  0.22034  0.73012  0.66463  1.0000
  H   H543      1.0  0.02327  0.98554  0.68467  1.0000
  H   H544      1.0  0.21605  0.68175  0.65950  1.0000
  H   H545      1.0  0.19295  0.72402  0.66568  1.0000
  H   H546      1.0  0.22135  0.74346  0.66642  1.0000
  H   H547      1.0  0.22419  0.92967  0.85423  1.0000
  H   H548      1.0  0.04752  0.98712  0.96448  1.0000
  H   H549      1.0  0.21683  0.92243  0.78187  1.0000
  H   H550      1.0  0.02782  0.91427  0.96120  1.0000
  C   C547      1.0  0.09981  0.66827  0.94978  1.0000
  H   H551      1.0  0.01008  0.94818  0.85637  1.0000
  C   C548      1.0  0.20382  0.79942  0.91746  1.0000
  C   C549      1.0  0.19169  0.80916  0.91717  1.0000
  C   C550      1.0  0.17455  0.80155  0.93013  1.0000
  C   C551      1.0  0.16936  0.78415  0.94335  1.0000
  C   C552      1.0  0.18157  0.77454  0.94392  1.0000
  C   C553      1.0  0.19873  0.78219  0.93114  1.0000
  H   H552      1.0  0.19545  0.82245  0.90677  1.0000
  H   H553      1.0  0.16520  0.80912  0.92970  1.0000
  S   S184      1.0  0.23411  0.89736  0.85876  1.0000
  H   H554      1.0  0.20804  0.77458  0.93156  1.0000
  C   C554      1.0  0.05136  0.95876  0.51126  1.0000
  H   H555      1.0  0.01589  0.99356  0.64628  1.0000
  C   C555      1.0  0.18469  0.74536  0.89837  1.0000
  C   C556      1.0  0.22488  0.74880  0.73574  1.0000
  H   H556      1.0  0.21170  0.88230  0.56226  1.0000
  H   H557      1.0  0.12679  0.95087  0.57563  1.0000
  C   C557      1.0  0.01661  0.99567  0.68191  1.0000
  H   H558      1.0  0.13920  0.77068  0.88607  1.0000
  C   C558      1.0  0.17490  0.77148  0.89101  1.0000
  H   H559      1.0  0.14887  0.78419  0.90434  1.0000
  H   H560      1.0  0.12959  0.95448  0.54414  1.0000
  H   H561      1.0  0.13359  0.76370  0.91775  1.0000
  H   H562      1.0  0.02883  0.99274  0.56225  1.0000
  H   H563      1.0  0.14125  0.73636  0.91678  1.0000
  H   H564      1.0  0.05177  0.96192  0.52864  1.0000
  C   C559      1.0  0.22038  0.92254  0.52643  1.0000
  H   H565      1.0  0.04084  0.93160  0.49196  1.0000
  H   H566      1.0  0.20642  0.91945  0.53075  1.0000
  C   C560      1.0  0.12890  0.98616  0.54896  1.0000
  Fe  Fe88      1.0  0.99476  0.99458  0.54945  1.0000
  C   C561      1.0  0.23020  0.93637  0.53434  1.0000
  H   H567      1.0  0.22383  0.82642  0.59635  1.0000
  Fe  Fe89      1.0  0.12667  0.70962  0.96389  1.0000
  S   S185      1.0  0.10746  0.96033  0.50630  1.0000
  C   C562      1.0  0.15447  0.74409  0.90924  1.0000
  H   H568      1.0  0.15634  0.79744  0.47771  1.0000
  C   C563      1.0  0.17190  0.97914  0.51110  1.0000
  C   C564      1.0  0.18228  0.97153  0.52395  1.0000
  C   C565      1.0  0.19474  0.98191  0.53318  1.0000
  H   H569      1.0  0.18073  0.95754  0.52671  1.0000
  H   H570      1.0  0.20260  0.97590  0.54311  1.0000
  Fe  Fe90      1.0  0.22768  0.87569  0.48720  1.0000
  N   N47       1.0  0.13965  0.97698  0.55704  1.0000
  H   H571      1.0  0.01777  0.95956  0.82583  1.0000
  H   H572      1.0  0.23137  0.83441  0.55281  1.0000
  S   S186      1.0  0.15670  0.96563  0.49935  1.0000
  H   H573      1.0  0.16220  0.97805  0.57095  1.0000
  H   H574      1.0  0.99684  0.95927  0.84179  1.0000
  C   C566      1.0  0.23778  0.97737  0.48791  1.0000
  H   H575      1.0  0.09101  0.70676  0.93632  1.0000
  C   C567      1.0  0.02165  0.93568  0.90788  1.0000
  C   C568      1.0  0.01733  0.94718  0.92154  1.0000
  C   C569      1.0  0.03015  0.96175  0.92306  1.0000
  C   C570      1.0  0.04735  0.96484  0.91112  1.0000
  C   C571      1.0  0.05161  0.95357  0.89703  1.0000
  C   C572      1.0  0.03875  0.93908  0.89531  1.0000
  H   H576      1.0  0.00412  0.94481  0.93094  1.0000
  H   H577      1.0  0.02677  0.97055  0.93379  1.0000
  H   H578      1.0  0.06487  0.95578  0.88790  1.0000
  H   H579      1.0  0.04212  0.93028  0.88456  1.0000
  S   S187      1.0  0.01566  0.98394  0.78136  1.0000
  Fe  Fe91      1.0  0.10330  0.98708  0.50203  1.0000
  C   C573      1.0  0.03334  0.97715  0.85789  1.0000
  H   H580      1.0  0.22838  0.79071  0.57731  1.0000
  H   H581      1.0  0.12225  0.68177  0.89321  1.0000
  C   C574      1.0  0.23631  0.89835  0.79860  1.0000
  H   H582      1.0  0.22382  0.94385  0.54463  1.0000
  C   C575      1.0  0.22977  0.99090  0.48492  1.0000
  Fe  Fe92      1.0  0.13459  0.97415  0.48597  1.0000
  C   C576      1.0  0.01181  0.99023  0.84710  1.0000
  C   C577      1.0  0.05435  0.67653  0.96692  1.0000
  C   C578      1.0  0.18838  0.76341  0.88958  1.0000
  H   H583      1.0  0.05673  0.98683  0.56714  1.0000
  H   H584      1.0  0.22493  0.77484  0.63892  1.0000
  C   C579      1.0  0.05547  0.99309  0.55014  1.0000
  N   N48       1.0  0.15825  0.76186  0.90111  1.0000
  C   C580      1.0  0.23500  0.72380  0.66304  1.0000
  C   C581      1.0  0.03036  0.93654  0.49952  1.0000
  C   C582      1.0  0.01345  0.92854  0.49827  1.0000
  C   C583      1.0  0.06952  0.99763  0.53088  1.0000
  H   H585      1.0  0.19825  0.74241  0.73302  1.0000
  S   S188      1.0  0.12833  0.69732  0.93217  1.0000
  C   C584      1.0  0.21099  0.72325  0.72311  1.0000
  H   H586      1.0  0.07811  0.69056  0.91174  1.0000
  C   C585      1.0  0.21020  0.73851  0.73088  1.0000
  H   H587      1.0  0.00603  0.98540  0.73235  1.0000
  C   C586      1.0  0.11247  0.67855  0.93022  1.0000
  Fe  Fe93      1.0  0.98929  0.98842  0.78349  1.0000
  H   H588      1.0  0.07369  0.71221  0.95463  1.0000
  H   H589      1.0  0.04687  0.98086  0.79540  1.0000
  H   H590      1.0  0.05344  0.99326  0.87013  1.0000
  C   C587      1.0  0.01037  0.95998  0.84317  1.0000
  C   C588      1.0  0.11247  0.67398  0.90845  1.0000
  C   C589      1.0  0.03121  0.99884  0.79044  1.0000
  C   C590      1.0  0.23445  0.87438  0.54991  1.0000
  H   H591      1.0  0.22759  0.90651  0.57741  1.0000
  C   C591      1.0  0.05372  0.95247  0.96662  1.0000
  H   H592      1.0  0.19568  0.93392  0.49098  1.0000
  H   H593      1.0  0.19971  0.71521  0.71899  1.0000
  C   C592      1.0  0.05593  0.66828  0.92338  1.0000
  C   C593      1.0  0.15364  0.98528  0.56455  1.0000
  N   N49       1.0  0.06705  0.68662  0.94816  1.0000
  C   C594      1.0  0.03165  0.92681  0.96598  1.0000
  H   H594      1.0  0.23274  0.81620  0.94223  1.0000
  H   H595      1.0  0.22092  0.83817  0.95887  1.0000
  C   C595      1.0  0.04161  0.99246  0.86397  1.0000
  C   C596      1.0  0.99992  0.93491  0.50779  1.0000
  H   H596      1.0  0.02871  0.99612  0.72076  1.0000
  H   H597      1.0  0.14691  0.66859  0.52223  1.0000
  C   C597      1.0  0.17409  0.99725  0.50758  1.0000
  H   H598      1.0  0.23860  0.95972  0.82977  1.0000
  H   H599      1.0  0.22712  0.70683  0.71371  1.0000
  H   H600      1.0  0.22409  0.89089  0.81037  1.0000
  H   H601      1.0  0.02309  0.96811  0.52711  1.0000
  H   H602      1.0  0.21525  0.78485  0.61774  1.0000
  S   S189      1.0  0.11392  0.73149  0.96112  1.0000
  H   H603      1.0  0.23639  0.95074  0.48588  1.0000
  C   C598      1.0  0.23756  0.78354  0.58157  1.0000
  H   H604      1.0  0.06001  0.95008  0.50858  1.0000
  C   C599      1.0  0.21424  0.98808  0.47754  1.0000
  C   C600      1.0  0.01551  0.99798  0.72261  1.0000
  N   N50       1.0  0.21453  0.95831  0.47705  1.0000
  H   H605      1.0  0.16855  0.99411  0.81004  1.0000
  C   C601      1.0  0.23718  0.93255  0.84378  1.0000
  C   C602      1.0  0.20574  0.94075  0.47479  1.0000
  H   H606      1.0  0.20775  0.99842  0.47554  1.0000
  Fe  Fe94      1.0  0.40761  0.30572  0.37725  1.0000
  S   S190      1.0  0.41607  0.28087  0.38114  1.0000
  S   S191      1.0  0.48195  0.09217  0.37896  1.0000
  Fe  Fe95      1.0  0.37543  0.28908  0.35958  1.0000
  S   S192      1.0  0.38139  0.26293  0.36272  1.0000
  S   S193      1.0  0.35502  0.29764  0.34210  1.0000
  Fe  Fe96      1.0  0.38802  0.26713  0.39689  1.0000
  S   S194      1.0  0.37934  0.24698  0.43163  1.0000
  Fe  Fe97      1.0  0.40887  0.27879  0.34662  1.0000
  S   S195      1.0  0.42570  0.27033  0.31867  1.0000
  S   S196      1.0  0.37986  0.29229  0.39513  1.0000
  S   S197      1.0  0.40264  0.30459  0.34138  1.0000
  C   C603      1.0  0.45628  0.12921  0.37937  1.0000
  Fe  Fe98      1.0  0.40563  0.25360  0.02556  1.0000
  S   S198      1.0  0.40173  0.27794  0.00490  1.0000
  S   S199      1.0  0.41087  0.25276  0.06230  1.0000
  Fe  Fe99      1.0  0.37785  0.25995  0.99928  1.0000
  S   S200      1.0  0.35421  0.27042  0.00207  1.0000
  H   H607      1.0  0.30043  0.32586  0.38520  1.0000
  S   S201      1.0  0.38076  0.23582  0.02183  1.0000
  N   N51       1.0  0.34286  0.26215  0.06936  1.0000
  C   C604      1.0  0.23901  0.19621  0.03001  1.0000
  Fe  Fe100     1.0  0.26727  0.25574  0.30687  1.0000
  S   S202      1.0  0.27261  0.27968  0.27798  1.0000
  S   S203      1.0  0.28612  0.24798  0.32811  1.0000
  C   C605      1.0  0.46630  0.12828  0.06992  1.0000
  S   S204      1.0  0.39504  0.17242  0.44602  1.0000
  Fe  Fe101     1.0  0.25735  0.26127  0.25955  1.0000
  S   S205      1.0  0.26764  0.25974  0.22208  1.0000
  S   S206      1.0  0.47371  0.08684  0.06607  1.0000
  S   S207      1.0  0.25383  0.23698  0.28739  1.0000
  H   H608      1.0  0.46279  0.31411  0.27114  1.0000
  S   S208      1.0  0.26125  0.27030  0.07902  1.0000
  C   C606      1.0  0.38124  0.19807  0.46080  1.0000
  S   S209      1.0  0.46193  0.06129  0.97606  1.0000
  Fe  Fe102     1.0  0.25825  0.24476  0.06746  1.0000
  S   S210      1.0  0.27887  0.23016  0.06317  1.0000
  C   C607      1.0  0.42393  0.32375  0.42843  1.0000
  C   C608      1.0  0.37370  0.00487  0.01039  1.0000
  S   S211      1.0  0.25431  0.30258  0.02551  1.0000
  H   H609      1.0  0.32528  0.29578  0.05596  1.0000
  Fe  Fe103     1.0  0.45461  0.07708  0.38153  1.0000
  S   S212      1.0  0.45869  0.05068  0.39446  1.0000
  S   S213      1.0  0.43182  0.08620  0.39715  1.0000
  S   S214      1.0  0.24220  0.25901  0.32541  1.0000
  C   C609      1.0  0.42881  0.10483  0.46603  1.0000
  Fe  Fe104     1.0  0.46512  0.04986  0.35649  1.0000
  S   S215      1.0  0.46062  0.02468  0.34314  1.0000
  Fe  Fe105     1.0  0.47821  0.29935  0.13439  1.0000
  S   S216      1.0  0.45876  0.07515  0.34361  1.0000
  H   H610      1.0  0.41378  0.15456  0.40689  1.0000
  Fe  Fe106     1.0  0.46565  0.30257  0.18504  1.0000
  Fe  Fe107     1.0  0.24664  0.28190  0.29540  1.0000
  S   S217      1.0  0.44336  0.30655  0.21027  1.0000
  C   C610      1.0  0.32628  0.28310  0.06449  1.0000
  C   C611      1.0  0.47303  0.32170  0.25616  1.0000
  S   S218      1.0  0.46568  0.27957  0.16829  1.0000
  Fe  Fe108     1.0  0.47187  0.07858  0.03150  1.0000
  C   C612      1.0  0.25422  0.29219  0.35959  1.0000
  Fe  Fe109     1.0  0.48652  0.08841  0.34190  1.0000
  Fe  Fe110     1.0  0.44877  0.04951  0.01373  1.0000
  H   H611      1.0  0.42533  0.31772  0.46470  1.0000
  S   S219      1.0  0.42964  0.02252  0.02697  1.0000
  H   H612      1.0  0.46194  0.11904  0.38754  1.0000
  C   C613      1.0  0.25321  0.30758  0.36686  1.0000
  C   C614      1.0  0.46918  0.33186  0.23724  1.0000
  H   H613      1.0  0.29711  0.29680  0.35486  1.0000
  S   S220      1.0  0.44592  0.07516  0.02192  1.0000
  H   H614      1.0  0.39697  0.00359  0.35906  1.0000
  C   C615      1.0  0.45302  0.13772  0.41720  1.0000
  Fe  Fe111     1.0  0.46124  0.08719  0.98510  1.0000
  C   C616      1.0  0.29944  0.32779  0.36660  1.0000
  C   C617      1.0  0.35331  0.11809  0.44953  1.0000
  C   C618      1.0  0.43054  0.15096  0.43041  1.0000
  H   H615      1.0  0.46200  0.01293  0.02273  1.0000
  S   S221      1.0  0.24485  0.25198  0.03878  1.0000
  H   H616      1.0  0.42387  0.15636  0.44351  1.0000
  C   C619      1.0  0.42150  0.01057  0.00729  1.0000
  S   S222      1.0  0.42121  0.24772  0.99434  1.0000
  N   N52       1.0  0.48116  0.24471  0.11225  1.0000
  C   C620      1.0  0.43337  0.14249  0.39327  1.0000
  C   C621      1.0  0.47049  0.13535  0.08876  1.0000
  S   S223      1.0  0.42352  0.33205  0.38131  1.0000
  H   H617      1.0  0.42460  0.02590  0.35601  1.0000
  N   N53       1.0  0.44718  0.13641  0.39719  1.0000
  H   H618      1.0  0.27102  0.27623  0.34982  1.0000
  C   C622      1.0  0.48625  0.22955  0.11437  1.0000
  H   H619      1.0  0.42684  0.03297  0.97878  1.0000
  S   S224      1.0  0.39601  0.20593  0.97819  1.0000
  H   H620      1.0  0.47142  0.25639  0.08456  1.0000
  C   C623      1.0  0.24616  0.32050  0.03029  1.0000
  C   C624      1.0  0.44366  0.09230  0.43667  1.0000
  C   C625      1.0  0.43074  0.09274  0.42407  1.0000
  C   C626      1.0  0.41687  0.09917  0.43255  1.0000
  C   C627      1.0  0.41591  0.10520  0.45340  1.0000
  H   H621      1.0  0.45440  0.08735  0.43027  1.0000
  H   H622      1.0  0.40684  0.09952  0.42289  1.0000
  H   H623      1.0  0.24324  0.22222  0.23977  1.0000
  C   C628      1.0  0.25659  0.26140  0.19899  1.0000
  Fe  Fe112     1.0  0.39610  0.23220  0.98836  1.0000
  C   C629      1.0  0.47342  0.12543  0.02912  1.0000
  C   C630      1.0  0.48403  0.25633  0.08921  1.0000
  C   C631      1.0  0.41688  0.23039  0.46634  1.0000
  C   C632      1.0  0.42482  0.14983  0.40983  1.0000
  C   C633      1.0  0.35923  0.25750  0.06399  1.0000
  C   C634      1.0  0.45556  0.28500  0.08859  1.0000
  C   C635      1.0  0.44115  0.27311  0.10432  1.0000
  C   C636      1.0  0.42764  0.26342  0.09594  1.0000
  C   C637      1.0  0.42826  0.26552  0.07178  1.0000
  C   C638      1.0  0.44267  0.27743  0.05604  1.0000
  C   C639      1.0  0.45623  0.28704  0.06441  1.0000
  H   H624      1.0  0.44037  0.27137  0.12295  1.0000
  H   H625      1.0  0.41657  0.25426  0.10830  1.0000
  H   H626      1.0  0.44343  0.27908  0.03744  1.0000
  H   H627      1.0  0.46735  0.29611  0.05206  1.0000
  C   C640      1.0  0.33301  0.25827  0.01730  1.0000
  C   C641      1.0  0.31971  0.26669  0.01793  1.0000
  C   C642      1.0  0.30298  0.25807  0.03150  1.0000
  C   C643      1.0  0.29938  0.24090  0.04450  1.0000
  C   C644      1.0  0.31254  0.23228  0.04339  1.0000
  C   C645      1.0  0.32932  0.24093  0.02987  1.0000
  H   H628      1.0  0.32244  0.28008  0.00820  1.0000
  H   H629      1.0  0.29294  0.26483  0.03215  1.0000
  H   H630      1.0  0.30982  0.21894  0.05330  1.0000
  H   H631      1.0  0.33942  0.23428  0.02940  1.0000
  C   C646      1.0  0.25161  0.32379  0.31138  1.0000
  C   C647      1.0  0.47957  0.01038  0.40555  1.0000
  H   H632      1.0  0.45267  0.09795  0.46731  1.0000
  H   H633      1.0  0.31130  0.32609  0.35590  1.0000
  H   H634      1.0  0.45408  0.11846  0.07261  1.0000
  H   H635      1.0  0.41732  0.31041  0.42843  1.0000
  H   H636      1.0  0.48329  0.02162  0.00391  1.0000
  C   C648      1.0  0.38331  0.22607  0.43498  1.0000
  C   C649      1.0  0.37748  0.21442  0.45705  1.0000
  C   C650      1.0  0.42474  0.01296  0.35331  1.0000
  C   C651      1.0  0.39050  0.19306  0.44228  1.0000
  C   C652      1.0  0.39611  0.20458  0.42014  1.0000
  C   C653      1.0  0.39269  0.22110  0.41653  1.0000
  Fe  Fe113     1.0  0.24592  0.27672  0.05227  1.0000
  C   C654      1.0  0.48474  0.11077  0.25515  1.0000
  H   H637      1.0  0.40324  0.20078  0.40569  1.0000
  H   H638      1.0  0.39726  0.22997  0.39947  1.0000
  C   C655      1.0  0.43053  0.28062  0.28862  1.0000
  C   C656      1.0  0.44202  0.27536  0.27268  1.0000
  C   C657      1.0  0.44604  0.28314  0.24860  1.0000
  C   C658      1.0  0.43831  0.29603  0.24024  1.0000
  C   C659      1.0  0.42680  0.30130  0.25616  1.0000
  C   C660      1.0  0.42310  0.29379  0.28029  1.0000
  H   H639      1.0  0.44786  0.26521  0.27898  1.0000
  H   H640      1.0  0.45500  0.27905  0.23651  1.0000
  H   H641      1.0  0.42094  0.31141  0.24982  1.0000
  H   H642      1.0  0.41454  0.29821  0.29243  1.0000
  C   C661      1.0  0.33570  0.28369  0.33893  1.0000
  C   C662      1.0  0.33011  0.26590  0.35001  1.0000
  C   C663      1.0  0.31479  0.25521  0.34667  1.0000
  C   C664      1.0  0.30503  0.26213  0.33208  1.0000
  C   C665      1.0  0.31067  0.27992  0.32090  1.0000
  C   C666      1.0  0.32588  0.29066  0.32446  1.0000
  H   H643      1.0  0.33754  0.26038  0.36120  1.0000
  H   H644      1.0  0.31051  0.24146  0.35540  1.0000
  H   H645      1.0  0.30333  0.28538  0.30952  1.0000
  H   H646      1.0  0.33016  0.30441  0.31575  1.0000
  C   C667      1.0  0.26348  0.25746  0.17782  1.0000
  H   H647      1.0  0.47383  0.10304  0.25007  1.0000
  C   C668      1.0  0.32887  0.25032  0.08471  1.0000
  H   H648      1.0  0.42881  0.14154  0.37735  1.0000
  N   N54       1.0  0.36787  0.27796  0.29488  1.0000
  C   C669      1.0  0.35163  0.27175  0.29139  1.0000
  C   C670      1.0  0.37609  0.26667  0.30500  1.0000
  C   C671      1.0  0.34290  0.25391  0.29902  1.0000
  C   C672      1.0  0.36776  0.24875  0.31284  1.0000
  C   C673      1.0  0.35099  0.24239  0.30999  1.0000
  C   C674      1.0  0.37680  0.29671  0.28704  1.0000
  H   H649      1.0  0.34509  0.28066  0.28331  1.0000
  H   H650      1.0  0.38909  0.27151  0.30744  1.0000
  H   H651      1.0  0.32975  0.24917  0.29702  1.0000
  H   H652      1.0  0.37425  0.23996  0.32133  1.0000
  H   H653      1.0  0.34422  0.22859  0.31641  1.0000
  H   H654      1.0  0.36747  0.30476  0.28587  1.0000
  H   H655      1.0  0.38418  0.30115  0.29996  1.0000
  H   H656      1.0  0.38579  0.29928  0.26975  1.0000
  H   H657      1.0  0.43564  0.20787  0.47216  1.0000
  H   H658      1.0  0.24099  0.31092  0.36971  1.0000
  H   H659      1.0  0.38562  0.01417  0.01212  1.0000
  H   H660      1.0  0.46230  0.11346  0.03511  1.0000
  H   H661      1.0  0.46448  0.24222  0.16932  1.0000
  C   C675      1.0  0.25455  0.25746  0.15956  1.0000
  H   H662      1.0  0.46162  0.13106  0.10576  1.0000
  H   H663      1.0  0.25984  0.25412  0.14352  1.0000
  H   H664      1.0  0.41042  0.25404  0.45210  1.0000
  C   C676      1.0  0.40910  0.00030  0.35501  1.0000
  H   H665      1.0  0.46673  0.13981  0.36680  1.0000
  H   H666      1.0  0.44724  0.12253  0.36965  1.0000
  H   H667      1.0  0.24272  0.28352  0.35693  1.0000
  H   H668      1.0  0.32966  0.23736  0.09240  1.0000
  C   C677      1.0  0.34179  0.27844  0.05947  1.0000
  C   C678      1.0  0.48654  0.10686  0.27844  1.0000
  H   H669      1.0  0.36685  0.26465  0.04615  1.0000
  H   H670      1.0  0.36710  0.26075  0.07691  1.0000
  C   C679      1.0  0.48342  0.21842  0.13636  1.0000
  H   H671      1.0  0.43161  0.30556  0.01533  1.0000
  H   H672      1.0  0.37016  0.21817  0.47138  1.0000
  Fe  Fe114     1.0  0.48654  0.06568  0.38894  1.0000
  C   C680      1.0  0.47314  0.24915  0.13158  1.0000
  H   H673      1.0  0.35276  0.28768  0.04691  1.0000
  H   H674      1.0  0.35693  0.24329  0.06419  1.0000
  H   H675      1.0  0.46724  0.32961  0.45077  1.0000
  C   C681      1.0  0.47029  0.23842  0.15387  1.0000
  C   C682      1.0  0.40878  0.24384  0.46756  1.0000
  C   C683      1.0  0.27009  0.28823  0.35539  1.0000
  C   C684      1.0  0.31313  0.25450  0.08999  1.0000
  C   C685      1.0  0.31186  0.27100  0.07978  1.0000
  H   H676      1.0  0.30181  0.24482  0.10129  1.0000
  H   H677      1.0  0.29960  0.27421  0.08324  1.0000
  H   H678      1.0  0.46913  0.26118  0.12977  1.0000
  C   C686      1.0  0.44474  0.14492  0.43416  1.0000
  H   H679      1.0  0.46384  0.13272  0.42046  1.0000
  H   H680      1.0  0.27567  0.25412  0.17569  1.0000
  C   C687      1.0  0.35383  0.13332  0.45808  1.0000
  H   H681      1.0  0.46246  0.00313  0.38320  1.0000
  H   H682      1.0  0.36259  0.11835  0.43393  1.0000
  H   H683      1.0  0.25172  0.20225  0.01862  1.0000
  C   C688      1.0  0.47187  0.00994  0.00983  1.0000
  C   C689      1.0  0.44052  0.00900  0.34736  1.0000
  H   H684      1.0  0.45357  0.29630  0.98962  1.0000
  H   H685      1.0  0.47382  0.21485  0.17348  1.0000
  C   C690      1.0  0.34091  0.10250  0.46142  1.0000
  S   S225      1.0  0.47602  0.32224  0.15068  1.0000
  C   C691      1.0  0.24085  0.26575  0.20157  1.0000
  N   N55       1.0  0.28383  0.31536  0.36441  1.0000
  H   H686      1.0  0.47708  0.09617  0.29115  1.0000
  S   S226      1.0  0.47346  0.29694  0.09796  1.0000
  C   C692      1.0  0.44264  0.09827  0.45764  1.0000
  C   C693      1.0  0.26822  0.31904  0.36936  1.0000
  H   H687      1.0  0.27565  0.31751  0.30127  1.0000
  H   H688      1.0  0.47744  0.09620  0.10955  1.0000
  H   H689      1.0  0.44895  0.14527  0.45046  1.0000
  S   S227      1.0  0.47334  0.05191  0.02640  1.0000
  C   C694      1.0  0.42851  0.32794  0.44894  1.0000
  H   H690      1.0  0.42482  0.23033  0.44973  1.0000
  H   H691      1.0  0.24458  0.20988  0.05709  1.0000
  C   C695      1.0  0.26945  0.32646  0.30869  1.0000
  C   C696      1.0  0.28483  0.29998  0.35809  1.0000
  C   C697      1.0  0.47547  0.22298  0.15622  1.0000
  H   H692      1.0  0.48321  0.05022  0.46630  1.0000
  H   H693      1.0  0.40520  0.11015  0.45965  1.0000
  Fe  Fe115     1.0  0.48643  0.06516  0.98913  1.0000
  N   N56       1.0  0.47781  0.13301  0.04873  1.0000
  C   C698      1.0  0.48656  0.14729  0.08580  1.0000
  H   H694      1.0  0.36258  0.01038  0.01464  1.0000
  H   H695      1.0  0.48390  0.02415  0.39658  1.0000
  N   N57       1.0  0.46450  0.00542  0.99019  1.0000
  H   H696      1.0  0.47011  0.13513  0.01621  1.0000
  C   C699      1.0  0.42137  0.01893  0.98472  1.0000
  H   H697      1.0  0.48800  0.20672  0.13811  1.0000
  H   H698      1.0  0.37573  0.00390  0.99172  1.0000
  C   C700      1.0  0.45388  0.31007  0.98732  1.0000
  H   H699      1.0  0.48445  0.12125  0.02037  1.0000
  S   S228      1.0  0.48714  0.09220  0.99504  1.0000
  H   H700      1.0  0.36355  0.14538  0.44878  1.0000
  C   C701      1.0  0.44144  0.31525  0.00158  1.0000
  C   C702      1.0  0.48615  0.00445  0.42461  1.0000
  H   H701      1.0  0.26743  0.33125  0.37435  1.0000
  H   H702      1.0  0.34050  0.09051  0.45524  1.0000
  H   H703      1.0  0.45590  0.33217  0.23787  1.0000
  H   H704      1.0  0.31949  0.09028  0.49101  1.0000
  C   C703      1.0  0.43648  0.21912  0.94402  1.0000
  S   S229      1.0  0.43768  0.28851  0.94443  1.0000
  Fe  Fe116     1.0  0.37197  0.12717  0.52409  1.0000
  S   S230      1.0  0.39515  0.12614  0.53976  1.0000
  S   S231      1.0  0.34364  0.11265  0.54099  1.0000
  S   S232      1.0  0.25099  0.02261  0.57431  1.0000
  S   S233      1.0  0.41820  0.15719  0.49403  1.0000
  Fe  Fe117     1.0  0.40879  0.12779  0.50253  1.0000
  Fe  Fe118     1.0  0.40287  0.15580  0.52986  1.0000
  S   S234      1.0  0.41092  0.17705  0.55011  1.0000
  C   C704      1.0  0.42246  0.20288  0.48361  1.0000
  S   S235      1.0  0.37865  0.15678  0.51682  1.0000
  Fe  Fe119     1.0  0.36204  0.12291  0.85588  1.0000
  S   S236      1.0  0.38561  0.11300  0.85036  1.0000
  S   S237      1.0  0.33500  0.10931  0.85138  1.0000
  Fe  Fe120     1.0  0.38086  0.15364  0.87586  1.0000
  S   S238      1.0  0.40568  0.14564  0.87130  1.0000
  S   S239      1.0  0.37724  0.17822  0.88861  1.0000
  Fe  Fe121     1.0  0.40071  0.14134  0.83637  1.0000
  S   S240      1.0  0.42378  0.14668  0.80596  1.0000
  Fe  Fe122     1.0  0.38866  0.11817  0.88553  1.0000
  S   S241      1.0  0.39355  0.09639  0.91093  1.0000
  S   S242      1.0  0.37694  0.15120  0.83963  1.0000
  S   S243      1.0  0.36404  0.12625  0.89235  1.0000
  H   H705      1.0  0.35581  0.15895  0.47948  1.0000
  H   H706      1.0  0.41573  0.15511  0.73427  1.0000
  Fe  Fe123     1.0  0.27356  0.01905  0.54966  1.0000
  S   S244      1.0  0.30030  0.03778  0.53184  1.0000
  C   C705      1.0  0.39499  0.22981  0.50785  1.0000
  Fe  Fe124     1.0  0.25896  0.02604  0.75187  1.0000
  S   S245      1.0  0.28256  0.02000  0.76192  1.0000
  S   S246      1.0  0.25547  0.03421  0.71447  1.0000
  H   H707      1.0  0.29928  0.01522  0.59473  1.0000
  S   S247      1.0  0.26442  0.01693  0.81655  1.0000
  Fe  Fe125     1.0  0.28162  0.03835  0.78660  1.0000
  S   S248      1.0  0.30786  0.05613  0.78808  1.0000
  S   S249      1.0  0.25946  0.04620  0.77408  1.0000
  C   C706      1.0  0.45613  0.12090  0.88433  1.0000
  H   H708      1.0  0.25145  0.04278  0.66715  1.0000
  H   H709      1.0  0.40116  0.20594  0.52121  1.0000
  S   S250      1.0  0.47494  0.18969  0.67274  1.0000
  S   S251      1.0  0.46820  0.18685  0.61171  1.0000
  H   H710      1.0  0.30674  0.03739  0.84839  1.0000
  Fe  Fe126     1.0  0.46597  0.21155  0.68488  1.0000
  S   S252      1.0  0.44217  0.20720  0.71365  1.0000
  S   S253      1.0  0.46612  0.22575  0.64858  1.0000
  H   H711      1.0  0.46558  0.14844  0.86785  1.0000
  Fe  Fe127     1.0  0.41556  0.27096  0.97340  1.0000
  S   S254      1.0  0.38517  0.12693  0.48780  1.0000
  C   C707      1.0  0.25292  0.02124  0.69325  1.0000
  C   C708      1.0  0.25149  0.02913  0.67086  1.0000
  H   H712      1.0  0.29028  0.00777  0.63582  1.0000
  C   C709      1.0  0.41009  0.10053  0.92640  1.0000
  C   C710      1.0  0.41988  0.11759  0.92504  1.0000
  C   C711      1.0  0.43365  0.12032  0.93650  1.0000
  C   C712      1.0  0.43774  0.10604  0.94930  1.0000
  C   C713      1.0  0.42780  0.08900  0.95091  1.0000
  C   C714      1.0  0.41401  0.08627  0.93951  1.0000
  H   H713      1.0  0.41693  0.12866  0.91506  1.0000
  H   H714      1.0  0.44125  0.13354  0.93529  1.0000
  H   H715      1.0  0.40642  0.07305  0.94071  1.0000
  C   C715      1.0  0.42886  0.16392  0.78076  1.0000
  C   C716      1.0  0.44384  0.16625  0.76349  1.0000
  C   C717      1.0  0.44827  0.17967  0.74307  1.0000
  C   C718      1.0  0.43767  0.19085  0.73969  1.0000
  C   C719      1.0  0.42267  0.18851  0.75693  1.0000
  C   C720      1.0  0.41829  0.17513  0.77742  1.0000
  H   H716      1.0  0.45209  0.15763  0.76593  1.0000
  H   H717      1.0  0.45981  0.18129  0.72989  1.0000
  H   H718      1.0  0.41439  0.19709  0.75443  1.0000
  H   H719      1.0  0.40673  0.17347  0.79058  1.0000
  C   C721      1.0  0.32781  0.09409  0.83408  1.0000
  C   C722      1.0  0.30994  0.08643  0.83719  1.0000
  C   C723      1.0  0.30357  0.07470  0.82354  1.0000
  C   C724      1.0  0.31500  0.07058  0.80631  1.0000
  C   C725      1.0  0.33288  0.07812  0.80334  1.0000
  C   C726      1.0  0.33925  0.08972  0.81715  1.0000
  H   H720      1.0  0.30091  0.08968  0.85016  1.0000
  H   H721      1.0  0.28981  0.06908  0.82609  1.0000
  H   H722      1.0  0.34189  0.07512  0.79007  1.0000
  H   H723      1.0  0.35301  0.09548  0.81441  1.0000
  C   C727      1.0  0.44454  0.10497  0.88462  1.0000
  C   C728      1.0  0.42672  0.17936  0.56750  1.0000
  C   C729      1.0  0.43699  0.16775  0.57006  1.0000
  C   C730      1.0  0.44954  0.17029  0.58367  1.0000
  C   C731      1.0  0.45201  0.18440  0.59495  1.0000
  C   C732      1.0  0.44167  0.19598  0.59250  1.0000
  C   C733      1.0  0.42913  0.19346  0.57884  1.0000
  H   H724      1.0  0.43533  0.15686  0.56148  1.0000
  H   H725      1.0  0.45746  0.16126  0.58537  1.0000
  H   H726      1.0  0.44349  0.20701  0.60080  1.0000
  H   H727      1.0  0.42131  0.20256  0.57696  1.0000
  C   C734      1.0  0.33209  0.09133  0.53944  1.0000
  C   C735      1.0  0.33977  0.08103  0.52661  1.0000
  C   C736      1.0  0.32983  0.06467  0.52463  1.0000
  C   C737      1.0  0.31216  0.05830  0.53560  1.0000
  C   C738      1.0  0.30452  0.06848  0.54872  1.0000
  C   C739      1.0  0.31444  0.08491  0.55055  1.0000
  H   H728      1.0  0.35332  0.08577  0.51794  1.0000
  H   H729      1.0  0.33589  0.05690  0.51448  1.0000
  H   H730      1.0  0.29092  0.06385  0.55707  1.0000
  H   H731      1.0  0.30833  0.09282  0.56039  1.0000
  C   C740      1.0  0.43879  0.31096  0.93622  1.0000
  C   C741      1.0  0.42682  0.31821  0.94800  1.0000
  C   C742      1.0  0.44612  0.13488  0.85218  1.0000
  Fe  Fe128     1.0  0.47671  0.20461  0.63626  1.0000
  H   H732      1.0  0.41316  0.01580  0.95280  1.0000
  H   H733      1.0  0.43423  0.22295  0.96116  1.0000
  C   C743      1.0  0.29982  0.05675  0.63778  1.0000
  H   H734      1.0  0.43168  0.13433  0.72147  1.0000
  S   S255      1.0  0.24017  0.00401  0.77981  1.0000
  H   H735      1.0  0.46176  0.31637  0.90902  1.0000
  C   C744      1.0  0.38987  0.19806  0.95381  1.0000
  C   C745      1.0  0.38202  0.20707  0.93847  1.0000
  C   C746      1.0  0.37805  0.20067  0.91883  1.0000
  C   C747      1.0  0.38197  0.18527  0.91415  1.0000
  C   C748      1.0  0.38968  0.17618  0.92959  1.0000
  C   C749      1.0  0.39354  0.18252  0.94931  1.0000
  H   H736      1.0  0.37906  0.21901  0.94168  1.0000
  H   H737      1.0  0.37202  0.20779  0.90709  1.0000
  H   H738      1.0  0.39271  0.16428  0.92636  1.0000
  H   H739      1.0  0.40857  0.25396  0.88329  1.0000
  C   C750      1.0  0.43054  0.14516  0.70868  1.0000
  N   N58       1.0  0.43380  0.10413  0.86931  1.0000
  C   C751      1.0  0.43466  0.11875  0.85300  1.0000
  C   C752      1.0  0.42187  0.08731  0.86962  1.0000
  H   H740      1.0  0.42633  0.11805  0.84062  1.0000
  H   H741      1.0  0.41801  0.07857  0.88741  1.0000
  H   H742      1.0  0.40966  0.08932  0.86521  1.0000
  H   H743      1.0  0.42794  0.08074  0.85689  1.0000
  N   N59       1.0  0.32647  0.14350  0.88304  1.0000
  C   C753      1.0  0.31896  0.12681  0.89616  1.0000
  C   C754      1.0  0.33533  0.15609  0.89259  1.0000
  C   C755      1.0  0.32003  0.12243  0.91957  1.0000
  C   C756      1.0  0.33657  0.15220  0.91597  1.0000
  C   C757      1.0  0.32890  0.13525  0.92950  1.0000
  C   C758      1.0  0.32592  0.14780  0.85826  1.0000
  H   H744      1.0  0.31241  0.11665  0.88842  1.0000
  H   H745      1.0  0.34182  0.16918  0.88199  1.0000
  H   H746      1.0  0.31436  0.10909  0.92972  1.0000
  H   H747      1.0  0.34393  0.16218  0.92328  1.0000
  H   H748      1.0  0.33017  0.13199  0.94748  1.0000
  H   H749      1.0  0.33842  0.14790  0.84721  1.0000
  H   H750      1.0  0.31559  0.13792  0.85400  1.0000
  H   H751      1.0  0.32347  0.16084  0.85353  1.0000
  C   C759      1.0  0.42155  0.15678  0.71588  1.0000
  H   H752      1.0  0.44294  0.16385  0.65058  1.0000
  H   H753      1.0  0.42379  0.19627  0.50099  1.0000
  C   C760      1.0  0.43690  0.16195  0.66893  1.0000
  H   H754      1.0  0.43900  0.19285  0.64424  1.0000
  C   C761      1.0  0.29531  0.04400  0.65862  1.0000
  C   C762      1.0  0.43817  0.14765  0.68502  1.0000
  C   C763      1.0  0.42065  0.17101  0.69934  1.0000
  H   H755      1.0  0.41572  0.18539  0.65265  1.0000
  N   N60       1.0  0.41436  0.21718  0.48557  1.0000
  H   H756      1.0  0.44381  0.09343  0.89768  1.0000
  H   H757      1.0  0.32123  0.11742  0.50573  1.0000
  C   C764      1.0  0.42767  0.18876  0.65932  1.0000
  H   H758      1.0  0.42786  0.20027  0.66742  1.0000
  H   H759      1.0  0.43080  0.07793  0.96082  1.0000
  H   H760      1.0  0.29370  0.04772  0.67541  1.0000
  C   C765      1.0  0.46642  0.32270  0.96962  1.0000
  H   H761      1.0  0.47558  0.03101  0.96819  1.0000
  N   N61       1.0  0.42878  0.22868  0.92733  1.0000
  C   C766      1.0  0.42297  0.22111  0.91027  1.0000
  C   C767      1.0  0.42810  0.24539  0.92830  1.0000
  C   C768      1.0  0.41566  0.23009  0.89413  1.0000
  C   C769      1.0  0.42087  0.25475  0.91247  1.0000
  H   H762      1.0  0.45056  0.22180  0.93699  1.0000
  C   C770      1.0  0.29235  0.02633  0.65781  1.0000
  H   H763      1.0  0.42339  0.20782  0.90955  1.0000
  H   H764      1.0  0.24955  0.02593  0.63589  1.0000
  H   H765      1.0  0.42010  0.26789  0.91367  1.0000
  C   C771      1.0  0.29351  0.02160  0.63617  1.0000
  C   C772      1.0  0.25065  0.00200  0.65753  1.0000
  C   C773      1.0  0.30125  0.05159  0.61638  1.0000
  C   C774      1.0  0.33013  0.11777  0.48969  1.0000
  H   H766      1.0  0.38622  0.22926  0.52407  1.0000
  N   N62       1.0  0.29815  0.03421  0.61581  1.0000
  C   C775      1.0  0.45250  0.32192  0.91827  1.0000
  H   H767      1.0  0.34205  0.14573  0.50658  1.0000
  H   H768      1.0  0.43298  0.25154  0.94154  1.0000
  H   H769      1.0  0.44650  0.14648  0.83939  1.0000
  H   H770      1.0  0.30472  0.06155  0.60022  1.0000
  C   C776      1.0  0.31802  0.02552  0.82212  1.0000
  N   N63       1.0  0.42860  0.17365  0.67630  1.0000
  C   C777      1.0  0.41354  0.00919  0.97009  1.0000
  H   H771      1.0  0.28802  0.03113  0.58588  1.0000
  H   H772      1.0  0.33267  0.15448  0.48327  1.0000
  N   N64       1.0  0.34254  0.13291  0.47821  1.0000
  H   H773      1.0  0.46417  0.12159  0.89709  1.0000
  S   S256      1.0  0.42851  0.11325  0.49161  1.0000
  H   H774      1.0  0.41615  0.30986  0.96178  1.0000
  C   C778      1.0  0.39767  0.24346  0.48840  1.0000
  C   C779      1.0  0.45683  0.13595  0.86807  1.0000
  H   H775      1.0  0.43028  0.20476  0.94782  1.0000
  C   C780      1.0  0.29923  0.02918  0.59321  1.0000
  H   H776      1.0  0.41404  0.18026  0.70521  1.0000
  H   H777      1.0  0.30203  0.07052  0.63822  1.0000
  C   C781      1.0  0.40346  0.21666  0.50610  1.0000
  C   C782      1.0  0.41450  0.24697  0.89540  1.0000
  Fe  Fe129     1.0  0.39360  0.15630  0.48187  1.0000
  C   C783      1.0  0.25043  0.01961  0.65307  1.0000
  Fe  Fe130     1.0  0.24215  0.02370  0.80268  1.0000
  H   H778      1.0  0.44523  0.13874  0.67916  1.0000
  C   C784      1.0  0.29244  0.01035  0.85225  1.0000
  H   H779      1.0  0.32825  0.03737  0.81348  1.0000
  C   C785      1.0  0.32910  0.10236  0.48148  1.0000
  H   H780      1.0  0.28848  0.01632  0.67394  1.0000
  S   S257      1.0  0.45580  0.10993  0.96214  1.0000
  H   H781      1.0  0.41048  0.22375  0.88119  1.0000
  H   H782      1.0  0.47214  0.32596  0.58913  1.0000
  H   H783      1.0  0.39951  0.17535  0.96111  1.0000
  H   H784      1.0  0.28282  0.01060  0.86716  1.0000
  C   C786      1.0  0.30593  0.02551  0.84180  1.0000
  S   S258      1.0  0.39149  0.25523  0.96557  1.0000
  H   H785      1.0  0.39085  0.25350  0.48920  1.0000
  C   C787      1.0  0.46743  0.01788  0.97002  1.0000
  H   H786      1.0  0.46188  0.02398  0.93585  1.0000
  H   H787      1.0  0.48713  0.08683  0.48030  1.0000
  C   C788      1.0  0.34330  0.14884  0.48727  1.0000
  H   H788      1.0  0.32527  0.01076  0.79697  1.0000
  H   H789      1.0  0.41444  0.19305  0.47614  1.0000
  C   C789      1.0  0.31635  0.01059  0.81286  1.0000
  C   C790      1.0  0.45982  0.01394  0.95157  1.0000
  H   H790      1.0  0.37682  0.18933  0.47792  1.0000
  C   C791      1.0  0.25291  0.00357  0.69779  1.0000
  H   H791      1.0  0.31133  0.03725  0.58055  1.0000
  S   S259      1.0  0.25690  0.00475  0.52865  1.0000
  H   H792      1.0  0.47587  0.31849  0.95840  1.0000
  Fe  Fe131     1.0  0.27404  0.38989  0.35145  1.0000
  S   S260      1.0  0.28395  0.36913  0.33591  1.0000
  Fe  Fe132     1.0  0.28274  0.41296  0.38657  1.0000
  S   S261      1.0  0.26673  0.43084  0.37539  1.0000
  S   S262      1.0  0.30091  0.41508  0.41153  1.0000
  Fe  Fe133     1.0  0.27809  0.42964  0.33861  1.0000
  S   S263      1.0  0.29188  0.45369  0.30968  1.0000
  S   S264      1.0  0.26238  0.38786  0.38931  1.0000
  S   S265      1.0  0.29546  0.41360  0.34986  1.0000
  H   H793      1.0  0.46891  0.55374  0.03718  1.0000
  S   S266      1.0  0.25711  0.41102  0.01715  1.0000
  Fe  Fe134     1.0  0.27446  0.52113  0.15351  1.0000
  S   S267      1.0  0.29876  0.52284  0.12734  1.0000
  S   S268      1.0  0.25981  0.54190  0.14937  1.0000
  Fe  Fe135     1.0  0.27710  0.48891  0.18605  1.0000
  S   S269      1.0  0.30133  0.48792  0.16257  1.0000
  S   S270      1.0  0.26169  0.46876  0.21914  1.0000
  Fe  Fe136     1.0  0.31015  0.51728  0.15881  1.0000
  S   S271      1.0  0.33850  0.52913  0.15933  1.0000
  Fe  Fe137     1.0  0.28818  0.49350  0.13281  1.0000
  S   S272      1.0  0.29188  0.47835  0.10388  1.0000
  S   S273      1.0  0.28668  0.51772  0.18456  1.0000
  S   S274      1.0  0.26318  0.49233  0.15673  1.0000
  S   S275      1.0  0.44499  0.59665  0.40257  1.0000
  C   C792      1.0  0.43658  0.35409  0.40821  1.0000
  H   H794      1.0  0.47663  0.36382  0.20099  1.0000
  H   H795      1.0  0.43426  0.38244  0.46146  1.0000
  S   S276      1.0  0.41765  0.51453  0.44171  1.0000
  S   S277      1.0  0.37821  0.47628  0.45722  1.0000
  H   H796      1.0  0.29911  0.34156  0.36020  1.0000
  S   S278      1.0  0.45030  0.60312  0.03395  1.0000
  Fe  Fe138     1.0  0.44420  0.61630  0.15933  1.0000
  S   S279      1.0  0.42530  0.63101  0.14974  1.0000
  S   S280      1.0  0.46400  0.60838  0.13477  1.0000
  Fe  Fe139     1.0  0.43340  0.61522  0.21121  1.0000
  S   S281      1.0  0.41340  0.62981  0.20577  1.0000
  S   S282      1.0  0.43743  0.60276  0.24651  1.0000
  Fe  Fe140     1.0  0.40627  0.61229  0.18103  1.0000
  S   S283      1.0  0.37783  0.60151  0.18027  1.0000
  Fe  Fe141     1.0  0.43389  0.64737  0.17498  1.0000
  S   S284      1.0  0.42469  0.59643  0.18884  1.0000
  S   S285      1.0  0.45431  0.63392  0.18223  1.0000
  C   C793      1.0  0.41963  0.60546  0.32946  1.0000
  Fe  Fe142     1.0  0.48843  0.57596  0.98414  1.0000
  C   C794      1.0  0.25492  0.39812  0.08598  1.0000
  C   C795      1.0  0.45472  0.60504  0.06156  1.0000
  C   C796      1.0  0.44149  0.60637  0.07912  1.0000
  C   C797      1.0  0.44429  0.60757  0.10150  1.0000
  C   C798      1.0  0.46033  0.60731  0.10657  1.0000
  C   C799      1.0  0.47360  0.60599  0.08901  1.0000
  C   C800      1.0  0.47086  0.60504  0.06648  1.0000
  H   H797      1.0  0.42905  0.60659  0.07530  1.0000
  H   H798      1.0  0.43403  0.60860  0.11488  1.0000
  C   C801      1.0  0.47903  0.62635  0.28382  1.0000
  Fe  Fe143     1.0  0.39158  0.50129  0.46604  1.0000
  H   H799      1.0  0.28215  0.54659  0.23298  1.0000
  H   H800      1.0  0.44927  0.62041  0.35991  1.0000
  Fe  Fe144     1.0  0.24222  0.43131  0.01660  1.0000
  C   C802      1.0  0.27927  0.34072  0.31569  1.0000
  H   H801      1.0  0.46376  0.56911  0.20266  1.0000
  C   C803      1.0  0.46454  0.62916  0.25116  1.0000
  C   C804      1.0  0.45345  0.61232  0.26053  1.0000
  C   C805      1.0  0.45512  0.60259  0.28162  1.0000
  C   C806      1.0  0.46783  0.60957  0.29325  1.0000
  H   H802      1.0  0.44700  0.50024  0.45701  1.0000
  H   H803      1.0  0.46336  0.63677  0.23494  1.0000
  H   H804      1.0  0.44658  0.58956  0.28902  1.0000
  C   C807      1.0  0.43666  0.57378  0.41246  1.0000
  C   C808      1.0  0.44505  0.56248  0.40293  1.0000
  C   C809      1.0  0.43863  0.54428  0.41147  1.0000
  C   C810      1.0  0.42387  0.53726  0.42971  1.0000
  C   C811      1.0  0.41516  0.54851  0.43886  1.0000
  C   C812      1.0  0.42152  0.56676  0.43014  1.0000
  H   H805      1.0  0.45648  0.56776  0.38895  1.0000
  H   H806      1.0  0.44525  0.53561  0.40407  1.0000
  H   H807      1.0  0.40376  0.54319  0.45294  1.0000
  H   H808      1.0  0.41494  0.57548  0.43747  1.0000
  C   C813      1.0  0.34877  0.54868  0.16722  1.0000
  C   C814      1.0  0.33999  0.56096  0.17273  1.0000
  C   C815      1.0  0.34900  0.57682  0.17733  1.0000
  C   C816      1.0  0.36687  0.58060  0.17651  1.0000
  C   C817      1.0  0.37558  0.56819  0.17137  1.0000
  C   C818      1.0  0.36658  0.55236  0.16672  1.0000
  H   H809      1.0  0.32631  0.55836  0.17315  1.0000
  H   H810      1.0  0.34213  0.58634  0.18126  1.0000
  H   H811      1.0  0.38931  0.57090  0.17061  1.0000
  H   H812      1.0  0.37351  0.54295  0.16249  1.0000
  C   C819      1.0  0.44123  0.35827  0.42869  1.0000
  N   N65       1.0  0.47755  0.53791  0.42900  1.0000
  C   C820      1.0  0.25472  0.45796  0.05833  1.0000
  C   C821      1.0  0.26078  0.47349  0.08930  1.0000
  C   C822      1.0  0.27744  0.47122  0.08613  1.0000
  C   C823      1.0  0.28270  0.46242  0.06884  1.0000
  C   C824      1.0  0.27138  0.45570  0.05514  1.0000
  H   H813      1.0  0.29559  0.46067  0.06617  1.0000
  H   H814      1.0  0.27556  0.44881  0.04209  1.0000
  H   H815      1.0  0.34812  0.59116  0.12230  1.0000
  C   C825      1.0  0.28414  0.42299  0.25631  1.0000
  H   H816      1.0  0.44808  0.37156  0.42849  1.0000
  C   C826      1.0  0.30817  0.43337  0.42353  1.0000
  C   C827      1.0  0.30221  0.44834  0.41945  1.0000
  C   C828      1.0  0.30944  0.46315  0.42770  1.0000
  C   C829      1.0  0.32266  0.46313  0.44002  1.0000
  C   C830      1.0  0.32823  0.44797  0.44470  1.0000
  C   C831      1.0  0.32099  0.43315  0.43650  1.0000
  H   H817      1.0  0.29218  0.44856  0.40978  1.0000
  C   C832      1.0  0.45928  0.50877  0.44647  1.0000
  H   H818      1.0  0.32556  0.42156  0.43985  1.0000
  C   C833      1.0  0.28316  0.45816  0.28487  1.0000
  C   C834      1.0  0.29340  0.47073  0.26494  1.0000
  C   C835      1.0  0.28697  0.47420  0.24465  1.0000
  C   C836      1.0  0.27020  0.46519  0.24429  1.0000
  C   C837      1.0  0.25985  0.45288  0.26438  1.0000
  C   C838      1.0  0.26634  0.44926  0.28455  1.0000
  H   H819      1.0  0.30642  0.47769  0.26508  1.0000
  H   H820      1.0  0.29504  0.48374  0.22926  1.0000
  C   C839      1.0  0.42591  0.40570  0.45192  1.0000
  H   H821      1.0  0.25831  0.43964  0.29986  1.0000
  C   C840      1.0  0.27129  0.35222  0.32579  1.0000
  H   H822      1.0  0.24682  0.44593  0.26426  1.0000
  Fe  Fe145     1.0  0.47300  0.60618  0.38317  1.0000
  N   N66       1.0  0.47396  0.59469  0.20754  1.0000
  C   C841      1.0  0.39340  0.58333  0.11115  1.0000
  C   C842      1.0  0.41560  0.61808  0.29097  1.0000
  C   C843      1.0  0.39125  0.59847  0.11830  1.0000
  Fe  Fe146     1.0  0.46911  0.60039  0.00292  1.0000
  C   C844      1.0  0.25349  0.34970  0.32820  1.0000
  H   H823      1.0  0.48134  0.61169  0.17352  1.0000
  H   H824      1.0  0.27346  0.38436  0.29509  1.0000
  H   H825      1.0  0.48609  0.60598  0.09277  1.0000
  C   C845      1.0  0.47732  0.63609  0.26273  1.0000
  C   C846      1.0  0.48731  0.51292  0.42173  1.0000
  C   C847      1.0  0.43925  0.63244  0.30751  1.0000
  H   H826      1.0  0.25656  0.48025  0.10248  1.0000
  C   C848      1.0  0.24955  0.46698  0.07538  1.0000
  H   H827      1.0  0.46468  0.34360  0.19510  1.0000
  S   S286      1.0  0.25752  0.40607  0.33730  1.0000
  C   C849      1.0  0.46240  0.52701  0.44297  1.0000
  H   H828      1.0  0.26622  0.39326  0.08637  1.0000
  H   H829      1.0  0.37228  0.40542  0.45732  1.0000
  H   H830      1.0  0.38524  0.42510  0.46296  1.0000
  C   C850      1.0  0.25869  0.39133  0.27029  1.0000
  H   H831      1.0  0.24884  0.37884  0.27599  1.0000
  C   C851      1.0  0.44823  0.63324  0.32548  1.0000
  H   H832      1.0  0.45970  0.64391  0.32353  1.0000
  N   N67       1.0  0.25366  0.41270  0.09435  1.0000
  Fe  Fe147     1.0  0.26243  0.41892  0.97784  1.0000
  Fe  Fe148     1.0  0.24724  0.40584  0.37530  1.0000
  S   S287      1.0  0.46067  0.57625  0.98905  1.0000
  N   N68       1.0  0.24535  0.51013  0.22372  1.0000
  H   H833      1.0  0.26929  0.41255  0.11940  1.0000
  C   C852      1.0  0.48051  0.55702  0.42460  1.0000
  H   H834      1.0  0.46900  0.60193  0.30945  1.0000
  H   H835      1.0  0.43974  0.36427  0.39241  1.0000
  H   H836      1.0  0.48593  0.64910  0.25535  1.0000
  H   H837      1.0  0.43872  0.41382  0.44269  1.0000
  H   H838      1.0  0.47019  0.56098  0.43546  1.0000
  C   C853      1.0  0.37905  0.57119  0.10807  1.0000
  H   H839      1.0  0.48089  0.56227  0.40592  1.0000
  C   C854      1.0  0.24819  0.52711  0.21199  1.0000
  H   H840      1.0  0.26523  0.43340  0.10989  1.0000
  S   S288      1.0  0.24940  0.44066  0.97732  1.0000
  S   S289      1.0  0.47313  0.39951  0.45242  1.0000
  S   S290      1.0  0.33288  0.48273  0.44741  1.0000
  N   N69       1.0  0.28503  0.41029  0.27426  1.0000
  C   C855      1.0  0.38105  0.41052  0.46836  1.0000
  C   C856      1.0  0.26862  0.51904  0.24266  1.0000
  N   N70       1.0  0.48183  0.34074  0.21780  1.0000
  C   C857      1.0  0.47186  0.50170  0.43586  1.0000
  H   H841      1.0  0.30241  0.42668  0.28925  1.0000
  H   H842      1.0  0.43182  0.33704  0.00865  1.0000
  H   H843      1.0  0.48696  0.35261  0.18134  1.0000
  C   C858      1.0  0.25755  0.40430  0.25216  1.0000
  C   C859      1.0  0.27164  0.53640  0.23069  1.0000
  H   H844      1.0  0.24285  0.37793  0.06964  1.0000
  H   H845      1.0  0.26382  0.55383  0.20530  1.0000
  H   H846      1.0  0.27677  0.51558  0.25430  1.0000
  C   C860      1.0  0.24177  0.38938  0.07654  1.0000
  H   H847      1.0  0.40604  0.58088  0.10841  1.0000
  C   C861      1.0  0.29978  0.41339  0.28541  1.0000
  H   H848      1.0  0.45243  0.53233  0.45110  1.0000
  C   C862      1.0  0.34812  0.56138  0.10852  1.0000
  H   H849      1.0  0.47311  0.57416  0.04595  1.0000
  H   H850      1.0  0.38076  0.55932  0.10287  1.0000
  H   H851      1.0  0.47942  0.34434  0.46467  1.0000
  S   S291      1.0  0.48377  0.63424  0.36377  1.0000
  C   C863      1.0  0.27265  0.39453  0.28111  1.0000
  C   C864      1.0  0.47689  0.59180  0.22965  1.0000
  C   C865      1.0  0.48019  0.36357  0.38894  1.0000
  C   C866      1.0  0.42825  0.60591  0.34781  1.0000
  H   H852      1.0  0.34565  0.56571  0.09098  1.0000
  H   H853      1.0  0.48124  0.60456  0.05285  1.0000
  H   H854      1.0  0.46889  0.58039  0.24286  1.0000
  S   S292      1.0  0.23954  0.44896  0.04257  1.0000
  H   H855      1.0  0.24923  0.36237  0.00205  1.0000
  H   H856      1.0  0.44386  0.64275  0.29169  1.0000
  H   H857      1.0  0.40363  0.62216  0.29589  1.0000
  C   C867      1.0  0.25187  0.33622  0.01309  1.0000
  C   C868      1.0  0.27040  0.42021  0.24500  1.0000
  C   C869      1.0  0.47411  0.56046  0.05033  1.0000
  H   H858      1.0  0.47411  0.36123  0.37451  1.0000
  C   C870      1.0  0.44257  0.61993  0.34576  1.0000
  C   C871      1.0  0.25537  0.50599  0.23889  1.0000
  H   H859      1.0  0.33636  0.55988  0.12219  1.0000
  S   S293      1.0  0.48405  0.59558  0.35339  1.0000
  H   H860      1.0  0.45859  0.58619  0.18370  1.0000
  H   H861      1.0  0.46957  0.48756  0.43844  1.0000
  H   H862      1.0  0.29394  0.43550  0.25087  1.0000
  H   H863      1.0  0.45415  0.35887  0.97687  1.0000
  H   H864      1.0  0.35019  0.54806  0.11010  1.0000
  H   H865      1.0  0.27998  0.42612  0.09055  1.0000
  H   H866      1.0  0.29730  0.40379  0.30233  1.0000
  H   H867      1.0  0.44787  0.57970  0.21413  1.0000
  H   H868      1.0  0.33835  0.44780  0.45424  1.0000
  C   C872      1.0  0.24373  0.33561  0.32087  1.0000
  H   H869      1.0  0.25338  0.49248  0.24782  1.0000
  C   C873      1.0  0.26769  0.42159  0.10408  1.0000
  H   H870      1.0  0.31143  0.41222  0.27373  1.0000
  N   N71       1.0  0.32895  0.46409  0.36729  1.0000
  C   C874      1.0  0.33789  0.45269  0.37510  1.0000
  C   C875      1.0  0.33201  0.48048  0.37198  1.0000
  C   C876      1.0  0.35046  0.45767  0.38772  1.0000
  C   C877      1.0  0.34442  0.48585  0.38468  1.0000
  C   C878      1.0  0.35369  0.47436  0.39257  1.0000
  C   C879      1.0  0.31534  0.45815  0.35506  1.0000
  H   H871      1.0  0.33479  0.43938  0.37244  1.0000
  H   H872      1.0  0.32450  0.48929  0.36656  1.0000
  H   H873      1.0  0.35705  0.44837  0.39465  1.0000
  H   H874      1.0  0.34629  0.49851  0.38939  1.0000
  H   H875      1.0  0.36275  0.47812  0.40337  1.0000
  H   H876      1.0  0.31006  0.46892  0.34771  1.0000
  H   H877      1.0  0.32038  0.45266  0.34024  1.0000
  H   H878      1.0  0.30454  0.44778  0.36742  1.0000
  C   C880      1.0  0.42803  0.33680  0.40792  1.0000
  C   C881      1.0  0.24486  0.35040  0.01555  1.0000
  N   N72       1.0  0.36301  0.57405  0.11213  1.0000
  C   C882      1.0  0.43729  0.34515  0.44913  1.0000
  H   H879      1.0  0.40849  0.59452  0.33116  1.0000
  H   H880      1.0  0.40211  0.60775  0.12147  1.0000
  H   H881      1.0  0.41394  0.42666  0.44596  1.0000
  C   C883      1.0  0.46041  0.58178  0.20167  1.0000
  H   H882      1.0  0.30499  0.47481  0.42416  1.0000
  N   N73       1.0  0.48377  0.35321  0.42770  1.0000
  H   H883      1.0  0.41216  0.60462  0.28768  1.0000
  H   H884      1.0  0.42345  0.62683  0.27406  1.0000
  H   H885      1.0  0.37305  0.61284  0.12840  1.0000
  C   C884      1.0  0.41181  0.41290  0.45388  1.0000
  C   C885      1.0  0.42346  0.38817  0.46258  1.0000
  C   C886      1.0  0.36086  0.58901  0.11876  1.0000
  H   H886      1.0  0.46586  0.55406  0.06804  1.0000
  H   H887      1.0  0.46786  0.33761  0.40987  1.0000
  C   C887      1.0  0.37491  0.60140  0.12203  1.0000
  N   N74       1.0  0.42521  0.61860  0.30961  1.0000
  H   H888      1.0  0.24720  0.35844  0.33599  1.0000
  H   H889      1.0  0.26960  0.43047  0.23102  1.0000
  H   H890      1.0  0.42396  0.59549  0.36360  1.0000
  C   C888      1.0  0.48365  0.60937  0.19108  1.0000
  H   H891      1.0  0.43889  0.46353  0.46119  1.0000
  Fe  Fe149     1.0  0.35379  0.48384  0.46829  1.0000
  C   C889      1.0  0.26135  0.54049  0.21525  1.0000
  C   C890      1.0  0.47671  0.35021  0.40904  1.0000
  N   N75       1.0  0.39578  0.40292  0.46636  1.0000
  H   H892      1.0  0.29306  0.34266  0.31361  1.0000
  H   H893      1.0  0.26169  0.33740  0.99768  1.0000
  C   C891      1.0  0.45427  0.34519  0.97992  1.0000
  C   C892      1.0  0.48007  0.33905  0.44856  1.0000
  S   S294      1.0  0.45687  0.43755  0.47047  1.0000
  C   C893      1.0  0.47732  0.35077  0.19788  1.0000
  H   H894      1.0  0.48614  0.53257  0.04920  1.0000
  C   C894      1.0  0.23949  0.41895  0.09354  1.0000
  H   H895      1.0  0.24049  0.53039  0.19967  1.0000
  H   H896      1.0  0.24674  0.40206  0.24369  1.0000
  C   C895      1.0  0.44158  0.33291  0.99786  1.0000
  S   S295      1.0  0.28786  0.42006  0.95458  1.0000
  N   N76       1.0  0.32472  0.54840  0.59106  1.0000
  S   S296      1.0  0.34935  0.46988  0.50578  1.0000
  S   S297      1.0  0.39007  0.48894  0.50354  1.0000
  C   C896      1.0  0.33267  0.54242  0.57314  1.0000
  S   S298      1.0  0.37995  0.43866  0.50865  1.0000
  Fe  Fe150     1.0  0.36465  0.49545  0.51135  1.0000
  S   S299      1.0  0.35290  0.50110  0.54592  1.0000
  H   H897      1.0  0.46967  0.34744  0.59191  1.0000
  Fe  Fe151     1.0  0.37572  0.58223  0.67073  1.0000
  S   S300      1.0  0.39038  0.56257  0.66388  1.0000
  S   S301      1.0  0.38663  0.60977  0.67623  1.0000
  Fe  Fe152     1.0  0.34092  0.55705  0.66932  1.0000
  S   S302      1.0  0.35310  0.53546  0.66292  1.0000
  S   S303      1.0  0.31267  0.55666  0.67112  1.0000
  Fe  Fe153     1.0  0.36793  0.54299  0.69004  1.0000
  S   S304      1.0  0.37305  0.52226  0.71686  1.0000
  Fe  Fe154     1.0  0.37431  0.55681  0.63749  1.0000
  S   S305      1.0  0.38697  0.55642  0.60052  1.0000
  S   S306      1.0  0.35410  0.56294  0.69851  1.0000
  S   S307      1.0  0.36134  0.57814  0.64218  1.0000
  S   S308      1.0  0.25570  0.50238  0.63965  1.0000
  Fe  Fe155     1.0  0.46881  0.59432  0.95359  1.0000
  S   S309      1.0  0.45456  0.59302  0.92440  1.0000
  H   H898      1.0  0.40860  0.55415  0.71137  1.0000
  Fe  Fe156     1.0  0.36948  0.49507  0.88781  1.0000
  S   S310      1.0  0.37369  0.49012  0.85151  1.0000
  S   S311      1.0  0.34434  0.49288  0.91273  1.0000
  Fe  Fe157     1.0  0.40816  0.51063  0.88427  1.0000
  S   S312      1.0  0.41564  0.50765  0.84729  1.0000
  S   S313      1.0  0.42620  0.51659  0.90854  1.0000
  Fe  Fe158     1.0  0.39239  0.51697  0.84130  1.0000
  S   S314      1.0  0.39163  0.53811  0.81106  1.0000
  Fe  Fe159     1.0  0.39654  0.48108  0.86025  1.0000
  S   S315      1.0  0.40236  0.45583  0.85401  1.0000
  S   S316      1.0  0.38685  0.52254  0.87723  1.0000
  S   S317      1.0  0.39036  0.48347  0.89754  1.0000
  Fe  Fe160     1.0  0.46988  0.38756  0.89314  1.0000
  S   S318      1.0  0.47022  0.39794  0.85538  1.0000
  C   C897      1.0  0.24779  0.42544  0.91579  1.0000
  C   C898      1.0  0.29704  0.53096  0.58883  1.0000
  S   S319      1.0  0.46257  0.65301  0.67782  1.0000
  H   H899      1.0  0.26629  0.48510  0.68452  1.0000
  S   S320      1.0  0.45119  0.38824  0.50730  1.0000
  H   H900      1.0  0.48052  0.65960  0.88646  1.0000
  H   H901      1.0  0.29605  0.45089  0.89897  1.0000
  S   S321      1.0  0.44589  0.37032  0.91940  1.0000
  C   C899      1.0  0.42401  0.45484  0.85065  1.0000
  C   C900      1.0  0.42781  0.43870  0.85043  1.0000
  C   C901      1.0  0.44467  0.43721  0.85036  1.0000
  C   C902      1.0  0.45786  0.45195  0.85006  1.0000
  C   C903      1.0  0.45419  0.46819  0.84938  1.0000
  C   C904      1.0  0.43733  0.46962  0.84981  1.0000
  H   H902      1.0  0.41761  0.42723  0.85091  1.0000
  H   H903      1.0  0.44741  0.42466  0.85065  1.0000
  H   H904      1.0  0.46437  0.47968  0.84896  1.0000
  H   H905      1.0  0.43462  0.48211  0.84988  1.0000
  C   C905      1.0  0.44750  0.57194  0.91900  1.0000
  C   C906      1.0  0.43817  0.56953  0.90156  1.0000
  C   C907      1.0  0.43180  0.55264  0.89778  1.0000
  C   C908      1.0  0.43485  0.53813  0.91139  1.0000
  C   C909      1.0  0.44439  0.54060  0.92860  1.0000
  C   C910      1.0  0.45065  0.55743  0.93245  1.0000
  H   H906      1.0  0.43570  0.58073  0.89111  1.0000
  H   H907      1.0  0.42442  0.55083  0.88452  1.0000
  H   H908      1.0  0.44669  0.52939  0.93925  1.0000
  H   H909      1.0  0.45772  0.55916  0.94602  1.0000
  C   C911      1.0  0.37500  0.52535  0.74508  1.0000
  C   C912      1.0  0.37267  0.54044  0.75236  1.0000
  C   C913      1.0  0.37677  0.54370  0.77348  1.0000
  C   C914      1.0  0.38296  0.53181  0.78762  1.0000
  C   C915      1.0  0.38413  0.51614  0.78114  1.0000
  C   C916      1.0  0.38023  0.51298  0.75988  1.0000
  H   H910      1.0  0.36833  0.54990  0.74133  1.0000
  H   H911      1.0  0.37565  0.55576  0.77852  1.0000
  H   H912      1.0  0.38885  0.50685  0.79193  1.0000
  H   H913      1.0  0.38186  0.50116  0.75450  1.0000
  C   C917      1.0  0.29676  0.54086  0.66355  1.0000
  C   C918      1.0  0.28005  0.54312  0.66497  1.0000
  C   C919      1.0  0.26721  0.53133  0.65808  1.0000
  C   C920      1.0  0.27103  0.51724  0.64950  1.0000
  C   C921      1.0  0.28766  0.51483  0.64839  1.0000
  C   C922      1.0  0.30045  0.52652  0.65549  1.0000
  H   H914      1.0  0.27709  0.55419  0.67121  1.0000
  H   H915      1.0  0.25446  0.53332  0.65906  1.0000
  H   H916      1.0  0.29074  0.50393  0.64181  1.0000
  H   H917      1.0  0.31322  0.52458  0.65439  1.0000
  H   H918      1.0  0.48663  0.53434  0.92397  1.0000
  N   N77       1.0  0.41552  0.55977  0.74279  1.0000
  C   C923      1.0  0.40735  0.42435  0.50805  1.0000
  C   C924      1.0  0.40705  0.37801  0.47492  1.0000
  C   C925      1.0  0.41338  0.63141  0.62094  1.0000
  H   H919      1.0  0.39851  0.41332  0.52097  1.0000
  C   C926      1.0  0.36331  0.51599  0.56102  1.0000
  C   C927      1.0  0.35560  0.51490  0.58445  1.0000
  C   C928      1.0  0.36292  0.52696  0.59690  1.0000
  C   C929      1.0  0.37802  0.54029  0.58598  1.0000
  C   C930      1.0  0.38594  0.54115  0.56270  1.0000
  C   C931      1.0  0.37866  0.52901  0.55026  1.0000
  H   H920      1.0  0.34374  0.50483  0.59294  1.0000
  H   H921      1.0  0.35674  0.52607  0.61484  1.0000
  H   H922      1.0  0.39763  0.55142  0.55411  1.0000
  H   H923      1.0  0.38471  0.52998  0.53222  1.0000
  C   C932      1.0  0.44116  0.64073  0.67913  1.0000
  C   C933      1.0  0.42702  0.64767  0.68335  1.0000
  C   C934      1.0  0.41041  0.63786  0.68277  1.0000
  C   C935      1.0  0.40771  0.62102  0.67796  1.0000
  C   C936      1.0  0.42184  0.61403  0.67383  1.0000
  C   C937      1.0  0.43844  0.62381  0.67452  1.0000
  H   H924      1.0  0.39958  0.64341  0.68595  1.0000
  H   H925      1.0  0.42005  0.60122  0.66976  1.0000
  H   H926      1.0  0.44931  0.61835  0.67116  1.0000
  C   C938      1.0  0.30394  0.44015  0.94428  1.0000
  C   C939      1.0  0.30147  0.45546  0.95067  1.0000
  C   C940      1.0  0.31402  0.47154  0.94093  1.0000
  C   C941      1.0  0.32913  0.47239  0.92483  1.0000
  C   C942      1.0  0.33168  0.45706  0.91857  1.0000
  C   C943      1.0  0.31910  0.44098  0.92830  1.0000
  H   H927      1.0  0.43498  0.65636  0.63237  1.0000
  H   H928      1.0  0.34328  0.45762  0.90614  1.0000
  H   H929      1.0  0.32105  0.42915  0.92326  1.0000
  H   H930      1.0  0.39693  0.43704  0.90466  1.0000
  N   N78       1.0  0.37613  0.46464  0.56388  1.0000
  C   C944      1.0  0.37674  0.47877  0.57393  1.0000
  C   C945      1.0  0.39107  0.46096  0.55454  1.0000
  C   C946      1.0  0.39259  0.49030  0.57352  1.0000
  C   C947      1.0  0.40717  0.47217  0.55388  1.0000
  C   C948      1.0  0.40789  0.48702  0.56326  1.0000
  C   C949      1.0  0.35931  0.45311  0.56395  1.0000
  H   H931      1.0  0.36488  0.48138  0.58192  1.0000
  H   H932      1.0  0.39063  0.44948  0.54719  1.0000
  H   H933      1.0  0.39292  0.50181  0.58086  1.0000
  H   H934      1.0  0.41895  0.46941  0.54590  1.0000
  H   H935      1.0  0.42026  0.49596  0.56261  1.0000
  H   H936      1.0  0.35005  0.46096  0.56055  1.0000
  H   H937      1.0  0.36034  0.44569  0.54987  1.0000
  H   H938      1.0  0.35401  0.44366  0.58110  1.0000
  N   N79       1.0  0.43081  0.63356  0.61791  1.0000
  H   H939      1.0  0.46973  0.38393  0.76548  1.0000
  C   C950      1.0  0.43792  0.62071  0.61177  1.0000
  C   C951      1.0  0.37705  0.54805  0.92698  1.0000
  Fe  Fe161     1.0  0.48351  0.42399  0.86171  1.0000
  C   C952      1.0  0.43584  0.43807  0.48279  1.0000
  C   C953      1.0  0.37344  0.52974  0.93218  1.0000
  H   H940      1.0  0.46512  0.34843  0.89865  1.0000
  C   C954      1.0  0.40343  0.41256  0.90564  1.0000
  C   C955      1.0  0.39325  0.38564  0.47663  1.0000
  C   C956      1.0  0.42446  0.42398  0.49983  1.0000
  H   H941      1.0  0.36235  0.52212  0.92724  1.0000
  C   C957      1.0  0.33508  0.56086  0.60188  1.0000
  H   H942      1.0  0.37106  0.49646  0.93803  1.0000
  H   H943      1.0  0.42890  0.66066  0.68689  1.0000
  N   N80       1.0  0.27021  0.45190  0.91149  1.0000
  C   C958      1.0  0.43280  0.41340  0.90791  1.0000
  C   C959      1.0  0.39776  0.53123  0.94934  1.0000
  N   N81       1.0  0.46643  0.33999  0.96603  1.0000
  C   C960      1.0  0.47563  0.37314  0.76746  1.0000
  Fe  Fe162     1.0  0.46554  0.41319  0.48090  1.0000
  C   C961      1.0  0.28241  0.44395  0.90333  1.0000
  C   C962      1.0  0.40255  0.61595  0.61826  1.0000
  H   H944      1.0  0.28739  0.41997  0.89612  1.0000
  H   H945      1.0  0.37429  0.49702  0.96706  1.0000
  Fe  Fe163     1.0  0.46070  0.37464  0.47974  1.0000
  S   S322      1.0  0.48503  0.37381  0.49230  1.0000
  H   H946      1.0  0.44712  0.65924  0.60282  1.0000
  S   S323      1.0  0.48110  0.41398  0.90001  1.0000
  S   S324      1.0  0.47688  0.38213  0.55636  1.0000
  H   H947      1.0  0.24387  0.44985  0.69566  1.0000
  H   H948      1.0  0.27341  0.46967  0.93382  1.0000
  C   C963      1.0  0.45444  0.34008  0.91240  1.0000
  H   H949      1.0  0.39441  0.57222  0.92907  1.0000
  C   C964      1.0  0.42228  0.54445  0.74752  1.0000
  H   H950      1.0  0.42874  0.41272  0.50641  1.0000
  H   H951      1.0  0.25629  0.40341  0.90721  1.0000
  H   H952      1.0  0.24589  0.51126  0.73523  1.0000
  C   C965      1.0  0.48419  0.36880  0.74773  1.0000
  C   C966      1.0  0.32303  0.53009  0.56315  1.0000
  H   H953      1.0  0.40763  0.64141  0.62623  1.0000
  C   C967      1.0  0.44275  0.34741  0.92462  1.0000
  C   C968      1.0  0.24420  0.50066  0.72604  1.0000
  H   H954      1.0  0.39072  0.40551  0.90424  1.0000
  H   H955      1.0  0.36894  0.55443  0.91794  1.0000
  C   C969      1.0  0.44205  0.65002  0.62019  1.0000
  C   C970      1.0  0.39127  0.55799  0.93326  1.0000
  C   C971      1.0  0.41591  0.57087  0.75785  1.0000
  H   H956      1.0  0.34660  0.54690  0.56675  1.0000
  H   H957      1.0  0.42052  0.56798  0.77375  1.0000
  H   H958      1.0  0.38867  0.61410  0.62150  1.0000
  H   H959      1.0  0.31204  0.48337  0.94593  1.0000
  H   H960      1.0  0.44298  0.40687  0.90847  1.0000
  N   N82       1.0  0.38395  0.52160  0.94283  1.0000
  H   H961      1.0  0.30073  0.54848  0.61207  1.0000
  H   H962      1.0  0.32947  0.52494  0.54944  1.0000
  C   C972      1.0  0.40306  0.58905  0.73361  1.0000
  C   C973      1.0  0.40965  0.60270  0.61229  1.0000
  H   H963      1.0  0.48154  0.37946  0.60337  1.0000
  H   H964      1.0  0.28310  0.52647  0.59532  1.0000
  C   C974      1.0  0.30710  0.54330  0.59839  1.0000
  S   S325      1.0  0.47890  0.45056  0.85138  1.0000
  C   C975      1.0  0.40929  0.56315  0.72305  1.0000
  H   H965      1.0  0.42334  0.45952  0.92605  1.0000
  H   H966      1.0  0.24364  0.46546  0.66981  1.0000
  H   H967      1.0  0.29751  0.51447  0.56388  1.0000
  C   C976      1.0  0.38018  0.50242  0.94814  1.0000
  H   H968      1.0  0.28988  0.45491  0.96311  1.0000
  C   C977      1.0  0.42657  0.45815  0.90770  1.0000
  C   C978      1.0  0.42745  0.60506  0.60898  1.0000
  H   H969      1.0  0.34815  0.55880  0.60134  1.0000
  H   H970      1.0  0.40136  0.59057  0.61036  1.0000
  H   H971      1.0  0.44033  0.46531  0.89972  1.0000
  C   C979      1.0  0.30512  0.52422  0.57124  1.0000
  H   H972      1.0  0.48480  0.37636  0.73047  1.0000
  C   C980      1.0  0.40701  0.43041  0.90597  1.0000
  C   C981      1.0  0.27759  0.42644  0.90151  1.0000
  C   C982      1.0  0.40165  0.43883  0.49938  1.0000
  H   H973      1.0  0.45310  0.64764  0.62769  1.0000
  H   H974      1.0  0.39717  0.58000  0.70327  1.0000
  H   H975      1.0  0.39797  0.60035  0.73007  1.0000
  H   H976      1.0  0.40620  0.52479  0.95757  1.0000
  H   H977      1.0  0.33648  0.57452  0.59263  1.0000
  C   C983      1.0  0.26016  0.41713  0.90792  1.0000
  H   H978      1.0  0.43633  0.54808  0.73967  1.0000
  H   H979      1.0  0.41552  0.53359  0.74032  1.0000
  Fe  Fe164     1.0  0.47665  0.38942  0.51778  1.0000
  C   C984      1.0  0.40969  0.58566  0.75349  1.0000
  H   H980      1.0  0.32892  0.55911  0.62067  1.0000
  C   C985      1.0  0.27545  0.46988  0.91480  1.0000
  C   C986      1.0  0.25558  0.48586  0.69756  1.0000
  H   H981      1.0  0.45175  0.62246  0.60921  1.0000
  H   H982      1.0  0.47515  0.36423  0.94050  1.0000
  H   H983      1.0  0.41966  0.34198  0.95162  1.0000
  H   H984      1.0  0.44889  0.43853  0.90841  1.0000
  C   C987      1.0  0.41644  0.40403  0.90665  1.0000
  C   C988      1.0  0.42881  0.33640  0.94220  1.0000
  H   H985      1.0  0.48183  0.33393  0.62814  1.0000
  N   N83       1.0  0.23980  0.47395  0.70173  1.0000
  C   C989      1.0  0.40275  0.57769  0.71837  1.0000
  Fe  Fe165     1.0  0.37504  0.46462  0.49520  1.0000
  H   H986      1.0  0.42006  0.53918  0.76671  1.0000
  C   C990      1.0  0.43599  0.43126  0.90804  1.0000
  C   C991      1.0  0.41313  0.45305  0.48273  1.0000
  H   H987      1.0  0.43303  0.59477  0.60435  1.0000
  N   N84       1.0  0.42318  0.43955  0.90692  1.0000
  H   H988      1.0  0.41876  0.46470  0.89742  1.0000
  H   H989      1.0  0.41397  0.39022  0.90627  1.0000
  H   H990      1.0  0.40973  0.59424  0.76569  1.0000
  C   C992      1.0  0.48004  0.35315  0.94796  1.0000
  H   H991      1.0  0.48053  0.63417  0.91425  1.0000
  S   S326      1.0  0.44345  0.34942  0.47513  1.0000
  C   C993      1.0  0.40158  0.54955  0.94479  1.0000
  S   S327      1.0  0.47488  0.61873  0.96755  1.0000
  H   H992      1.0  0.41277  0.55717  0.94954  1.0000
  H   H993      1.0  0.38052  0.37770  0.48635  1.0000
  H   H994      1.0  0.37375  0.40726  0.48689  1.0000
  H   H995      1.0  0.28936  0.47635  0.90676  1.0000
  C   C994      1.0  0.47851  0.34028  0.58413  1.0000
  H   H996      1.0  0.27046  0.50916  0.70563  1.0000
  H   H997      1.0  0.48069  0.34469  0.56481  1.0000
  H   H998      1.0  0.48634  0.54991  0.94250  1.0000
  C   C995      1.0  0.25800  0.49947  0.70949  1.0000
  C   C996      1.0  0.47553  0.36407  0.78973  1.0000
  H   H999      1.0  0.46968  0.36785  0.80521  1.0000
  C   C997      1.0  0.48371  0.35065  0.79204  1.0000
  H   H1000     1.0  0.40515  0.36433  0.48316  1.0000
  H   H1001     1.0  0.24338  0.44910  0.92440  1.0000
  H   H1002     1.0  0.26775  0.47797  0.90676  1.0000
  H   H1003     1.0  0.48237  0.52732  0.95563  1.0000
  H   H1004     1.0  0.39222  0.49837  0.94335  1.0000
  C   C998      1.0  0.25308  0.44291  0.91760  1.0000
  H   H1005     1.0  0.48418  0.34400  0.80933  1.0000
  H   H1006     1.0  0.48459  0.34748  0.93307  1.0000
  H   H1007     1.0  0.40883  0.46427  0.47590  1.0000
  S   S328      1.0  0.36734  0.51004  0.47431  1.0000
  C   C999      1.0  0.43017  0.45264  0.47443  1.0000
  S   S329      1.0  0.23914  0.39894  0.97420  1.0000
  S   S330      1.0  0.27478  0.89023  0.41562  1.0000
  C   C1000     1.0  0.26603  0.86181  0.38322  1.0000
  C   C1001     1.0  0.40467  0.98154  0.29411  1.0000
  H   H1008     1.0  0.29284  0.84104  0.37094  1.0000
  H   H1009     1.0  0.39425  0.86882  0.29410  1.0000
  Fe  Fe166     1.0  0.36278  0.91733  0.00589  1.0000
  S   S331      1.0  0.34819  0.90841  0.04390  1.0000
  H   H1010     1.0  0.39365  0.94553  0.27172  1.0000
  Fe  Fe167     1.0  0.34532  0.84744  0.20952  1.0000
  S   S332      1.0  0.33431  0.81816  0.21615  1.0000
  S   S333      1.0  0.34040  0.85898  0.24173  1.0000
  Fe  Fe168     1.0  0.35951  0.85006  0.15743  1.0000
  S   S334      1.0  0.34997  0.82097  0.16062  1.0000
  S   S335      1.0  0.37609  0.86610  0.12218  1.0000
  Fe  Fe169     1.0  0.32528  0.82289  0.18252  1.0000
  S   S336      1.0  0.29832  0.81360  0.17508  1.0000
  Fe  Fe170     1.0  0.35983  0.81873  0.19379  1.0000
  S   S337      1.0  0.37478  0.79999  0.20704  1.0000
  S   S338      1.0  0.33446  0.85240  0.17737  1.0000
  S   S339      1.0  0.37123  0.84761  0.18911  1.0000
  H   H1011     1.0  0.27510  0.87420  0.37366  1.0000
  H   H1012     1.0  0.33898  0.89276  0.45612  1.0000
  Fe  Fe171     1.0  0.37306  0.90246  0.36995  1.0000
  S   S340      1.0  0.37007  0.92128  0.33923  1.0000
  S   S341      1.0  0.35130  0.88293  0.39771  1.0000
  Fe  Fe172     1.0  0.41248  0.91547  0.35750  1.0000
  S   S342      1.0  0.41237  0.93489  0.32562  1.0000
  S   S343      1.0  0.43907  0.91572  0.36388  1.0000
  Fe  Fe173     1.0  0.39089  0.94091  0.34879  1.0000
  S   S344      1.0  0.38945  0.96820  0.35196  1.0000
  Fe  Fe174     1.0  0.39185  0.91337  0.31889  1.0000
  S   S345      1.0  0.39547  0.90925  0.28155  1.0000
  S   S346      1.0  0.39206  0.92272  0.38111  1.0000
  S   S347      1.0  0.39372  0.89334  0.34907  1.0000
  H   H1013     1.0  0.31191  0.85311  0.08573  1.0000
  C   C1002     1.0  0.46843  0.97514  0.42789  1.0000
  Fe  Fe175     1.0  0.47313  0.80188  0.17926  1.0000
  S   S348      1.0  0.45494  0.81599  0.16459  1.0000
  S   S349      1.0  0.46900  0.78596  0.21563  1.0000
  C   C1003     1.0  0.44671  0.69346  0.17688  1.0000
  C   C1004     1.0  0.44944  0.71115  0.16591  1.0000
  C   C1005     1.0  0.45581  0.72473  0.17684  1.0000
  C   C1006     1.0  0.45925  0.72067  0.19905  1.0000
  C   C1007     1.0  0.45625  0.70298  0.21018  1.0000
  C   C1008     1.0  0.45011  0.68941  0.19910  1.0000
  H   H1014     1.0  0.44680  0.71436  0.14871  1.0000
  H   H1015     1.0  0.45819  0.73828  0.16797  1.0000
  H   H1016     1.0  0.35656  0.97406  0.00422  1.0000
  C   C1009     1.0  0.42490  0.97942  0.34607  1.0000
  C   C1010     1.0  0.45067  0.92322  0.43460  1.0000
  C   C1011     1.0  0.43354  0.91875  0.43209  1.0000
  C   C1012     1.0  0.42986  0.91672  0.41037  1.0000
  C   C1013     1.0  0.44331  0.91906  0.39104  1.0000
  C   C1014     1.0  0.46048  0.92378  0.39348  1.0000
  C   C1015     1.0  0.46418  0.92596  0.41519  1.0000
  H   H1017     1.0  0.42304  0.91664  0.44706  1.0000
  H   H1018     1.0  0.41660  0.91287  0.40875  1.0000
  H   H1019     1.0  0.47092  0.92573  0.37851  1.0000
  H   H1020     1.0  0.47741  0.92961  0.41697  1.0000
  C   C1016     1.0  0.39745  0.80615  0.19694  1.0000
  C   C1017     1.0  0.40744  0.79715  0.20867  1.0000
  C   C1018     1.0  0.42534  0.80072  0.19971  1.0000
  C   C1019     1.0  0.43329  0.81318  0.17881  1.0000
  C   C1020     1.0  0.42341  0.82273  0.16772  1.0000
  C   C1021     1.0  0.40557  0.81930  0.17679  1.0000
  H   H1021     1.0  0.40126  0.78712  0.22445  1.0000
  H   H1022     1.0  0.43287  0.79342  0.20853  1.0000
  H   H1023     1.0  0.42949  0.83249  0.15163  1.0000
  H   H1024     1.0  0.39802  0.82641  0.16770  1.0000
  C   C1022     1.0  0.35582  0.87340  0.25208  1.0000
  C   C1023     1.0  0.35108  0.87657  0.27450  1.0000
  C   C1024     1.0  0.36306  0.88747  0.28380  1.0000
  C   C1025     1.0  0.37984  0.89559  0.27055  1.0000
  C   C1026     1.0  0.38455  0.89257  0.24803  1.0000
  C   C1027     1.0  0.37267  0.88138  0.23891  1.0000
  H   H1025     1.0  0.33807  0.87046  0.28479  1.0000
  H   H1026     1.0  0.35925  0.88969  0.30114  1.0000
  H   H1027     1.0  0.39748  0.89881  0.23759  1.0000
  H   H1028     1.0  0.37647  0.87906  0.22163  1.0000
  C   C1028     1.0  0.28398  0.79265  0.17706  1.0000
  C   C1029     1.0  0.26825  0.79190  0.17006  1.0000
  C   C1030     1.0  0.25645  0.77567  0.17115  1.0000
  C   C1031     1.0  0.26023  0.75991  0.17939  1.0000
  C   C1032     1.0  0.27595  0.76066  0.18642  1.0000
  C   C1033     1.0  0.28777  0.77689  0.18525  1.0000
  H   H1029     1.0  0.26517  0.80398  0.16367  1.0000
  H   H1030     1.0  0.27904  0.74858  0.19280  1.0000
  H   H1031     1.0  0.29978  0.77720  0.19072  1.0000
  C   C1034     1.0  0.36430  0.83406  0.26793  1.0000
  C   C1035     1.0  0.38998  0.83550  0.23980  1.0000
  H   H1032     1.0  0.41429  0.98583  0.03235  1.0000
  C   C1036     1.0  0.40646  0.98258  0.00020  1.0000
  H   H1033     1.0  0.44092  0.97519  0.39233  1.0000
  H   H1034     1.0  0.40069  0.96859  0.00628  1.0000
  C   C1037     1.0  0.35672  0.89806  0.06601  1.0000
  C   C1038     1.0  0.34621  0.89116  0.08864  1.0000
  C   C1039     1.0  0.35210  0.88166  0.10625  1.0000
  C   C1040     1.0  0.36864  0.87920  0.10138  1.0000
  C   C1041     1.0  0.37936  0.88664  0.07898  1.0000
  C   C1042     1.0  0.37340  0.89597  0.06129  1.0000
  H   H1035     1.0  0.33331  0.89282  0.09243  1.0000
  H   H1036     1.0  0.34381  0.87613  0.12350  1.0000
  H   H1037     1.0  0.39220  0.88483  0.07515  1.0000
  H   H1038     1.0  0.38162  0.90128  0.04396  1.0000
  C   C1043     1.0  0.44966  0.96868  0.40070  1.0000
  C   C1044     1.0  0.29570  0.88734  0.41001  1.0000
  C   C1045     1.0  0.30011  0.87416  0.42436  1.0000
  C   C1046     1.0  0.31711  0.87260  0.41990  1.0000
  C   C1047     1.0  0.32980  0.88429  0.40126  1.0000
  C   C1048     1.0  0.32526  0.89721  0.38662  1.0000
  C   C1049     1.0  0.30822  0.89867  0.39093  1.0000
  H   H1039     1.0  0.29052  0.86533  0.43908  1.0000
  H   H1040     1.0  0.32056  0.86256  0.43129  1.0000
  H   H1041     1.0  0.33490  0.90620  0.37213  1.0000
  H   H1042     1.0  0.30482  0.90882  0.37968  1.0000
  N   N85       1.0  0.41949  0.95988  0.27040  1.0000
  C   C1050     1.0  0.42981  0.97339  0.27693  1.0000
  C   C1051     1.0  0.40188  0.95666  0.27606  1.0000
  H   H1043     1.0  0.36782  0.94478  0.39924  1.0000
  H   H1044     1.0  0.35523  0.93618  0.37968  1.0000
  H   H1045     1.0  0.29950  0.91748  0.44131  1.0000
  C   C1052     1.0  0.42731  0.94805  0.25877  1.0000
  C   C1053     1.0  0.29023  0.84854  0.38453  1.0000
  H   H1046     1.0  0.44800  0.67584  0.20774  1.0000
  H   H1047     1.0  0.44372  0.97553  0.27329  1.0000
  C   C1054     1.0  0.42257  0.98450  0.28872  1.0000
  H   H1048     1.0  0.32291  0.82194  0.12894  1.0000
  S   S350      1.0  0.39128  0.93021  0.99265  1.0000
  C   C1055     1.0  0.31797  0.90414  0.45161  1.0000
  C   C1056     1.0  0.31297  0.91730  0.43819  1.0000
  N   N86       1.0  0.46192  0.98110  0.40933  1.0000
  N   N87       1.0  0.39181  0.85224  0.26950  1.0000
  N   N88       1.0  0.27175  0.84749  0.39037  1.0000
  H   H1049     1.0  0.30843  0.89409  0.46527  1.0000
  C   C1057     1.0  0.37310  0.96979  0.06131  1.0000
  C   C1058     1.0  0.32052  0.83459  0.12140  1.0000
  Fe  Fe176     1.0  0.25500  0.87297  0.44754  1.0000
  H   H1050     1.0  0.46432  0.96136  0.43661  1.0000
  C   C1059     1.0  0.39421  0.96745  0.28797  1.0000
  H   H1051     1.0  0.44003  0.95521  0.24691  1.0000
  H   H1052     1.0  0.37156  0.84788  0.06644  1.0000
  H   H1053     1.0  0.36803  0.84990  0.29308  1.0000
  H   H1054     1.0  0.45679  0.96305  0.38764  1.0000
  C   C1060     1.0  0.33501  0.85927  0.05883  1.0000
  H   H1055     1.0  0.36450  0.81995  0.24031  1.0000
  N   N89       1.0  0.34211  0.92905  0.41536  1.0000
  H   H1056     1.0  0.35037  0.82950  0.27429  1.0000
  C   C1061     1.0  0.35183  0.85772  0.05326  1.0000
  H   H1057     1.0  0.43072  0.99509  0.29418  1.0000
  H   H1058     1.0  0.38026  0.96471  0.29285  1.0000
  S   S351      1.0  0.46773  0.73713  0.21340  1.0000
  C   C1062     1.0  0.34768  0.84081  0.09249  1.0000
  S   S352      1.0  0.48081  0.78127  0.16172  1.0000
  C   C1063     1.0  0.24254  0.83058  0.40843  1.0000
  C   C1064     1.0  0.37219  0.82890  0.24861  1.0000
  H   H1059     1.0  0.33023  0.86719  0.04614  1.0000
  H   H1060     1.0  0.24408  0.87257  0.38414  1.0000
  H   H1061     1.0  0.44134  0.95774  0.41523  1.0000
  H   H1062     1.0  0.39615  0.83165  0.22461  1.0000
  H   H1063     1.0  0.32117  0.93958  0.40919  1.0000
  H   H1064     1.0  0.32357  0.84381  0.13294  1.0000
  C   C1065     1.0  0.46743  0.99844  0.39807  1.0000
  H   H1065     1.0  0.41002  0.87649  0.26716  1.0000
  C   C1066     1.0  0.36370  0.95482  0.05568  1.0000
  H   H1066     1.0  0.42904  0.93746  0.27214  1.0000
  N   N90       1.0  0.33110  0.84212  0.09766  1.0000
  C   C1067     1.0  0.32477  0.85139  0.08129  1.0000
  H   H1067     1.0  0.36011  0.86435  0.03620  1.0000
  H   H1068     1.0  0.35303  0.83435  0.10589  1.0000
  S   S353      1.0  0.43969  0.67701  0.16171  1.0000
  H   H1069     1.0  0.41346  0.85241  0.24344  1.0000
  H   H1070     1.0  0.41894  0.94173  0.24801  1.0000
  C   C1068     1.0  0.35467  0.94166  0.39558  1.0000
  H   H1071     1.0  0.42514  0.96654  0.34331  1.0000
  H   H1072     1.0  0.41118  0.85812  0.28875  1.0000
  C   C1069     1.0  0.37437  0.84572  0.27833  1.0000
  S   S354      1.0  0.24936  0.84381  0.45926  1.0000
  Fe  Fe177     1.0  0.47878  0.76643  0.19809  1.0000
  H   H1073     1.0  0.24455  0.77540  0.16543  1.0000
  N   N91       1.0  0.37048  0.98759  0.02590  1.0000
  C   C1070     1.0  0.39965  0.84725  0.25051  1.0000
  C   C1071     1.0  0.34704  0.91598  0.42814  1.0000
  H   H1074     1.0  0.30646  0.83171  0.12181  1.0000
  C   C1072     1.0  0.40913  0.98352  0.35127  1.0000
  H   H1075     1.0  0.29832  0.86233  0.37781  1.0000
  N   N92       1.0  0.41526  0.77231  0.16912  1.0000
  C   C1073     1.0  0.43123  0.77030  0.17081  1.0000
  C   C1074     1.0  0.40092  0.76285  0.18606  1.0000
  C   C1075     1.0  0.43317  0.75879  0.19007  1.0000
  C   C1076     1.0  0.40241  0.75120  0.20553  1.0000
  C   C1077     1.0  0.41867  0.74918  0.20748  1.0000
  C   C1078     1.0  0.41339  0.78418  0.14863  1.0000
  H   H1076     1.0  0.44262  0.77799  0.15755  1.0000
  H   H1077     1.0  0.38828  0.76463  0.18488  1.0000
  H   H1078     1.0  0.44585  0.75743  0.19169  1.0000
  H   H1079     1.0  0.39105  0.74395  0.21910  1.0000
  H   H1080     1.0  0.42012  0.74027  0.22251  1.0000
  H   H1081     1.0  0.40271  0.79024  0.15343  1.0000
  H   H1082     1.0  0.42532  0.79521  0.14136  1.0000
  H   H1083     1.0  0.41070  0.77689  0.13489  1.0000
  C   C1079     1.0  0.35751  0.95645  0.03524  1.0000
  S   S355      1.0  0.35484  0.93856  0.98397  1.0000
  C   C1080     1.0  0.35824  0.84845  0.07018  1.0000
  H   H1084     1.0  0.45111  0.97929  0.00897  1.0000
  C   C1081     1.0  0.40233  0.86445  0.28046  1.0000
  C   C1082     1.0  0.44051  0.99218  0.34381  1.0000
  H   H1085     1.0  0.36015  0.91485  0.42368  1.0000
  H   H1086     1.0  0.48557  0.98196  0.45072  1.0000
  S   S356      1.0  0.45472  0.92538  0.46221  1.0000
  C   C1083     1.0  0.32527  0.92970  0.41996  1.0000
  S   S357      1.0  0.24582  0.73894  0.18157  1.0000
  C   C1084     1.0  0.40599  0.99103  0.97781  1.0000
  S   S358      1.0  0.36078  0.90013  0.97983  1.0000
  H   H1087     1.0  0.26474  0.82058  0.40823  1.0000
  C   C1085     1.0  0.33510  0.90342  0.44656  1.0000
  H   H1088     1.0  0.39888  0.98982  0.30374  1.0000
  H   H1089     1.0  0.45881  0.69973  0.22742  1.0000
  H   H1090     1.0  0.34999  0.94489  0.03097  1.0000
  H   H1091     1.0  0.29445  0.84319  0.40039  1.0000
  H   H1092     1.0  0.36117  0.94193  0.06706  1.0000
  Fe  Fe178     1.0  0.48224  0.93241  0.46648  1.0000
  H   H1093     1.0  0.35131  0.95433  0.39179  1.0000
  C   C1086     1.0  0.36113  0.97299  0.02036  1.0000
  C   C1087     1.0  0.24846  0.86097  0.38904  1.0000
  C   C1088     1.0  0.45395  0.98896  0.99266  1.0000
  C   C1089     1.0  0.41417  0.99236  0.01491  1.0000
  C   C1090     1.0  0.48051  0.98673  0.43592  1.0000
  H   H1094     1.0  0.48591  0.87684  0.38300  1.0000
  H   H1095     1.0  0.48334  0.89973  0.40532  1.0000
  H   H1096     1.0  0.37800  0.96868  0.07717  1.0000
  C   C1091     1.0  0.26024  0.83195  0.40261  1.0000
  H   H1097     1.0  0.45266  0.98900  0.33920  1.0000
  H   H1098     1.0  0.48263  0.71125  0.13122  1.0000
  C   C1092     1.0  0.37622  0.98621  0.04626  1.0000
  H   H1099     1.0  0.43764  0.97155  0.97659  1.0000
  C   C1093     1.0  0.44630  0.98450  0.97444  1.0000
  H   H1100     1.0  0.47624  0.99897  0.01865  1.0000
  H   H1101     1.0  0.38368  0.99779  0.05064  1.0000
  H   H1102     1.0  0.48876  0.70565  0.17058  1.0000
  H   H1103     1.0  0.43180  0.91864  0.70007  1.0000
  S   S359      1.0  0.27351  0.87773  0.83949  1.0000
  Fe  Fe179     1.0  0.27571  0.86009  0.87192  1.0000
  S   S360      1.0  0.29881  0.86068  0.88879  1.0000
  S   S361      1.0  0.25551  0.73697  0.66428  1.0000
  S   S362      1.0  0.39579  0.97956  0.95913  1.0000
  Fe  Fe180     1.0  0.25530  0.97975  0.55359  1.0000
  S   S363      1.0  0.26147  0.95667  0.53954  1.0000
  H   H1104     1.0  0.29712  0.80353  0.75398  1.0000
  S   S364      1.0  0.27236  0.97381  0.79662  1.0000
  H   H1105     1.0  0.26877  0.80824  0.94048  1.0000
  H   H1106     1.0  0.25930  0.86976  0.53919  1.0000
  S   S365      1.0  0.46201  0.69281  0.71317  1.0000
  S   S366      1.0  0.44718  0.73283  0.68384  1.0000
  Fe  Fe181     1.0  0.47179  0.68073  0.68392  1.0000
  H   H1107     1.0  0.37679  0.89503  0.93020  1.0000
  H   H1108     1.0  0.27518  0.89284  0.77514  1.0000
  Fe  Fe182     1.0  0.43706  0.85539  0.70993  1.0000
  S   S367      1.0  0.45840  0.85945  0.67841  1.0000
  S   S368      1.0  0.43745  0.86897  0.74065  1.0000
  Fe  Fe183     1.0  0.41053  0.83092  0.69021  1.0000
  S   S369      1.0  0.43005  0.83296  0.65731  1.0000
  S   S370      1.0  0.38267  0.81364  0.70135  1.0000
  Fe  Fe184     1.0  0.44831  0.83031  0.68126  1.0000
  S   S371      1.0  0.46822  0.81481  0.67760  1.0000
  Fe  Fe185     1.0  0.43856  0.86175  0.65706  1.0000
  S   S372      1.0  0.44133  0.88385  0.62592  1.0000
  S   S373      1.0  0.42832  0.82609  0.71430  1.0000
  S   S374      1.0  0.41773  0.85988  0.68836  1.0000
  S   S375      1.0  0.47009  0.94547  0.86802  1.0000
  C   C1094     1.0  0.48272  0.91010  0.69306  1.0000
  S   S376      1.0  0.33434  0.92124  0.93539  1.0000
  H   H1109     1.0  0.48814  0.79005  0.67640  1.0000
  C   C1095     1.0  0.26511  0.89938  0.77897  1.0000
  S   S377      1.0  0.38277  0.93590  0.93974  1.0000
  H   H1110     1.0  0.32389  0.86247  0.91721  1.0000
  S   S378      1.0  0.25595  0.87790  0.48324  1.0000
  Fe  Fe186     1.0  0.26275  0.76552  0.66773  1.0000
  S   S379      1.0  0.48674  0.90421  0.85071  1.0000
  Fe  Fe187     1.0  0.25822  0.80178  0.65137  1.0000
  S   S380      1.0  0.27669  0.78763  0.63660  1.0000
  H   H1111     1.0  0.25907  0.71754  0.73848  1.0000
  Fe  Fe188     1.0  0.26266  0.79058  0.70135  1.0000
  S   S381      1.0  0.28110  0.77512  0.69006  1.0000
  Fe  Fe189     1.0  0.29326  0.79853  0.66023  1.0000
  S   S382      1.0  0.32195  0.81245  0.64644  1.0000
  H   H1112     1.0  0.43511  0.92990  0.85241  1.0000
  S   S383      1.0  0.27568  0.81456  0.67263  1.0000
  H   H1113     1.0  0.42812  0.89877  0.87345  1.0000
  C   C1096     1.0  0.45406  0.93328  0.89292  1.0000
  C   C1097     1.0  0.44206  0.94128  0.90313  1.0000
  C   C1098     1.0  0.42821  0.93150  0.92172  1.0000
  C   C1099     1.0  0.42621  0.91362  0.93011  1.0000
  C   C1100     1.0  0.43854  0.90574  0.92041  1.0000
  C   C1101     1.0  0.45248  0.91556  0.90186  1.0000
  H   H1114     1.0  0.44327  0.95500  0.89633  1.0000
  H   H1115     1.0  0.41897  0.93777  0.92932  1.0000
  H   H1116     1.0  0.43711  0.89193  0.92693  1.0000
  H   H1117     1.0  0.46172  0.90930  0.89413  1.0000
  C   C1102     1.0  0.36632  0.81283  0.68509  1.0000
  C   C1103     1.0  0.36886  0.82439  0.66354  1.0000
  C   C1104     1.0  0.35523  0.82384  0.65176  1.0000
  C   C1105     1.0  0.33890  0.81184  0.66142  1.0000
  C   C1106     1.0  0.33639  0.80019  0.68291  1.0000
  C   C1107     1.0  0.35004  0.80072  0.69466  1.0000
  H   H1118     1.0  0.38130  0.83380  0.65600  1.0000
  H   H1119     1.0  0.35731  0.83287  0.63513  1.0000
  H   H1120     1.0  0.32393  0.79087  0.69054  1.0000
  H   H1121     1.0  0.34795  0.79171  0.71132  1.0000
  C   C1108     1.0  0.45520  0.87753  0.75277  1.0000
  C   C1109     1.0  0.47212  0.87768  0.74300  1.0000
  N   N93       1.0  0.25906  0.83062  0.93753  1.0000
  C   C1110     1.0  0.46614  0.89341  0.78119  1.0000
  C   C1111     1.0  0.45231  0.88541  0.77193  1.0000
  H   H1122     1.0  0.45033  0.77732  0.63389  1.0000
  H   H1123     1.0  0.46373  0.89946  0.79586  1.0000
  H   H1124     1.0  0.43928  0.88538  0.77962  1.0000
  C   C1112     1.0  0.45943  0.89141  0.60206  1.0000
  C   C1113     1.0  0.45931  0.90447  0.58310  1.0000
  C   C1114     1.0  0.47295  0.91005  0.56310  1.0000
  C   C1115     1.0  0.44919  0.99712  0.95384  1.0000
  H   H1125     1.0  0.46434  0.73808  0.62433  1.0000
  C   C1116     1.0  0.47358  0.88434  0.60125  1.0000
  H   H1126     1.0  0.44847  0.91010  0.58372  1.0000
  H   H1127     1.0  0.47262  0.91995  0.54849  1.0000
  H   H1128     1.0  0.27360  0.81736  0.59678  1.0000
  H   H1129     1.0  0.47383  0.87431  0.61578  1.0000
  S   S384      1.0  0.26271  0.83606  0.51922  1.0000
  C   C1117     1.0  0.45308  0.75548  0.68313  1.0000
  C   C1118     1.0  0.44025  0.76448  0.68473  1.0000
  C   C1119     1.0  0.44466  0.78270  0.68325  1.0000
  C   C1120     1.0  0.46196  0.79198  0.68005  1.0000
  C   C1121     1.0  0.47474  0.78293  0.67878  1.0000
  C   C1122     1.0  0.47032  0.76474  0.68036  1.0000
  H   H1130     1.0  0.42685  0.75738  0.68694  1.0000
  H   H1131     1.0  0.43470  0.78956  0.68440  1.0000
  H   H1132     1.0  0.43837  0.89700  0.51095  1.0000
  H   H1133     1.0  0.47253  0.90280  0.64195  1.0000
  H   H1134     1.0  0.26531  0.98128  0.84612  1.0000
  Fe  Fe190     1.0  0.35498  0.92228  0.95683  1.0000
  C   C1123     1.0  0.26460  0.83554  0.77635  1.0000
  Fe  Fe191     1.0  0.26159  0.85301  0.82848  1.0000
  C   C1124     1.0  0.30810  0.87745  0.90228  1.0000
  C   C1125     1.0  0.30354  0.89327  0.90027  1.0000
  C   C1126     1.0  0.31161  0.90644  0.91071  1.0000
  C   C1127     1.0  0.32411  0.90386  0.92353  1.0000
  C   C1128     1.0  0.32826  0.88781  0.92617  1.0000
  C   C1129     1.0  0.32040  0.87474  0.91540  1.0000
  H   H1135     1.0  0.29407  0.89551  0.89028  1.0000
  H   H1136     1.0  0.30825  0.91879  0.90867  1.0000
  S   S385      1.0  0.26896  0.85383  0.78946  1.0000
  C   C1130     1.0  0.26794  0.83845  0.75180  1.0000
  C   C1131     1.0  0.26485  0.82432  0.74060  1.0000
  H   H1137     1.0  0.27284  0.85173  0.74137  1.0000
  H   H1138     1.0  0.26721  0.82683  0.72172  1.0000
  H   H1139     1.0  0.26622  0.91126  0.59085  1.0000
  H   H1140     1.0  0.42540  0.86307  0.58795  1.0000
  C   C1132     1.0  0.26190  0.95324  0.81589  1.0000
  C   C1133     1.0  0.27049  0.93999  0.81649  1.0000
  C   C1134     1.0  0.26234  0.92300  0.83019  1.0000
  C   C1135     1.0  0.45467  0.90459  0.67219  1.0000
  H   H1141     1.0  0.28340  0.94275  0.80585  1.0000
  H   H1142     1.0  0.26897  0.91285  0.82997  1.0000
  C   C1136     1.0  0.25818  0.81831  0.78964  1.0000
  H   H1143     1.0  0.27029  0.93327  0.51180  1.0000
  S   S386      1.0  0.26625  0.83563  0.85908  1.0000
  H   H1144     1.0  0.48031  0.75800  0.67901  1.0000
  H   H1145     1.0  0.27978  0.96787  0.85084  1.0000
  C   C1137     1.0  0.25633  0.93035  0.51591  1.0000
  H   H1146     1.0  0.43466  0.90553  0.72635  1.0000
  S   S387      1.0  0.47459  0.70450  0.65579  1.0000
  H   H1147     1.0  0.44275  0.99398  0.94000  1.0000
  C   C1138     1.0  0.43673  0.87854  0.55272  1.0000
  Fe  Fe192     1.0  0.25041  0.99663  0.59651  1.0000
  C   C1139     1.0  0.48597  0.88589  0.75205  1.0000
  H   H1148     1.0  0.46463  0.91176  0.72280  1.0000
  C   C1140     1.0  0.46416  0.87595  0.53502  1.0000
  C   C1141     1.0  0.24656  0.91666  0.50795  1.0000
  C   C1142     1.0  0.48310  0.89379  0.77120  1.0000
  N   N94       1.0  0.25214  0.90180  0.56670  1.0000
  H   H1149     1.0  0.28045  0.92485  0.75862  1.0000
  H   H1150     1.0  0.28402  0.84692  0.93634  1.0000
  N   N95       1.0  0.47059  0.76530  0.62476  1.0000
  H   H1151     1.0  0.36609  0.90852  0.91405  1.0000
  H   H1152     1.0  0.27283  0.86947  0.95227  1.0000
  C   C1143     1.0  0.48501  0.90752  0.67025  1.0000
  H   H1153     1.0  0.24451  0.70123  0.65995  1.0000
  H   H1154     1.0  0.46952  0.79048  0.75335  1.0000
  H   H1155     1.0  0.44373  0.90224  0.66395  1.0000
  C   C1144     1.0  0.27650  0.98008  0.85397  1.0000
  H   H1156     1.0  0.45849  0.89423  0.49730  1.0000
  H   H1157     1.0  0.25749  0.71473  0.70930  1.0000
  N   N96       1.0  0.45249  0.90691  0.69464  1.0000
  H   H1158     1.0  0.44301  0.72845  0.73847  1.0000
  C   C1145     1.0  0.25692  0.83093  0.55012  1.0000
  H   H1159     1.0  0.46891  0.71919  0.74620  1.0000
  S   S388      1.0  0.40787  0.90067  0.95153  1.0000
  S   S389      1.0  0.27368  0.99380  0.57265  1.0000
  H   H1160     1.0  0.24101  0.86521  0.96366  1.0000
  H   H1161     1.0  0.40013  0.88514  0.90190  1.0000
  C   C1146     1.0  0.45144  0.89665  0.51362  1.0000
  C   C1147     1.0  0.44973  0.85860  0.57377  1.0000
  H   H1162     1.0  0.45733  0.78907  0.73092  1.0000
  H   H1163     1.0  0.25044  0.79087  0.78887  1.0000
  Fe  Fe193     1.0  0.38871  0.91495  0.96451  1.0000
  H   H1164     1.0  0.38552  0.93271  0.88745  1.0000
  H   H1165     1.0  0.27289  0.92474  0.56127  1.0000
  H   H1166     1.0  0.47456  0.87170  0.72826  1.0000
  C   C1148     1.0  0.24552  0.91909  0.84358  1.0000
  H   H1167     1.0  0.24678  0.87595  0.80062  1.0000
  H   H1168     1.0  0.42631  0.88477  0.55240  1.0000
  C   C1149     1.0  0.24820  0.82130  0.59954  1.0000
  Fe  Fe194     1.0  0.24774  0.84859  0.49564  1.0000
  C   C1150     1.0  0.26165  0.91637  0.57523  1.0000
  S   S390      1.0  0.24945  0.85866  0.89257  1.0000
  H   H1169     1.0  0.24978  0.97932  0.49393  1.0000
  C   C1151     1.0  0.26876  0.82607  0.56270  1.0000
  H   H1170     1.0  0.25352  0.79218  0.54649  1.0000
  C   C1152     1.0  0.24914  0.88985  0.79341  1.0000
  C   C1153     1.0  0.48729  0.89002  0.58131  1.0000
  C   C1154     1.0  0.24721  0.76525  0.60919  1.0000
  H   H1171     1.0  0.44305  0.75958  0.73454  1.0000
  H   H1172     1.0  0.45000  0.76799  0.60834  1.0000
  C   C1155     1.0  0.27017  0.84501  0.94112  1.0000
  C   C1156     1.0  0.26097  0.89158  0.55632  1.0000
  C   C1157     1.0  0.25227  0.87775  0.54770  1.0000
  C   C1158     1.0  0.46630  0.90993  0.70498  1.0000
  C   C1159     1.0  0.43529  0.90659  0.70730  1.0000
  C   C1160     1.0  0.37450  0.89949  0.91255  1.0000
  C   C1161     1.0  0.46900  0.78646  0.73649  1.0000
  H   H1173     1.0  0.47495  0.85832  0.55573  1.0000
  H   H1174     1.0  0.44965  0.84953  0.58962  1.0000
  Fe  Fe195     1.0  0.38322  0.95023  0.96895  1.0000
  H   H1175     1.0  0.26837  0.73558  0.71307  1.0000
  H   H1176     1.0  0.33752  0.88548  0.93645  1.0000
  N   N97       1.0  0.45056  0.88309  0.53406  1.0000
  C   C1162     1.0  0.46388  0.86349  0.55477  1.0000
  C   C1163     1.0  0.47448  0.74978  0.62345  1.0000
  C   C1164     1.0  0.26600  0.81784  0.92687  1.0000
  H   H1177     1.0  0.28133  0.82593  0.55337  1.0000
  S   S391      1.0  0.25035  0.98950  0.63556  1.0000
  H   H1178     1.0  0.41367  0.94697  0.85960  1.0000
  C   C1165     1.0  0.30275  0.99564  0.82377  1.0000
  C   C1166     1.0  0.26388  0.77551  0.56940  1.0000
  C   C1167     1.0  0.25528  0.80415  0.77843  1.0000
  C   C1168     1.0  0.46886  0.73286  0.74428  1.0000
  N   N98       1.0  0.33686  0.82925  0.72476  1.0000
  C   C1169     1.0  0.33326  0.83486  0.70356  1.0000
  C   C1170     1.0  0.32408  0.81834  0.74285  1.0000
  C   C1171     1.0  0.31663  0.82900  0.69982  1.0000
  C   C1172     1.0  0.30729  0.81226  0.73972  1.0000
  C   C1173     1.0  0.30368  0.81745  0.71795  1.0000
  C   C1174     1.0  0.35438  0.83518  0.72847  1.0000
  H   H1179     1.0  0.34338  0.84339  0.68911  1.0000
  H   H1180     1.0  0.32687  0.81413  0.75975  1.0000
  H   H1181     1.0  0.31398  0.83293  0.68272  1.0000
  H   H1182     1.0  0.29087  0.81243  0.71513  1.0000
  H   H1183     1.0  0.36406  0.84116  0.71165  1.0000
  H   H1184     1.0  0.35488  0.84495  0.73960  1.0000
  H   H1185     1.0  0.35847  0.82385  0.73699  1.0000
  H   H1186     1.0  0.25303  0.90926  0.49774  1.0000
  C   C1175     1.0  0.45426  0.73803  0.74024  1.0000
  H   H1187     1.0  0.30137  0.98419  0.81621  1.0000
  Fe  Fe196     1.0  0.46699  0.71731  0.68521  1.0000
  C   C1176     1.0  0.48324  0.76296  0.74302  1.0000
  Fe  Fe197     1.0  0.24655  0.87476  0.85914  1.0000
  H   H1188     1.0  0.36732  0.88800  0.90689  1.0000
  C   C1177     1.0  0.47095  0.90491  0.65964  1.0000
  N   N99       1.0  0.39106  0.90798  0.89585  1.0000
  C   C1178     1.0  0.40281  0.89853  0.89207  1.0000
  C   C1179     1.0  0.39474  0.92514  0.88424  1.0000
  C   C1180     1.0  0.41865  0.90616  0.87604  1.0000
  C   C1181     1.0  0.41058  0.93326  0.86835  1.0000
  C   C1182     1.0  0.42257  0.92366  0.86421  1.0000
  S   S392      1.0  0.25527  0.78878  0.74055  1.0000
  H   H1189     1.0  0.47560  0.88032  0.52081  1.0000
  C   C1183     1.0  0.45274  0.76626  0.62609  1.0000
  C   C1184     1.0  0.45442  0.75569  0.73789  1.0000
  C   C1185     1.0  0.26802  0.91726  0.76969  1.0000
  H   H1190     1.0  0.25355  0.92517  0.57998  1.0000
  C   C1186     1.0  0.24071  0.83105  0.56234  1.0000
  C   C1187     1.0  0.43607  0.86620  0.57281  1.0000
  C   C1188     1.0  0.26441  0.82119  0.58731  1.0000
  C   C1189     1.0  0.25866  0.80707  0.75387  1.0000
  H   H1191     1.0  0.27263  0.97855  0.87321  1.0000
  C   C1190     1.0  0.25726  0.72389  0.72133  1.0000
  S   S393      1.0  0.24343  0.77907  0.68140  1.0000
  C   C1191     1.0  0.24027  0.74377  0.73246  1.0000
  H   H1192     1.0  0.25558  0.81589  0.80855  1.0000
  H   H1193     1.0  0.27086  0.75882  0.59660  1.0000
  H   H1194     1.0  0.44348  0.75407  0.63754  1.0000
  H   H1195     1.0  0.42553  0.89482  0.70589  1.0000
  N   N100      1.0  0.46886  0.76793  0.73907  1.0000
  C   C1192     1.0  0.25177  0.99404  0.68004  1.0000
  H   H1196     1.0  0.27484  0.89419  0.55444  1.0000
  H   H1197     1.0  0.25192  0.98042  0.68371  1.0000
  C   C1193     1.0  0.48345  0.74537  0.74572  1.0000
  C   C1194     1.0  0.24827  0.94028  0.52913  1.0000
  C   C1195     1.0  0.24607  0.85533  0.95675  1.0000
  H   H1198     1.0  0.27808  0.82457  0.91330  1.0000
  H   H1199     1.0  0.48030  0.79232  0.62502  1.0000
  H   H1200     1.0  0.45821  0.90972  0.51586  1.0000
  C   C1196     1.0  0.48691  0.90268  0.56201  1.0000
  C   C1197     1.0  0.26388  0.85773  0.95040  1.0000
  H   H1201     1.0  0.25677  0.81071  0.91778  1.0000
  H   H1202     1.0  0.25166  0.75194  0.73614  1.0000
  C   C1198     1.0  0.25174  0.78435  0.56400  1.0000
  N   N101      1.0  0.29114  0.99559  0.84339  1.0000
  H   H1203     1.0  0.24556  0.75775  0.62680  1.0000
  H   H1204     1.0  0.25725  0.93930  0.76792  1.0000
  S   S394      1.0  0.24190  0.81449  0.63035  1.0000
  S   S395      1.0  0.48652  0.94390  0.49750  1.0000
  N   N102      1.0  0.24101  0.72895  0.72444  1.0000
  C   C1199     1.0  0.25482  0.92534  0.77497  1.0000
  C   C1200     1.0  0.24532  0.94959  0.82994  1.0000
  C   C1201     1.0  0.26155  0.76577  0.59209  1.0000
  H   H1205     1.0  0.48035  0.79491  0.72279  1.0000
  C   C1202     1.0  0.48338  0.78003  0.62382  1.0000
  Fe  Fe198     1.0  0.23966  0.83511  0.87809  1.0000
  C   C1203     1.0  0.24158  0.82784  0.94449  1.0000
  H   H1206     1.0  0.25397  0.99730  0.71489  1.0000
  H   H1207     1.0  0.27510  0.77630  0.55605  1.0000
  N   N103      1.0  0.23927  0.91590  0.78947  1.0000
  Fe  Fe199     1.0  0.26390  0.99905  0.79132  1.0000
  N   N104      1.0  0.72903  0.04093  0.36635  1.0000
  S   S396      1.0  0.72057  0.13651  0.34459  1.0000
  Fe  Fe200     1.0  0.71966  0.14761  0.37705  1.0000
  S   S397      1.0  0.69649  0.15034  0.40190  1.0000
  Fe  Fe201     1.0  0.72462  0.13095  0.98688  1.0000
  S   S398      1.0  0.69815  0.13322  0.00260  1.0000
  H   H1208     1.0  0.51629  0.33030  0.23486  1.0000
  Fe  Fe202     1.0  0.71226  0.16146  0.99980  1.0000
  S   S399      1.0  0.70514  0.17968  0.02296  1.0000
  Fe  Fe203     1.0  0.71760  0.02593  0.28241  1.0000
  S   S400      1.0  0.71261  0.05145  0.29010  1.0000
  S   S401      1.0  0.63170  0.08595  0.45321  1.0000
  S   S402      1.0  0.69647  0.03091  0.04902  1.0000
  H   H1209     1.0  0.52395  0.13801  0.27335  1.0000
  H   H1210     1.0  0.70481  0.23315  0.23924  1.0000
  S   S403      1.0  0.50123  0.05655  0.41550  1.0000
  C   C1204     1.0  0.71340  0.03824  0.13241  1.0000
  S   S404      1.0  0.50559  0.30206  0.13903  1.0000
  C   C1205     1.0  0.73371  0.10552  0.26356  1.0000
  Fe  Fe204     1.0  0.50240  0.32353  0.15817  1.0000
  H   H1211     1.0  0.53735  0.02780  0.45359  1.0000
  Fe  Fe205     1.0  0.51674  0.14604  0.17924  1.0000
  S   S405      1.0  0.53758  0.13566  0.16152  1.0000
  H   H1212     1.0  0.70719  0.03026  0.17024  1.0000
  Fe  Fe206     1.0  0.53110  0.18232  0.14671  1.0000
  S   S406      1.0  0.55323  0.17457  0.12704  1.0000
  S   S407      1.0  0.52981  0.20987  0.13166  1.0000
  Fe  Fe207     1.0  0.53324  0.14962  0.12779  1.0000
  S   S408      1.0  0.53398  0.14012  0.09366  1.0000
  Fe  Fe208     1.0  0.55559  0.16139  0.16230  1.0000
  S   S409      1.0  0.57922  0.16096  0.17772  1.0000
  S   S410      1.0  0.51103  0.15824  0.14532  1.0000
  S   S411      1.0  0.53483  0.17089  0.18219  1.0000
  Fe  Fe209     1.0  0.71228  0.20536  0.14220  1.0000
  S   S412      1.0  0.70365  0.22913  0.12940  1.0000
  S   S413      1.0  0.72561  0.19051  0.11892  1.0000
  Fe  Fe210     1.0  0.69657  0.20336  0.19322  1.0000
  S   S414      1.0  0.68600  0.22645  0.18377  1.0000
  S   S415      1.0  0.69010  0.18987  0.23173  1.0000
  Fe  Fe211     1.0  0.67824  0.21452  0.15444  1.0000
  S   S416      1.0  0.65404  0.21445  0.13997  1.0000
  Fe  Fe212     1.0  0.71230  0.23907  0.15992  1.0000
  H   H1213     1.0  0.52334  0.10503  0.20468  1.0000
  S   S417      1.0  0.68655  0.19032  0.16587  1.0000
  S   S418      1.0  0.72317  0.21640  0.17074  1.0000
  C   C1206     1.0  0.65906  0.18857  0.09487  1.0000
  C   C1207     1.0  0.60042  0.17475  0.16553  1.0000
  C   C1208     1.0  0.61357  0.17328  0.17761  1.0000
  C   C1209     1.0  0.63024  0.18499  0.16964  1.0000
  C   C1210     1.0  0.63390  0.19830  0.14950  1.0000
  C   C1211     1.0  0.62092  0.19940  0.13699  1.0000
  C   C1212     1.0  0.60425  0.18771  0.14496  1.0000
  H   H1214     1.0  0.61075  0.16327  0.19352  1.0000
  H   H1215     1.0  0.64011  0.18398  0.17943  1.0000
  H   H1216     1.0  0.62367  0.20959  0.12128  1.0000
  H   H1217     1.0  0.59427  0.18893  0.13545  1.0000
  C   C1213     1.0  0.51781  0.12387  0.08707  1.0000
  C   C1214     1.0  0.52009  0.12070  0.06434  1.0000
  C   C1215     1.0  0.71936  0.04593  0.08938  1.0000
  H   H1218     1.0  0.53197  0.12762  0.05162  1.0000
  C   C1216     1.0  0.50907  0.24607  0.17398  1.0000
  C   C1217     1.0  0.51558  0.25167  0.14980  1.0000
  C   C1218     1.0  0.52235  0.24059  0.13717  1.0000
  C   C1219     1.0  0.52237  0.22375  0.14855  1.0000
  C   C1220     1.0  0.51597  0.21818  0.17274  1.0000
  C   C1221     1.0  0.50947  0.22938  0.18542  1.0000
  H   H1219     1.0  0.51540  0.26453  0.14086  1.0000
  C   C1222     1.0  0.60030  0.20894  0.19378  1.0000
  H   H1220     1.0  0.51583  0.20521  0.18167  1.0000
  S   S419      1.0  0.49340  0.06308  0.35186  1.0000
  H   H1221     1.0  0.51095  0.16084  0.06195  1.0000
  C   C1223     1.0  0.68767  0.00845  0.13376  1.0000
  H   H1222     1.0  0.50273  0.14840  0.02894  1.0000
  H   H1223     1.0  0.73116  0.05548  0.09083  1.0000
  C   C1224     1.0  0.51119  0.13426  0.24502  1.0000
  C   C1225     1.0  0.51296  0.13040  0.26832  1.0000
  S   S420      1.0  0.71153  0.00159  0.31085  1.0000
  H   H1224     1.0  0.56739  0.00373  0.44870  1.0000
  H   H1225     1.0  0.52069  0.14488  0.23229  1.0000
  C   C1226     1.0  0.54523  0.09514  0.43354  1.0000
  C   C1227     1.0  0.54168  0.07710  0.44232  1.0000
  C   C1228     1.0  0.52863  0.06538  0.43583  1.0000
  C   C1229     1.0  0.51892  0.07160  0.42067  1.0000
  C   C1230     1.0  0.52273  0.08964  0.41142  1.0000
  C   C1231     1.0  0.53587  0.10138  0.41784  1.0000
  C   C1232     1.0  0.71405  0.04801  0.37054  1.0000
  H   H1226     1.0  0.52569  0.05147  0.44307  1.0000
  H   H1227     1.0  0.51535  0.09457  0.39967  1.0000
  C   C1233     1.0  0.49704  0.08341  0.46799  1.0000
  C   C1234     1.0  0.73398  0.00526  0.15941  1.0000
  C   C1235     1.0  0.56487  0.21382  0.16300  1.0000
  C   C1236     1.0  0.71165  0.18280  0.04913  1.0000
  C   C1237     1.0  0.72118  0.17266  0.05970  1.0000
  C   C1238     1.0  0.49814  0.15216  0.06408  1.0000
  C   C1239     1.0  0.72045  0.18807  0.09178  1.0000
  C   C1240     1.0  0.71098  0.19825  0.08111  1.0000
  C   C1241     1.0  0.70677  0.19574  0.05978  1.0000
  H   H1228     1.0  0.70696  0.20810  0.08927  1.0000
  H   H1229     1.0  0.69945  0.20371  0.05167  1.0000
  C   C1242     1.0  0.72587  0.08757  0.01071  1.0000
  C   C1243     1.0  0.53682  0.10400  0.25500  1.0000
  C   C1244     1.0  0.72599  0.05709  0.02457  1.0000
  C   C1245     1.0  0.70811  0.05241  0.03330  1.0000
  C   C1246     1.0  0.69917  0.06534  0.03063  1.0000
  C   C1247     1.0  0.70797  0.08282  0.01923  1.0000
  S   S421      1.0  0.56091  0.11014  0.44245  1.0000
  H   H1230     1.0  0.72305  0.27211  0.21855  1.0000
  H   H1231     1.0  0.68535  0.06183  0.03742  1.0000
  H   H1232     1.0  0.70094  0.09265  0.01730  1.0000
  C   C1248     1.0  0.65008  0.10372  0.44011  1.0000
  C   C1249     1.0  0.66363  0.10124  0.42412  1.0000
  C   C1250     1.0  0.67807  0.11537  0.41247  1.0000
  C   C1251     1.0  0.67903  0.13208  0.41682  1.0000
  C   C1252     1.0  0.66553  0.13452  0.43297  1.0000
  C   C1253     1.0  0.65110  0.12038  0.44461  1.0000
  H   H1233     1.0  0.66292  0.08836  0.42060  1.0000
  H   H1234     1.0  0.68842  0.11338  0.40006  1.0000
  H   H1235     1.0  0.66627  0.14740  0.43649  1.0000
  H   H1236     1.0  0.73302  0.04726  0.02657  1.0000
  C   C1254     1.0  0.70592  0.18606  0.24735  1.0000
  C   C1255     1.0  0.70074  0.17816  0.27137  1.0000
  C   C1256     1.0  0.71298  0.17509  0.28445  1.0000
  C   C1257     1.0  0.51037  0.08656  0.23705  1.0000
  C   C1258     1.0  0.59659  0.03672  0.46105  1.0000
  H   H1237     1.0  0.68717  0.17441  0.27991  1.0000
  H   H1238     1.0  0.70885  0.16902  0.30293  1.0000
  H   H1239     1.0  0.67986  0.15202  0.08102  1.0000
  C   C1259     1.0  0.72311  0.08940  0.32668  1.0000
  C   C1260     1.0  0.71532  0.07799  0.31373  1.0000
  C   C1261     1.0  0.72300  0.06529  0.30650  1.0000
  S   S422      1.0  0.49169  0.30489  0.19336  1.0000
  H   H1240     1.0  0.71691  0.09894  0.33238  1.0000
  H   H1241     1.0  0.70320  0.07898  0.30933  1.0000
  H   H1242     1.0  0.49023  0.33196  0.44728  1.0000
  H   H1243     1.0  0.53859  0.11534  0.41089  1.0000
  Fe  Fe213     1.0  0.72613  0.00624  0.24348  1.0000
  H   H1244     1.0  0.71064  0.24455  0.20868  1.0000
  C   C1262     1.0  0.49722  0.12425  0.23825  1.0000
  C   C1263     1.0  0.58665  0.02750  0.44791  1.0000
  C   C1264     1.0  0.73571  0.18788  0.24954  1.0000
  H   H1245     1.0  0.71685  0.02207  0.34897  1.0000
  H   H1246     1.0  0.49205  0.08130  0.45215  1.0000
  S   S423      1.0  0.72868  0.00105  0.06651  1.0000
  Fe  Fe214     1.0  0.57439  0.09897  0.46911  1.0000
  S   S424      1.0  0.70187  0.01201  0.26018  1.0000
  C   C1265     1.0  0.67380  0.16209  0.08523  1.0000
  H   H1247     1.0  0.60526  0.04963  0.45274  1.0000
  C   C1266     1.0  0.57551  0.01089  0.45847  1.0000
  H   H1248     1.0  0.55568  0.12076  0.19992  1.0000
  H   H1249     1.0  0.72680  0.14332  0.27620  1.0000
  H   H1250     1.0  0.49970  0.08040  0.23000  1.0000
  H   H1251     1.0  0.56659  0.19856  0.19544  1.0000
  C   C1267     1.0  0.70410  0.02736  0.15405  1.0000
  H   H1252     1.0  0.52732  0.24499  0.11846  1.0000
  C   C1268     1.0  0.49145  0.10019  0.07396  1.0000
  H   H1253     1.0  0.70465  0.03994  0.38671  1.0000
  C   C1269     1.0  0.71521  0.23746  0.22305  1.0000
  H   H1254     1.0  0.67233  0.14862  0.13678  1.0000
  H   H1255     1.0  0.72351  0.04979  0.13211  1.0000
  C   C1270     1.0  0.55038  0.12402  0.21660  1.0000
  H   H1256     1.0  0.70758  0.04812  0.35554  1.0000
  H   H1257     1.0  0.54497  0.13536  0.21241  1.0000
  N   N105      1.0  0.59135  0.21452  0.17570  1.0000
  C   C1271     1.0  0.60041  0.22661  0.15563  1.0000
  C   C1272     1.0  0.59190  0.23229  0.13849  1.0000
  C   C1273     1.0  0.57400  0.22583  0.14228  1.0000
  H   H1258     1.0  0.61435  0.23166  0.15255  1.0000
  H   H1259     1.0  0.59915  0.24160  0.12240  1.0000
  H   H1260     1.0  0.56712  0.23005  0.12923  1.0000
  H   H1261     1.0  0.59484  0.19467  0.20172  1.0000
  H   H1262     1.0  0.69194  0.15260  0.11455  1.0000
  H   H1263     1.0  0.50881  0.10688  0.04014  1.0000
  C   C1274     1.0  0.72567  0.17539  0.08086  1.0000
  H   H1264     1.0  0.66704  0.18428  0.12737  1.0000
  C   C1275     1.0  0.51030  0.08131  0.26069  1.0000
  H   H1265     1.0  0.50445  0.22500  0.20414  1.0000
  C   C1276     1.0  0.72820  0.02720  0.35543  1.0000
  H   H1266     1.0  0.49311  0.31285  0.26964  1.0000
  C   C1277     1.0  0.72347  0.19084  0.23644  1.0000
  C   C1278     1.0  0.73053  0.18003  0.27356  1.0000
  C   C1279     1.0  0.52380  0.10054  0.22279  1.0000
  H   H1267     1.0  0.58741  0.03326  0.42975  1.0000
  C   C1280     1.0  0.73484  0.07464  0.01345  1.0000
  C   C1281     1.0  0.73284  0.13273  0.27495  1.0000
  H   H1268     1.0  0.49961  0.07097  0.27219  1.0000
  C   C1282     1.0  0.72566  0.11893  0.26522  1.0000
  H   H1269     1.0  0.59895  0.21645  0.20766  1.0000
  C   C1283     1.0  0.50246  0.11474  0.10342  1.0000
  H   H1270     1.0  0.72760  0.19669  0.21791  1.0000
  Fe  Fe215     1.0  0.49279  0.28336  0.17378  1.0000
  S   S425      1.0  0.73756  0.10955  0.99723  1.0000
  C   C1284     1.0  0.57379  0.20815  0.17955  1.0000
  S   S426      1.0  0.58409  0.07550  0.46609  1.0000
  C   C1285     1.0  0.69113  0.01241  0.15466  1.0000
  C   C1286     1.0  0.52360  0.09006  0.26976  1.0000
  H   H1271     1.0  0.68968  0.16851  0.13126  1.0000
  H   H1272     1.0  0.72503  0.16266  0.05168  1.0000
  C   C1287     1.0  0.50300  0.33072  0.23581  1.0000
  C   C1288     1.0  0.68236  0.15875  0.12298  1.0000
  H   H1273     1.0  0.72349  0.03818  0.07676  1.0000
  S   S427      1.0  0.72343  0.26804  0.15998  1.0000
  H   H1274     1.0  0.56140  0.12824  0.22484  1.0000
  H   H1275     1.0  0.49208  0.25229  0.07524  1.0000
  H   H1276     1.0  0.65303  0.19011  0.06084  1.0000
  N   N106      1.0  0.67430  0.16733  0.10585  1.0000
  H   H1277     1.0  0.71086  0.05331  0.08191  1.0000
  H   H1278     1.0  0.71770  0.22556  0.21765  1.0000
  S   S428      1.0  0.49551  0.12738  0.20867  1.0000
  N   N107      1.0  0.53686  0.10898  0.23179  1.0000
  H   H1279     1.0  0.55094  0.20893  0.16615  1.0000
  N   N108      1.0  0.70989  0.03427  0.11199  1.0000
  S   S429      1.0  0.50474  0.11082  0.31329  1.0000
  S   S430      1.0  0.49999  0.25929  0.19046  1.0000
  Fe  Fe216     1.0  0.70594  0.00635  0.05269  1.0000
  H   H1280     1.0  0.61428  0.21100  0.18635  1.0000
  H   H1281     1.0  0.65342  0.19898  0.09888  1.0000
  H   H1282     1.0  0.72711  0.18045  0.40704  1.0000
  H   H1283     1.0  0.49034  0.15226  0.10051  1.0000
  H   H1284     1.0  0.54876  0.07218  0.45446  1.0000
  H   H1285     1.0  0.66646  0.16649  0.05200  1.0000
  H   H1286     1.0  0.72808  0.09453  0.25643  1.0000
  C   C1289     1.0  0.66617  0.17021  0.06873  1.0000
  C   C1290     1.0  0.66684  0.18021  0.11094  1.0000
  N   N109      1.0  0.62351  0.13007  0.40638  1.0000
  C   C1291     1.0  0.63496  0.12173  0.39702  1.0000
  C   C1292     1.0  0.60612  0.12221  0.41161  1.0000
  C   C1293     1.0  0.62907  0.10501  0.39284  1.0000
  C   C1294     1.0  0.59977  0.10558  0.40738  1.0000
  C   C1295     1.0  0.61136  0.09692  0.39806  1.0000
  C   C1296     1.0  0.62983  0.14714  0.41198  1.0000
  H   H1287     1.0  0.64878  0.12778  0.39324  1.0000
  H   H1288     1.0  0.59700  0.12870  0.41930  1.0000
  H   H1289     1.0  0.63825  0.09828  0.38605  1.0000
  H   H1290     1.0  0.58595  0.09941  0.41158  1.0000
  H   H1291     1.0  0.60661  0.08391  0.39508  1.0000
  H   H1292     1.0  0.62227  0.15624  0.40611  1.0000
  H   H1293     1.0  0.62859  0.14539  0.43119  1.0000
  H   H1294     1.0  0.64366  0.15342  0.40325  1.0000
  H   H1295     1.0  0.71795  0.06183  0.37243  1.0000
  C   C1297     1.0  0.73559  0.17750  0.41908  1.0000
  C   C1298     1.0  0.50082  0.11650  0.28502  1.0000
  H   H1296     1.0  0.64079  0.12238  0.45705  1.0000
  C   C1299     1.0  0.53799  0.02223  0.47121  1.0000
  C   C1300     1.0  0.50699  0.10895  0.05778  1.0000
  H   H1297     1.0  0.50054  0.11697  0.12098  1.0000
  H   H1298     1.0  0.52319  0.08665  0.28837  1.0000
  H   H1299     1.0  0.54669  0.11116  0.26247  1.0000
  C   C1301     1.0  0.49004  0.32099  0.25529  1.0000
  C   C1302     1.0  0.65880  0.18356  0.07360  1.0000
  C   C1303     1.0  0.49348  0.14493  0.04557  1.0000
  H   H1300     1.0  0.71387  0.11865  0.25904  1.0000
  C   C1304     1.0  0.69714  0.01967  0.11247  1.0000
  H   H1301     1.0  0.73073  0.19890  0.98158  1.0000
  N   N110      1.0  0.73084  0.24866  0.22714  1.0000
  C   C1305     1.0  0.73270  0.26630  0.22456  1.0000
  H   H1302     1.0  0.49569  0.01355  0.43050  1.0000
  H   H1303     1.0  0.49285  0.22610  0.09915  1.0000
  H   H1304     1.0  0.69428  0.01658  0.09632  1.0000
  H   H1305     1.0  0.73553  0.30381  0.16312  1.0000
  H   H1306     1.0  0.72699  0.17063  0.43643  1.0000
  H   H1307     1.0  0.50881  0.09471  0.46195  1.0000
  S   S431      1.0  0.73531  0.01067  0.20359  1.0000
  H   H1308     1.0  0.73413  0.00056  0.12460  1.0000
  H   H1309     1.0  0.73303  0.16748  0.08900  1.0000
  S   S432      1.0  0.73886  0.15887  0.98641  1.0000
  C   C1306     1.0  0.73867  0.08816  0.33265  1.0000
  S   S433      1.0  0.73827  0.17370  0.35827  1.0000
  C   C1307     1.0  0.73871  0.06422  0.31213  1.0000
  H   H1310     1.0  0.49078  0.26999  0.08954  1.0000
  H   H1311     1.0  0.57417  0.05088  0.98097  1.0000
  H   H1312     1.0  0.55133  0.06649  0.98012  1.0000
  C   C1308     1.0  0.72576  0.99998  0.18335  1.0000
  H   H1313     1.0  0.68408  0.00366  0.17130  1.0000
  C   C1309     1.0  0.48938  0.10296  0.09688  1.0000
  H   H1314     1.0  0.63429  0.11327  0.67826  1.0000
  C   C1310     1.0  0.54703  0.26200  0.63390  1.0000
  C   C1311     1.0  0.57820  0.10959  0.66268  1.0000
  C   C1312     1.0  0.69093  0.12838  0.88373  1.0000
  Fe  Fe217     1.0  0.61434  0.18731  0.64747  1.0000
  S   S434      1.0  0.60334  0.15827  0.65298  1.0000
  S   S435      1.0  0.59922  0.20473  0.63154  1.0000
  Fe  Fe218     1.0  0.64779  0.18410  0.66276  1.0000
  S   S436      1.0  0.63904  0.15455  0.66881  1.0000
  S   S437      1.0  0.67308  0.19295  0.67463  1.0000
  Fe  Fe219     1.0  0.62994  0.15854  0.63518  1.0000
  S   S438      1.0  0.63549  0.14259  0.60809  1.0000
  Fe  Fe220     1.0  0.61331  0.15684  0.68601  1.0000
  S   S439      1.0  0.59634  0.13971  0.72019  1.0000
  S   S440      1.0  0.64076  0.18785  0.62750  1.0000
  S   S441      1.0  0.62216  0.18602  0.68203  1.0000
  C   C1313     1.0  0.50838  0.03790  0.50218  1.0000
  H   H1315     1.0  0.50409  0.29296  0.70279  1.0000
  S   S442      1.0  0.59871  0.08009  0.51363  1.0000
  H   H1316     1.0  0.56510  0.11021  0.66234  1.0000
  C   C1314     1.0  0.52939  0.00458  0.48136  1.0000
  S   S443      1.0  0.56228  0.08925  0.50738  1.0000
  H   H1317     1.0  0.58624  0.10770  0.92504  1.0000
  Fe  Fe221     1.0  0.58799  0.10355  0.51313  1.0000
  S   S444      1.0  0.58578  0.11993  0.54077  1.0000
  Fe  Fe222     1.0  0.57394  0.06683  0.50481  1.0000
  S   S445      1.0  0.56007  0.03855  0.52240  1.0000
  C   C1315     1.0  0.69144  0.14509  0.88788  1.0000
  H   H1318     1.0  0.54631  0.27506  0.62488  1.0000
  Fe  Fe223     1.0  0.61889  0.07696  0.88036  1.0000
  S   S446      1.0  0.61348  0.10004  0.85888  1.0000
  S   S447      1.0  0.63907  0.07732  0.90252  1.0000
  Fe  Fe224     1.0  0.59032  0.05023  0.86679  1.0000
  S   S448      1.0  0.58291  0.07141  0.84400  1.0000
  S   S449      1.0  0.57413  0.02179  0.87913  1.0000
  Fe  Fe225     1.0  0.61158  0.08399  0.83151  1.0000
  S   S450      1.0  0.62672  0.09621  0.79416  1.0000
  Fe  Fe226     1.0  0.58541  0.08556  0.87315  1.0000
  S   S451      1.0  0.56594  0.09946  0.88625  1.0000
  S   S452      1.0  0.61890  0.06156  0.85212  1.0000
  S   S453      1.0  0.59097  0.06376  0.89680  1.0000
  H   H1319     1.0  0.52685  0.05575  0.51472  1.0000
  H   H1320     1.0  0.57633  0.00122  0.80548  1.0000
  S   S454      1.0  0.59932  0.11507  0.47452  1.0000
  Fe  Fe227     1.0  0.50183  0.20645  0.66945  1.0000
  S   S455      1.0  0.52157  0.19479  0.68425  1.0000
  S   S456      1.0  0.50450  0.21985  0.63223  1.0000
  C   C1316     1.0  0.52067  0.31205  0.67258  1.0000
  C   C1317     1.0  0.50952  0.29548  0.68421  1.0000
  C   C1318     1.0  0.50524  0.28211  0.67199  1.0000
  C   C1319     1.0  0.51201  0.28523  0.64792  1.0000
  C   C1320     1.0  0.52323  0.30178  0.63630  1.0000
  C   C1321     1.0  0.52771  0.31504  0.64860  1.0000
  C   C1322     1.0  0.54379  0.27375  0.66943  1.0000
  H   H1321     1.0  0.67999  0.14977  0.88807  1.0000
  H   H1322     1.0  0.52865  0.30428  0.61771  1.0000
  S   S457      1.0  0.72188  0.13730  0.94957  1.0000
  C   C1323     1.0  0.54835  0.08629  0.90864  1.0000
  C   C1324     1.0  0.54669  0.06842  0.91639  1.0000
  C   C1325     1.0  0.53375  0.05847  0.93595  1.0000
  C   C1326     1.0  0.52222  0.06627  0.94765  1.0000
  C   C1327     1.0  0.52337  0.08398  0.93937  1.0000
  C   C1328     1.0  0.53645  0.09398  0.91988  1.0000
  H   H1323     1.0  0.55550  0.06227  0.90754  1.0000
  H   H1324     1.0  0.51446  0.09006  0.94829  1.0000
  H   H1325     1.0  0.53763  0.10780  0.91387  1.0000
  H   H1326     1.0  0.53625  0.23170  0.66520  1.0000
  C   C1329     1.0  0.57746  0.20139  0.64592  1.0000
  C   C1330     1.0  0.56668  0.20951  0.63457  1.0000
  C   C1331     1.0  0.54935  0.20717  0.64576  1.0000
  C   C1332     1.0  0.54280  0.19702  0.66861  1.0000
  C   C1333     1.0  0.55356  0.18881  0.67982  1.0000
  C   C1334     1.0  0.57077  0.19085  0.66848  1.0000
  H   H1327     1.0  0.57175  0.21764  0.61709  1.0000
  H   H1328     1.0  0.54113  0.21333  0.63677  1.0000
  H   H1329     1.0  0.54860  0.18091  0.69747  1.0000
  H   H1330     1.0  0.57893  0.18453  0.67739  1.0000
  C   C1335     1.0  0.60476  0.12710  0.74023  1.0000
  C   C1336     1.0  0.62165  0.12564  0.73453  1.0000
  C   C1337     1.0  0.62803  0.11567  0.75103  1.0000
  C   C1338     1.0  0.61771  0.10741  0.77346  1.0000
  C   C1339     1.0  0.60080  0.10880  0.77911  1.0000
  C   C1340     1.0  0.59431  0.11850  0.76245  1.0000
  H   H1331     1.0  0.62984  0.13227  0.71754  1.0000
  H   H1332     1.0  0.64112  0.11462  0.74661  1.0000
  H   H1333     1.0  0.59277  0.10248  0.79635  1.0000
  H   H1334     1.0  0.58123  0.11957  0.76696  1.0000
  C   C1341     1.0  0.62118  0.13546  0.59030  1.0000
  C   C1342     1.0  0.62681  0.12764  0.57209  1.0000
  C   C1343     1.0  0.61595  0.12224  0.55719  1.0000
  C   C1344     1.0  0.59929  0.12450  0.56050  1.0000
  C   C1345     1.0  0.59348  0.13179  0.57920  1.0000
  C   C1346     1.0  0.60438  0.13734  0.59395  1.0000
  H   H1335     1.0  0.63975  0.12603  0.56922  1.0000
  H   H1336     1.0  0.62059  0.11666  0.54286  1.0000
  H   H1337     1.0  0.58059  0.13354  0.58192  1.0000
  H   H1338     1.0  0.59985  0.14325  0.60795  1.0000
  C   C1347     1.0  0.68849  0.21375  0.66965  1.0000
  C   C1348     1.0  0.68672  0.22904  0.65615  1.0000
  C   C1349     1.0  0.69926  0.24519  0.65291  1.0000
  C   C1350     1.0  0.71370  0.24632  0.66313  1.0000
  C   C1351     1.0  0.71548  0.23102  0.67659  1.0000
  C   C1352     1.0  0.70297  0.21486  0.67978  1.0000
  H   H1339     1.0  0.67568  0.22845  0.64827  1.0000
  H   H1340     1.0  0.69771  0.25693  0.64250  1.0000
  H   H1341     1.0  0.60729  0.05492  0.93961  1.0000
  H   H1342     1.0  0.70452  0.20315  0.69024  1.0000
  H   H1343     1.0  0.55249  0.03571  0.84678  1.0000
  C   C1353     1.0  0.58862  0.10666  0.64337  1.0000
  S   S458      1.0  0.50731  0.26880  0.63175  1.0000
  H   H1344     1.0  0.61378  0.10443  0.62868  1.0000
  C   C1354     1.0  0.70567  0.17210  0.89822  1.0000
  H   H1345     1.0  0.61225  0.05317  0.48832  1.0000
  S   S459      1.0  0.67322  0.13897  0.94818  1.0000
  C   C1355     1.0  0.60561  0.10634  0.64395  1.0000
  H   H1346     1.0  0.58532  0.02292  0.82921  1.0000
  H   H1347     1.0  0.54792  0.28696  0.65861  1.0000
  C   C1356     1.0  0.66372  0.12147  0.93608  1.0000
  C   C1357     1.0  0.65123  0.12367  0.92309  1.0000
  C   C1358     1.0  0.64384  0.11046  0.91225  1.0000
  C   C1359     1.0  0.64853  0.09469  0.91487  1.0000
  C   C1360     1.0  0.66097  0.09247  0.92794  1.0000
  C   C1361     1.0  0.66865  0.10585  0.93835  1.0000
  H   H1348     1.0  0.64741  0.13576  0.92117  1.0000
  H   H1349     1.0  0.63454  0.11250  0.90187  1.0000
  H   H1350     1.0  0.66469  0.08031  0.93004  1.0000
  H   H1351     1.0  0.67827  0.10401  0.94827  1.0000
  N   N111      1.0  0.59690  0.18056  0.57571  1.0000
  C   C1362     1.0  0.59462  0.17344  0.55680  1.0000
  C   C1363     1.0  0.61264  0.18384  0.58156  1.0000
  C   C1364     1.0  0.60830  0.16924  0.54334  1.0000
  C   C1365     1.0  0.62655  0.17968  0.56861  1.0000
  C   C1366     1.0  0.62432  0.17230  0.54942  1.0000
  C   C1367     1.0  0.58250  0.18469  0.59004  1.0000
  H   H1352     1.0  0.58209  0.17053  0.55231  1.0000
  H   H1353     1.0  0.61441  0.18946  0.59655  1.0000
  H   H1354     1.0  0.60624  0.16290  0.52898  1.0000
  H   H1355     1.0  0.63882  0.18166  0.57389  1.0000
  H   H1356     1.0  0.63482  0.16842  0.53976  1.0000
  H   H1357     1.0  0.58558  0.19904  0.58920  1.0000
  H   H1358     1.0  0.57021  0.18071  0.58428  1.0000
  H   H1359     1.0  0.58033  0.17781  0.60866  1.0000
  C   C1368     1.0  0.58439  0.01340  0.49463  1.0000
  H   H1360     1.0  0.72641  0.23163  0.68471  1.0000
  H   H1361     1.0  0.54090  0.02948  0.87644  1.0000
  H   H1362     1.0  0.58370  0.10494  0.62786  1.0000
  N   N112      1.0  0.59520  0.02971  0.48419  1.0000
  H   H1363     1.0  0.54302  0.01996  0.81822  1.0000
  Fe  Fe228     1.0  0.49370  0.23984  0.64781  1.0000
  H   H1364     1.0  0.54028  0.00238  0.53432  1.0000
  H   H1365     1.0  0.56026  0.26063  0.62836  1.0000
  C   C1369     1.0  0.53729  0.24293  0.67311  1.0000
  C   C1370     1.0  0.53381  0.25451  0.70786  1.0000
  C   C1371     1.0  0.54826  0.02564  0.50646  1.0000
  C   C1372     1.0  0.70518  0.12179  0.88498  1.0000
  H   H1366     1.0  0.70468  0.10861  0.88261  1.0000
  C   C1373     1.0  0.53971  0.00793  0.51664  1.0000
  C   C1374     1.0  0.53292  0.24013  0.69749  1.0000
  H   H1367     1.0  0.59705  0.04012  0.51438  1.0000
  H   H1368     1.0  0.63879  0.11704  0.64701  1.0000
  C   C1375     1.0  0.51318  0.06933  0.49295  1.0000
  H   H1369     1.0  0.51436  0.00571  0.88887  1.0000
  C   C1376     1.0  0.53283  0.01094  0.83216  1.0000
  N   N113      1.0  0.61203  0.10887  0.66322  1.0000
  C   C1377     1.0  0.62987  0.10842  0.66333  1.0000
  C   C1378     1.0  0.58476  0.11185  0.68241  1.0000
  H   H1370     1.0  0.71888  0.18019  0.89754  1.0000
  H   H1371     1.0  0.53283  0.04475  0.94219  1.0000
  H   H1372     1.0  0.67928  0.12032  0.88051  1.0000
  H   H1373     1.0  0.52012  0.08220  0.49452  1.0000
  H   H1374     1.0  0.73566  0.21402  0.94014  1.0000
  H   H1375     1.0  0.48977  0.02356  0.48600  1.0000
  N   N114      1.0  0.54240  0.25955  0.65941  1.0000
  C   C1379     1.0  0.53921  0.03107  0.85810  1.0000
  H   H1376     1.0  0.55763  0.09533  0.95266  1.0000
  C   C1380     1.0  0.56411  0.07231  0.96878  1.0000
  Fe  Fe229     1.0  0.73401  0.16525  0.95032  1.0000
  Fe  Fe230     1.0  0.60810  0.09052  0.47467  1.0000
  S   S460      1.0  0.70854  0.16991  0.96352  1.0000
  H   H1377     1.0  0.53771  0.25213  0.62801  1.0000
  C   C1381     1.0  0.57569  0.01062  0.83740  1.0000
  H   H1378     1.0  0.57685  0.11427  0.69753  1.0000
  C   C1382     1.0  0.71988  0.13208  0.88981  1.0000
  H   H1379     1.0  0.53012  0.25250  0.72674  1.0000
  H   H1380     1.0  0.60669  0.11306  0.69789  1.0000
  C   C1383     1.0  0.59638  0.08647  0.93881  1.0000
  S   S461      1.0  0.72917  0.26708  0.65819  1.0000
  C   C1384     1.0  0.51705  0.05446  0.50441  1.0000
  H   H1381     1.0  0.53994  0.28278  0.70156  1.0000
  C   C1385     1.0  0.53934  0.27146  0.69377  1.0000
  S   S462      1.0  0.52563  0.32843  0.68879  1.0000
  C   C1386     1.0  0.56848  0.00684  0.86141  1.0000
  N   N115      1.0  0.65073  0.16409  0.74348  1.0000
  C   C1387     1.0  0.64468  0.15274  0.76495  1.0000
  C   C1388     1.0  0.64025  0.17288  0.73384  1.0000
  C   C1389     1.0  0.62776  0.15009  0.77744  1.0000
  C   C1390     1.0  0.62320  0.17039  0.74573  1.0000
  C   C1391     1.0  0.61695  0.15893  0.76767  1.0000
  C   C1392     1.0  0.66831  0.16651  0.73009  1.0000
  H   H1382     1.0  0.65271  0.14526  0.77233  1.0000
  H   H1383     1.0  0.64503  0.18171  0.71670  1.0000
  H   H1384     1.0  0.62283  0.14066  0.79413  1.0000
  H   H1385     1.0  0.61473  0.17691  0.73771  1.0000
  H   H1386     1.0  0.60358  0.15645  0.77673  1.0000
  H   H1387     1.0  0.67519  0.18074  0.72429  1.0000
  H   H1388     1.0  0.67604  0.15999  0.74048  1.0000
  H   H1389     1.0  0.66776  0.16107  0.71420  1.0000
  N   N116      1.0  0.59304  0.07083  0.95449  1.0000
  H   H1390     1.0  0.52856  0.22681  0.70812  1.0000
  H   H1391     1.0  0.69773  0.17000  0.91618  1.0000
  H   H1392     1.0  0.60877  0.09178  0.92653  1.0000
  N   N117      1.0  0.52960  0.01446  0.85395  1.0000
  C   C1393     1.0  0.54747  0.03271  0.48365  1.0000
  H   H1393     1.0  0.53235  0.04132  0.85457  1.0000
  C   C1394     1.0  0.60176  0.11131  0.68245  1.0000
  C   C1395     1.0  0.72004  0.14884  0.89351  1.0000
  H   H1394     1.0  0.63095  0.09480  0.66451  1.0000
  C   C1396     1.0  0.51692  0.00292  0.87162  1.0000
  N   N118      1.0  0.70588  0.15508  0.89267  1.0000
  C   C1397     1.0  0.58373  0.09553  0.93794  1.0000
  H   H1395     1.0  0.53670  0.32753  0.63958  1.0000
  N   N119      1.0  0.50115  0.06771  0.47948  1.0000
  Fe  Fe231     1.0  0.69650  0.14156  0.96497  1.0000
  C   C1398     1.0  0.56760  0.08849  0.95328  1.0000
  C   C1399     1.0  0.60646  0.06147  0.95461  1.0000
  C   C1400     1.0  0.49257  0.05149  0.47726  1.0000
  C   C1401     1.0  0.60553  0.03944  0.49797  1.0000
  H   H1396     1.0  0.61931  0.07077  0.95283  1.0000
  H   H1397     1.0  0.58299  0.00803  0.51311  1.0000
  H   H1398     1.0  0.70007  0.17968  0.88562  1.0000
  C   C1402     1.0  0.57705  0.06355  0.96909  1.0000
  C   C1403     1.0  0.49619  0.03637  0.48837  1.0000
  H   H1399     1.0  0.73094  0.12699  0.89123  1.0000
  H   H1400     1.0  0.73141  0.15663  0.89768  1.0000
  H   H1401     1.0  0.49662  0.26944  0.68118  1.0000
  H   H1402     1.0  0.51132  0.02626  0.51085  1.0000
  H   H1403     1.0  0.60392  0.05146  0.97112  1.0000
  H   H1404     1.0  0.61545  0.03287  0.50244  1.0000
  H   H1405     1.0  0.73796  0.25010  0.61285  1.0000
  H   H1406     1.0  0.55396  0.04628  0.47566  1.0000
  S   S463      1.0  0.49263  0.22721  0.68491  1.0000
  C   C1404     1.0  0.57448  0.00371  0.48191  1.0000
  S   S464      1.0  0.50712  0.05365  0.97316  1.0000
  S   S465      1.0  0.72182  0.60442  0.45225  1.0000
  H   H1407     1.0  0.73234  0.48781  0.25676  1.0000
  S   S466      1.0  0.68356  0.58169  0.43085  1.0000
  C   C1405     1.0  0.63681  0.49581  0.98002  1.0000
  H   H1408     1.0  0.57148  0.65986  0.41421  1.0000
  Fe  Fe232     1.0  0.50703  0.63403  0.37921  1.0000
  S   S467      1.0  0.52085  0.62566  0.34858  1.0000
  C   C1406     1.0  0.66115  0.42154  0.20918  1.0000
  C   C1407     1.0  0.59922  0.55233  0.43594  1.0000
  H   H1409     1.0  0.60326  0.54017  0.43482  1.0000
  Fe  Fe233     1.0  0.50731  0.59808  0.36948  1.0000
  S   S468      1.0  0.51621  0.57340  0.37704  1.0000
  H   H1410     1.0  0.62974  0.57037  0.44068  1.0000
  S   S469      1.0  0.56165  0.49626  0.00315  1.0000
  H   H1411     1.0  0.58597  0.55043  0.43270  1.0000
  H   H1412     1.0  0.66172  0.54968  0.46434  1.0000
  S   S470      1.0  0.51860  0.35213  0.15259  1.0000
  Fe  Fe234     1.0  0.69575  0.58467  0.46225  1.0000
  Fe  Fe235     1.0  0.58745  0.49024  0.99957  1.0000
  S   S471      1.0  0.59717  0.47283  0.02546  1.0000
  Fe  Fe236     1.0  0.61137  0.51853  0.38916  1.0000
  S   S472      1.0  0.62106  0.53434  0.35217  1.0000
  S   S473      1.0  0.62380  0.51820  0.42061  1.0000
  Fe  Fe237     1.0  0.57575  0.50248  0.38061  1.0000
  S   S474      1.0  0.58247  0.51708  0.34297  1.0000
  S   S475      1.0  0.54832  0.48814  0.39962  1.0000
  Fe  Fe238     1.0  0.60761  0.50989  0.34162  1.0000
  S   S476      1.0  0.62200  0.50265  0.30991  1.0000
  Fe  Fe239     1.0  0.59518  0.54009  0.35628  1.0000
  S   S477      1.0  0.59264  0.56751  0.34525  1.0000
  S   S478      1.0  0.59991  0.49345  0.37856  1.0000
  S   S479      1.0  0.58652  0.52618  0.39392  1.0000
  N   N120      1.0  0.56595  0.46647  0.45413  1.0000
  S   S480      1.0  0.52318  0.40664  0.44394  1.0000
  H   H1413     1.0  0.61753  0.59064  0.36362  1.0000
  Fe  Fe240     1.0  0.63014  0.45086  0.17631  1.0000
  S   S481      1.0  0.61712  0.47223  0.18077  1.0000
  S   S482      1.0  0.65936  0.45525  0.16518  1.0000
  Fe  Fe241     1.0  0.59540  0.42263  0.18346  1.0000
  S   S483      1.0  0.58021  0.44208  0.18882  1.0000
  S   S484      1.0  0.58428  0.39324  0.18547  1.0000
  Fe  Fe242     1.0  0.60009  0.46056  0.15828  1.0000
  S   S485      1.0  0.59090  0.47803  0.13175  1.0000
  Fe  Fe243     1.0  0.59849  0.45204  0.21093  1.0000
  S   S486      1.0  0.58596  0.45755  0.24516  1.0000
  S   S487      1.0  0.61433  0.44055  0.15150  1.0000
  S   S488      1.0  0.61247  0.43118  0.20789  1.0000
  S   S489      1.0  0.71978  0.48998  0.21190  1.0000
  C   C1408     1.0  0.67594  0.46581  0.17788  1.0000
  C   C1409     1.0  0.67227  0.47085  0.19913  1.0000
  C   C1410     1.0  0.68586  0.47829  0.20918  1.0000
  C   C1411     1.0  0.70326  0.48095  0.19803  1.0000
  C   C1412     1.0  0.70691  0.47602  0.17670  1.0000
  C   C1413     1.0  0.69332  0.46840  0.16678  1.0000
  H   H1414     1.0  0.65898  0.46889  0.20793  1.0000
  H   H1415     1.0  0.68286  0.48201  0.22571  1.0000
  H   H1416     1.0  0.72021  0.47795  0.16793  1.0000
  H   H1417     1.0  0.69631  0.46452  0.15036  1.0000
  C   C1414     1.0  0.61200  0.48830  0.29374  1.0000
  C   C1415     1.0  0.59411  0.48091  0.29907  1.0000
  C   C1416     1.0  0.58643  0.47103  0.28441  1.0000
  C   C1417     1.0  0.59652  0.46840  0.26433  1.0000
  C   C1418     1.0  0.61447  0.47530  0.25941  1.0000
  C   C1419     1.0  0.62216  0.48519  0.27409  1.0000
  H   H1418     1.0  0.58616  0.48306  0.31427  1.0000
  H   H1419     1.0  0.57255  0.46563  0.28844  1.0000
  H   H1420     1.0  0.62238  0.47332  0.24406  1.0000
  H   H1421     1.0  0.63601  0.49078  0.26991  1.0000
  C   C1420     1.0  0.54150  0.46520  0.40960  1.0000
  C   C1421     1.0  0.55294  0.45474  0.40711  1.0000
  C   C1422     1.0  0.54717  0.43661  0.41709  1.0000
  C   C1423     1.0  0.53003  0.42897  0.42964  1.0000
  C   C1424     1.0  0.51857  0.43939  0.43164  1.0000
  C   C1425     1.0  0.52429  0.45743  0.42164  1.0000
  H   H1422     1.0  0.56622  0.46065  0.39776  1.0000
  H   H1423     1.0  0.55606  0.42856  0.41543  1.0000
  H   H1424     1.0  0.50531  0.43364  0.44116  1.0000
  H   H1425     1.0  0.51540  0.46545  0.42360  1.0000
  C   C1426     1.0  0.59652  0.47549  0.05442  1.0000
  C   C1427     1.0  0.58831  0.48715  0.06335  1.0000
  C   C1428     1.0  0.58715  0.48815  0.08694  1.0000
  C   C1429     1.0  0.59419  0.47755  0.10173  1.0000
  C   C1430     1.0  0.60269  0.46613  0.09264  1.0000
  C   C1431     1.0  0.60382  0.46510  0.06907  1.0000
  H   H1426     1.0  0.58265  0.49523  0.05222  1.0000
  H   H1427     1.0  0.58055  0.49702  0.09386  1.0000
  H   H1428     1.0  0.60817  0.45791  0.10385  1.0000
  H   H1429     1.0  0.61024  0.45607  0.06226  1.0000
  C   C1432     1.0  0.56544  0.38189  0.17737  1.0000
  C   C1433     1.0  0.56176  0.36356  0.17979  1.0000
  C   C1434     1.0  0.54732  0.35414  0.17281  1.0000
  C   C1435     1.0  0.53652  0.36300  0.16291  1.0000
  C   C1436     1.0  0.54006  0.38128  0.16081  1.0000
  C   C1437     1.0  0.55426  0.39062  0.16828  1.0000
  H   H1430     1.0  0.57022  0.35660  0.18693  1.0000
  C   C1438     1.0  0.49487  0.36913  0.42659  1.0000
  H   H1431     1.0  0.53171  0.38827  0.15343  1.0000
  H   H1432     1.0  0.55654  0.40455  0.16706  1.0000
  C   C1439     1.0  0.52587  0.55815  0.04784  1.0000
  C   C1440     1.0  0.53762  0.57237  0.36771  1.0000
  C   C1441     1.0  0.55103  0.58724  0.35577  1.0000
  C   C1442     1.0  0.56793  0.58571  0.34884  1.0000
  C   C1443     1.0  0.57144  0.56933  0.35381  1.0000
  C   C1444     1.0  0.55802  0.55451  0.36576  1.0000
  C   C1445     1.0  0.54120  0.55604  0.37267  1.0000
  H   H1433     1.0  0.54839  0.59988  0.35188  1.0000
  H   H1434     1.0  0.57827  0.59721  0.33958  1.0000
  H   H1435     1.0  0.56054  0.54181  0.36954  1.0000
  H   H1436     1.0  0.53092  0.54445  0.38174  1.0000
  S   S490      1.0  0.51502  0.65802  0.39467  1.0000
  C   C1446     1.0  0.66758  0.56336  0.42825  1.0000
  C   C1447     1.0  0.66332  0.56302  0.40639  1.0000
  C   C1448     1.0  0.64996  0.54932  0.40377  1.0000
  C   C1449     1.0  0.64088  0.53562  0.42296  1.0000
  C   C1450     1.0  0.64535  0.53578  0.44473  1.0000
  C   C1451     1.0  0.65859  0.54961  0.44742  1.0000
  H   H1437     1.0  0.67025  0.57355  0.39142  1.0000
  H   H1438     1.0  0.64673  0.54932  0.38689  1.0000
  H   H1439     1.0  0.63847  0.52520  0.45966  1.0000
  C   C1452     1.0  0.51295  0.54310  0.04870  1.0000
  C   C1453     1.0  0.52810  0.56510  0.98867  1.0000
  H   H1440     1.0  0.54480  0.34010  0.17455  1.0000
  C   C1454     1.0  0.63894  0.58915  0.40783  1.0000
  C   C1455     1.0  0.63563  0.59482  0.38596  1.0000
  H   H1441     1.0  0.65166  0.53132  0.00195  1.0000
  C   C1456     1.0  0.51925  0.53341  0.99558  1.0000
  H   H1442     1.0  0.50131  0.58677  0.05018  1.0000
  H   H1443     1.0  0.54704  0.64780  0.39662  1.0000
  S   S491      1.0  0.57100  0.54814  0.99027  1.0000
  C   C1457     1.0  0.49598  0.54415  0.04957  1.0000
  H   H1444     1.0  0.65106  0.59519  0.41200  1.0000
  H   H1445     1.0  0.62990  0.50215  0.01359  1.0000
  H   H1446     1.0  0.53951  0.52047  0.99721  1.0000
  C   C1458     1.0  0.56959  0.45069  0.45980  1.0000
  C   C1459     1.0  0.54575  0.65679  0.40798  1.0000
  H   H1447     1.0  0.49716  0.50761  0.41322  1.0000
  H   H1448     1.0  0.64506  0.60548  0.37305  1.0000
  C   C1460     1.0  0.57970  0.48209  0.44091  1.0000
  C   C1461     1.0  0.54523  0.56458  0.98840  1.0000
  C   C1462     1.0  0.49950  0.61897  0.21930  1.0000
  H   H1449     1.0  0.50081  0.37145  0.44114  1.0000
  C   C1463     1.0  0.62022  0.58651  0.38065  1.0000
  H   H1450     1.0  0.58254  0.44951  0.45409  1.0000
  C   C1464     1.0  0.72831  0.58816  0.39672  1.0000
  H   H1451     1.0  0.53920  0.55764  0.04619  1.0000
  C   C1465     1.0  0.49647  0.62179  0.19675  1.0000
  C   C1466     1.0  0.60829  0.57264  0.39737  1.0000
  H   H1452     1.0  0.50923  0.52128  0.99844  1.0000
  C   C1467     1.0  0.64188  0.40341  0.16280  1.0000
  H   H1453     1.0  0.57487  0.48999  0.42763  1.0000
  Fe  Fe244     1.0  0.57704  0.52332  0.98308  1.0000
  C   C1468     1.0  0.62677  0.57512  0.42406  1.0000
  S   S492      1.0  0.49647  0.59876  0.00061  1.0000
  N   N121      1.0  0.61158  0.56723  0.41883  1.0000
  C   C1469     1.0  0.65059  0.52278  0.98971  1.0000
  C   C1470     1.0  0.62624  0.39208  0.17613  1.0000
  C   C1471     1.0  0.72323  0.52231  0.24326  1.0000
  H   H1454     1.0  0.64483  0.40533  0.14389  1.0000
  C   C1472     1.0  0.53076  0.66248  0.41151  1.0000
  H   H1455     1.0  0.60994  0.38185  0.21070  1.0000
  C   C1473     1.0  0.72371  0.49414  0.26679  1.0000
  H   H1456     1.0  0.66539  0.42186  0.16338  1.0000
  C   C1474     1.0  0.54943  0.54850  0.99133  1.0000
  H   H1457     1.0  0.63079  0.39874  0.22967  1.0000
  H   H1458     1.0  0.51619  0.53086  0.04771  1.0000
  H   H1459     1.0  0.61689  0.38511  0.16770  1.0000
  C   C1475     1.0  0.53640  0.53292  0.99493  1.0000
  H   H1460     1.0  0.72311  0.48992  0.28576  1.0000
  C   C1476     1.0  0.73012  0.54042  0.23464  1.0000
  C   C1477     1.0  0.54958  0.46792  0.46130  1.0000
  H   H1461     1.0  0.59860  0.55440  0.45401  1.0000
  N   N122      1.0  0.56550  0.43501  0.08220  1.0000
  C   C1478     1.0  0.55843  0.44642  0.09256  1.0000
  C   C1479     1.0  0.57256  0.42367  0.09469  1.0000
  C   C1480     1.0  0.55864  0.44691  0.11589  1.0000
  C   C1481     1.0  0.57315  0.42394  0.11798  1.0000
  C   C1482     1.0  0.56619  0.43571  0.12854  1.0000
  C   C1483     1.0  0.56527  0.43458  0.05772  1.0000
  H   H1462     1.0  0.55305  0.45559  0.08263  1.0000
  H   H1463     1.0  0.57800  0.41450  0.08656  1.0000
  H   H1464     1.0  0.55373  0.45647  0.12382  1.0000
  H   H1465     1.0  0.57909  0.41521  0.12772  1.0000
  H   H1466     1.0  0.56695  0.43645  0.14637  1.0000
  H   H1467     1.0  0.56255  0.44652  0.04835  1.0000
  H   H1468     1.0  0.57816  0.43436  0.04812  1.0000
  H   H1469     1.0  0.55531  0.42283  0.05682  1.0000
  C   C1484     1.0  0.50447  0.57445  0.04969  1.0000
  H   H1470     1.0  0.58438  0.49032  0.45289  1.0000
  H   H1471     1.0  0.59640  0.56622  0.39297  1.0000
  H   H1472     1.0  0.71246  0.51548  0.23693  1.0000
  S   S493      1.0  0.60299  0.51793  0.98245  1.0000
  H   H1473     1.0  0.72472  0.54744  0.22183  1.0000
  C   C1485     1.0  0.63418  0.39980  0.21093  1.0000
  C   C1486     1.0  0.55962  0.66372  0.41788  1.0000
  H   H1474     1.0  0.59090  0.47861  0.43128  1.0000
  S   S494      1.0  0.49351  0.54954  0.99313  1.0000
  H   H1475     1.0  0.71793  0.59455  0.39759  1.0000
  H   H1476     1.0  0.71495  0.56776  0.42708  1.0000
  H   H1477     1.0  0.62707  0.48326  0.98512  1.0000
  H   H1478     1.0  0.71051  0.48933  0.26381  1.0000
  N   N123      1.0  0.59899  0.51716  0.25745  1.0000
  C   C1487     1.0  0.58882  0.50765  0.24553  1.0000
  C   C1488     1.0  0.61652  0.52293  0.24919  1.0000
  C   C1489     1.0  0.59621  0.50339  0.22501  1.0000
  C   C1490     1.0  0.62434  0.51894  0.22869  1.0000
  C   C1491     1.0  0.61408  0.50907  0.21659  1.0000
  C   C1492     1.0  0.59100  0.52172  0.27874  1.0000
  H   H1479     1.0  0.57496  0.50276  0.25229  1.0000
  H   H1480     1.0  0.62461  0.53014  0.25893  1.0000
  H   H1481     1.0  0.58819  0.49513  0.21622  1.0000
  H   H1482     1.0  0.63828  0.52305  0.22259  1.0000
  H   H1483     1.0  0.61998  0.50545  0.20102  1.0000
  H   H1484     1.0  0.58728  0.53411  0.27420  1.0000
  H   H1485     1.0  0.57937  0.51108  0.28876  1.0000
  H   H1486     1.0  0.60003  0.52341  0.29071  1.0000
  H   H1487     1.0  0.65551  0.43198  0.21444  1.0000
  Fe  Fe245     1.0  0.49637  0.62369  0.33495  1.0000
  N   N124      1.0  0.64950  0.41088  0.19774  1.0000
  C   C1493     1.0  0.51510  0.54948  0.99228  1.0000
  C   C1494     1.0  0.62236  0.39020  0.20035  1.0000
  H   H1488     1.0  0.67401  0.42817  0.19726  1.0000
  H   H1489     1.0  0.66323  0.41331  0.22489  1.0000
  C   C1495     1.0  0.65346  0.41271  0.17396  1.0000
  H   H1490     1.0  0.50916  0.62862  0.22416  1.0000
  H   H1491     1.0  0.50384  0.63359  0.18379  1.0000
  N   N125      1.0  0.73031  0.51325  0.25887  1.0000
  H   H1492     1.0  0.54661  0.48034  0.45631  1.0000
  H   H1493     1.0  0.50875  0.34805  0.20203  1.0000
  C   C1496     1.0  0.49865  0.34070  0.21720  1.0000
  H   H1494     1.0  0.72970  0.54921  0.44745  1.0000
  C   C1497     1.0  0.72672  0.57300  0.41347  1.0000
  C   C1498     1.0  0.52162  0.57393  0.04847  1.0000
  H   H1495     1.0  0.53160  0.58574  0.04764  1.0000
  C   C1499     1.0  0.63838  0.50645  0.99624  1.0000
  H   H1496     1.0  0.52497  0.57756  0.98618  1.0000
  H   H1497     1.0  0.49395  0.39048  0.37246  1.0000
  C   C1500     1.0  0.48977  0.60382  0.23582  1.0000
  H   H1498     1.0  0.50736  0.39544  0.40611  1.0000
  H   H1499     1.0  0.55529  0.57668  0.98560  1.0000
  N   N126      1.0  0.49198  0.55976  0.04969  1.0000
  Fe  Fe246     1.0  0.49664  0.39996  0.46720  1.0000
  H   H1500     1.0  0.50182  0.53977  0.40711  1.0000
  S   S495      1.0  0.49539  0.63552  0.29762  1.0000
  S   S496      1.0  0.49510  0.60659  0.40091  1.0000
  C   C1501     1.0  0.49869  0.38277  0.40674  1.0000
  H   H1501     1.0  0.73214  0.53733  0.42437  1.0000
  C   C1502     1.0  0.55656  0.43574  0.47259  1.0000
  H   H1502     1.0  0.49312  0.56333  0.42824  1.0000
  H   H1503     1.0  0.49177  0.60171  0.25355  1.0000
  C   C1503     1.0  0.49121  0.37996  0.38787  1.0000
  C   C1504     1.0  0.73796  0.54914  0.43051  1.0000
  C   C1505     1.0  0.48990  0.53110  0.41838  1.0000
  Fe  Fe247     1.0  0.69841  0.57611  0.51348  1.0000
  H   H1504     1.0  0.55728  0.54569  0.93662  1.0000
  S   S497      1.0  0.68272  0.55943  0.54889  1.0000
  H   H1505     1.0  0.58989  0.48653  0.90548  1.0000
  S   S498      1.0  0.71564  0.58535  0.83514  1.0000
  Fe  Fe248     1.0  0.71350  0.57931  0.87401  1.0000
  S   S499      1.0  0.68899  0.57713  0.90037  1.0000
  C   C1506     1.0  0.68896  0.64086  0.87810  1.0000
  H   H1506     1.0  0.56565  0.50035  0.90614  1.0000
  S   S500      1.0  0.52678  0.63557  0.94642  1.0000
  H   H1507     1.0  0.67624  0.63541  0.53742  1.0000
  S   S501      1.0  0.72477  0.59493  0.50719  1.0000
  C   C1507     1.0  0.50915  0.34432  0.62411  1.0000
  Fe  Fe249     1.0  0.70161  0.50969  0.66275  1.0000
  S   S502      1.0  0.67668  0.51131  0.68345  1.0000
  S   S503      1.0  0.71701  0.52828  0.62857  1.0000
  Fe  Fe250     1.0  0.70344  0.47928  0.69943  1.0000
  S   S504      1.0  0.67818  0.47842  0.72300  1.0000
  Fe  Fe251     1.0  0.66834  0.48173  0.68973  1.0000
  S   S505      1.0  0.64086  0.47098  0.68475  1.0000
  Fe  Fe252     1.0  0.68857  0.50786  0.71487  1.0000
  S   S506      1.0  0.68545  0.52607  0.73991  1.0000
  S   S507      1.0  0.69288  0.48044  0.66679  1.0000
  S   S508      1.0  0.71425  0.50840  0.69352  1.0000
  Fe  Fe253     1.0  0.60024  0.50999  0.94871  1.0000
  C   C1508     1.0  0.58253  0.40545  0.72511  1.0000
  S   S509      1.0  0.62140  0.51437  0.91658  1.0000
  S   S510      1.0  0.53717  0.47958  0.95652  1.0000
  C   C1509     1.0  0.72279  0.65465  0.50381  1.0000
  C   C1510     1.0  0.56984  0.41370  0.72020  1.0000
  H   H1508     1.0  0.71698  0.64863  0.56309  1.0000
  S   S511      1.0  0.57582  0.51791  0.94768  1.0000
  N   N127      1.0  0.49250  0.35586  0.75016  1.0000
  Fe  Fe254     1.0  0.50690  0.40916  0.88924  1.0000
  S   S512      1.0  0.51038  0.42111  0.85118  1.0000
  S   S513      1.0  0.52898  0.41511  0.90757  1.0000
  C   C1511     1.0  0.51156  0.66249  0.93677  1.0000
  H   H1509     1.0  0.70921  0.56667  0.67014  1.0000
  Fe  Fe255     1.0  0.53904  0.35757  0.67398  1.0000
  S   S514      1.0  0.52241  0.37525  0.66457  1.0000
  Fe  Fe256     1.0  0.57126  0.38922  0.66674  1.0000
  S   S515      1.0  0.55676  0.40870  0.65632  1.0000
  S   S516      1.0  0.59914  0.39688  0.67109  1.0000
  Fe  Fe257     1.0  0.53543  0.39200  0.68654  1.0000
  S   S517      1.0  0.52151  0.40513  0.71156  1.0000
  Fe  Fe258     1.0  0.54524  0.39004  0.63533  1.0000
  S   S518      1.0  0.54441  0.39882  0.59716  1.0000
  S   S519      1.0  0.55039  0.37339  0.69812  1.0000
  S   S520      1.0  0.56140  0.37145  0.64354  1.0000
  H   H1510     1.0  0.54105  0.48829  0.88920  1.0000
  C   C1512     1.0  0.73436  0.55251  0.69894  1.0000
  C   C1513     1.0  0.52531  0.39577  0.58629  1.0000
  C   C1514     1.0  0.50892  0.38868  0.60118  1.0000
  H   H1511     1.0  0.67778  0.65370  0.56715  1.0000
  N   N128      1.0  0.64716  0.50127  0.95796  1.0000
  C   C1515     1.0  0.51193  0.39603  0.55251  1.0000
  C   C1516     1.0  0.52671  0.39963  0.56195  1.0000
  H   H1512     1.0  0.50766  0.38574  0.61992  1.0000
  C   C1517     1.0  0.68232  0.65768  0.50847  1.0000
  H   H1513     1.0  0.51320  0.39872  0.53375  1.0000
  H   H1514     1.0  0.53935  0.40512  0.55034  1.0000
  C   C1518     1.0  0.51368  0.38902  0.79123  1.0000
  C   C1519     1.0  0.52297  0.38076  0.77671  1.0000
  C   C1520     1.0  0.52607  0.38604  0.75223  1.0000
  C   C1521     1.0  0.51981  0.39960  0.74208  1.0000
  H   H1515     1.0  0.68798  0.61412  0.89339  1.0000
  Fe  Fe259     1.0  0.71398  0.61353  0.48520  1.0000
  H   H1516     1.0  0.52733  0.36985  0.78447  1.0000
  H   H1517     1.0  0.53276  0.37917  0.74137  1.0000
  H   H1518     1.0  0.66633  0.47409  0.63549  1.0000
  C   C1522     1.0  0.49414  0.38512  0.59174  1.0000
  C   C1523     1.0  0.53448  0.46072  0.94477  1.0000
  C   C1524     1.0  0.51990  0.45559  0.93553  1.0000
  C   C1525     1.0  0.51785  0.44130  0.92466  1.0000
  C   C1526     1.0  0.53035  0.43201  0.92304  1.0000
  C   C1527     1.0  0.54473  0.43688  0.93279  1.0000
  C   C1528     1.0  0.54685  0.45126  0.94355  1.0000
  H   H1519     1.0  0.51025  0.46282  0.93651  1.0000
  H   H1520     1.0  0.50672  0.43765  0.91724  1.0000
  H   H1521     1.0  0.55442  0.42970  0.93164  1.0000
  C   C1529     1.0  0.52491  0.35248  0.60826  1.0000
  C   C1530     1.0  0.63031  0.45064  0.67901  1.0000
  C   C1531     1.0  0.63707  0.43612  0.68137  1.0000
  C   C1532     1.0  0.62756  0.41991  0.67830  1.0000
  C   C1533     1.0  0.61119  0.41798  0.67287  1.0000
  C   C1534     1.0  0.60462  0.43262  0.66998  1.0000
  C   C1535     1.0  0.61414  0.44883  0.67301  1.0000
  H   H1522     1.0  0.64946  0.43726  0.68603  1.0000
  H   H1523     1.0  0.63280  0.40869  0.68052  1.0000
  H   H1524     1.0  0.59212  0.43140  0.66569  1.0000
  H   H1525     1.0  0.60880  0.45998  0.67106  1.0000
  H   H1526     1.0  0.58857  0.45452  0.72477  1.0000
  H   H1527     1.0  0.51057  0.35565  0.55800  1.0000
  C   C1536     1.0  0.71941  0.64589  0.52727  1.0000
  H   H1528     1.0  0.71612  0.63171  0.53186  1.0000
  C   C1537     1.0  0.53676  0.46099  0.86877  1.0000
  H   H1529     1.0  0.70242  0.57067  0.71546  1.0000
  H   H1530     1.0  0.60778  0.40905  0.73286  1.0000
  N   N129      1.0  0.50864  0.54001  0.93877  1.0000
  S   S521      1.0  0.73631  0.60167  0.87339  1.0000
  C   C1538     1.0  0.52024  0.65350  0.88069  1.0000
  C   C1539     1.0  0.67017  0.55991  0.90400  1.0000
  C   C1540     1.0  0.66941  0.54755  0.89004  1.0000
  C   C1541     1.0  0.65423  0.53387  0.89367  1.0000
  C   C1542     1.0  0.63980  0.53236  0.91141  1.0000
  C   C1543     1.0  0.64054  0.54476  0.92529  1.0000
  C   C1544     1.0  0.65566  0.55851  0.92152  1.0000
  H   H1531     1.0  0.68051  0.54854  0.87643  1.0000
  H   H1532     1.0  0.65373  0.52436  0.88279  1.0000
  H   H1533     1.0  0.62949  0.54377  0.93894  1.0000
  H   H1534     1.0  0.65613  0.56807  0.93231  1.0000
  C   C1545     1.0  0.71954  0.54128  0.79146  1.0000
  C   C1546     1.0  0.72318  0.52959  0.77743  1.0000
  C   C1547     1.0  0.71268  0.52448  0.76195  1.0000
  C   C1548     1.0  0.69833  0.53096  0.76041  1.0000
  C   C1549     1.0  0.69453  0.54243  0.77469  1.0000
  C   C1550     1.0  0.70509  0.54763  0.79007  1.0000
  H   H1535     1.0  0.71575  0.51563  0.75113  1.0000
  H   H1536     1.0  0.68342  0.54747  0.77370  1.0000
  H   H1537     1.0  0.70207  0.55654  0.80082  1.0000
  H   H1538     1.0  0.53760  0.36308  0.57203  1.0000
  H   H1539     1.0  0.52459  0.46341  0.87743  1.0000
  C   C1551     1.0  0.70741  0.53832  0.60747  1.0000
  C   C1552     1.0  0.71785  0.54778  0.58555  1.0000
  C   C1553     1.0  0.71054  0.55488  0.56768  1.0000
  C   C1554     1.0  0.69268  0.55261  0.57165  1.0000
  C   C1555     1.0  0.68229  0.54360  0.59381  1.0000
  C   C1556     1.0  0.68960  0.53644  0.61166  1.0000
  S   S522      1.0  0.68706  0.59549  0.49339  1.0000
  H   H1540     1.0  0.71866  0.56175  0.55070  1.0000
  H   H1541     1.0  0.66847  0.54186  0.59703  1.0000
  H   H1542     1.0  0.68144  0.52929  0.62851  1.0000
  H   H1543     1.0  0.54726  0.43498  0.72996  1.0000
  N   N130      1.0  0.57208  0.43112  0.72000  1.0000
  H   H1544     1.0  0.55402  0.43541  0.69934  1.0000
  S   S523      1.0  0.71908  0.46063  0.71045  1.0000
  H   H1545     1.0  0.51172  0.34514  0.73312  1.0000
  H   H1546     1.0  0.52319  0.45431  0.47925  1.0000
  N   N131      1.0  0.55114  0.46774  0.87940  1.0000
  C   C1557     1.0  0.55164  0.48224  0.88865  1.0000
  C   C1558     1.0  0.56437  0.45993  0.87910  1.0000
  C   C1559     1.0  0.68986  0.62384  0.87734  1.0000
  C   C1560     1.0  0.67891  0.64957  0.53212  1.0000
  C   C1561     1.0  0.49208  0.34659  0.77195  1.0000
  C   C1562     1.0  0.73668  0.65340  0.83734  1.0000
  Fe  Fe260     1.0  0.49700  0.39412  0.84812  1.0000
  C   C1563     1.0  0.51113  0.40836  0.75657  1.0000
  H   H1547     1.0  0.50026  0.62870  0.91631  1.0000
  C   C1564     1.0  0.57851  0.46656  0.88843  1.0000
  H   H1548     1.0  0.66786  0.52135  0.93423  1.0000
  C   C1565     1.0  0.56554  0.48917  0.89821  1.0000
  C   C1566     1.0  0.66131  0.52811  0.96731  1.0000
  C   C1567     1.0  0.51975  0.55649  0.93362  1.0000
  C   C1568     1.0  0.55851  0.43933  0.71476  1.0000
  S   S524      1.0  0.70509  0.56404  0.48285  1.0000
  C   C1569     1.0  0.67972  0.65981  0.54880  1.0000
  C   C1570     1.0  0.72391  0.57072  0.73178  1.0000
  H   H1549     1.0  0.58884  0.46017  0.88848  1.0000
  H   H1550     1.0  0.54607  0.57183  0.92949  1.0000
  H   H1551     1.0  0.73658  0.64305  0.85170  1.0000
  C   C1571     1.0  0.59753  0.41512  0.72998  1.0000
  C   C1572     1.0  0.50809  0.40312  0.78111  1.0000
  H   H1552     1.0  0.68242  0.64987  0.49530  1.0000
  H   H1553     1.0  0.58106  0.39182  0.72420  1.0000
  C   C1573     1.0  0.53741  0.55877  0.93261  1.0000
  C   C1574     1.0  0.69333  0.61936  0.85567  1.0000
  N   N132      1.0  0.50273  0.65016  0.88818  1.0000
  H   H1554     1.0  0.50627  0.41890  0.74884  1.0000
  H   H1555     1.0  0.53410  0.44655  0.87078  1.0000
  H   H1556     1.0  0.71459  0.54627  0.67000  1.0000
  H   H1557     1.0  0.50600  0.51244  0.94635  1.0000
  C   C1575     1.0  0.71990  0.65552  0.54495  1.0000
  C   C1576     1.0  0.69135  0.65312  0.85727  1.0000
  C   C1577     1.0  0.65955  0.51702  0.95167  1.0000
  S   S525      1.0  0.58627  0.48187  0.96553  1.0000
  H   H1558     1.0  0.53986  0.46729  0.84985  1.0000
  S   S526      1.0  0.50764  0.37995  0.82162  1.0000
  C   C1578     1.0  0.51477  0.52552  0.94223  1.0000
  C   C1579     1.0  0.71439  0.56693  0.71501  1.0000
  H   H1559     1.0  0.50863  0.36417  0.71594  1.0000
  H   H1560     1.0  0.69710  0.65794  0.81979  1.0000
  H   H1561     1.0  0.73427  0.52454  0.77846  1.0000
  H   H1562     1.0  0.50861  0.34143  0.64278  1.0000
  H   H1563     1.0  0.56313  0.45388  0.71058  1.0000
  C   C1580     1.0  0.57908  0.48130  0.89801  1.0000
  H   H1564     1.0  0.55809  0.45509  0.95070  1.0000
  H   H1565     1.0  0.49963  0.65357  0.94740  1.0000
  C   C1581     1.0  0.58664  0.44066  0.72512  1.0000
  S   S527      1.0  0.49592  0.59204  0.94748  1.0000
  C   C1582     1.0  0.69483  0.64819  0.83590  1.0000
  H   H1566     1.0  0.68727  0.62049  0.80827  1.0000
  S   S528      1.0  0.72885  0.55949  0.87314  1.0000
  C   C1583     1.0  0.64540  0.48979  0.94139  1.0000
  H   H1567     1.0  0.56382  0.44824  0.87212  1.0000
  N   N133      1.0  0.67295  0.49467  0.60478  1.0000
  C   C1584     1.0  0.69041  0.49675  0.60061  1.0000
  C   C1585     1.0  0.66567  0.50194  0.58785  1.0000
  C   C1586     1.0  0.70103  0.50598  0.57885  1.0000
  C   C1587     1.0  0.67592  0.51128  0.56589  1.0000
  C   C1588     1.0  0.69370  0.51329  0.56141  1.0000
  C   C1589     1.0  0.66223  0.48574  0.62811  1.0000
  H   H1568     1.0  0.69632  0.49178  0.61437  1.0000
  Fe  Fe261     1.0  0.50159  0.61518  0.96402  1.0000
  H   H1569     1.0  0.71493  0.50815  0.57596  1.0000
  H   H1570     1.0  0.67027  0.51768  0.55281  1.0000
  H   H1571     1.0  0.70187  0.52118  0.54483  1.0000
  C   C1590     1.0  0.49011  0.53777  0.94015  1.0000
  H   H1572     1.0  0.69393  0.60606  0.85533  1.0000
  H   H1573     1.0  0.61149  0.44062  0.73309  1.0000
  H   H1574     1.0  0.71940  0.57734  0.74504  1.0000
  C   C1591     1.0  0.69957  0.62660  0.81275  1.0000
  C   C1592     1.0  0.52676  0.65713  0.93406  1.0000
  C   C1593     1.0  0.53237  0.52733  0.94120  1.0000
  N   N134      1.0  0.69606  0.63157  0.83530  1.0000
  H   H1575     1.0  0.70763  0.61721  0.81334  1.0000
  H   H1576     1.0  0.66331  0.49488  0.64014  1.0000
  C   C1594     1.0  0.49407  0.34014  0.61572  1.0000
  Fe  Fe262     1.0  0.73280  0.56724  0.83380  1.0000
  H   H1577     1.0  0.51495  0.56798  0.93091  1.0000
  S   S529      1.0  0.73375  0.54787  0.80978  1.0000
  H   H1578     1.0  0.64837  0.48091  0.62782  1.0000
  H   H1579     1.0  0.55833  0.40622  0.71608  1.0000
  C   C1595     1.0  0.59960  0.43283  0.73010  1.0000
  H   H1580     1.0  0.70714  0.63815  0.79855  1.0000
  S   S530      1.0  0.49556  0.38173  0.88567  1.0000
  H   H1581     1.0  0.68650  0.64456  0.89479  1.0000
  C   C1596     1.0  0.54371  0.54407  0.93654  1.0000
  H   H1582     1.0  0.53708  0.51580  0.94475  1.0000
  H   H1583     1.0  0.65195  0.50094  0.59145  1.0000
  H   H1584     1.0  0.73165  0.54933  0.58221  1.0000
  H   H1585     1.0  0.50087  0.40955  0.79216  1.0000
  H   H1586     1.0  0.53665  0.35634  0.61448  1.0000
  H   H1587     1.0  0.52687  0.64399  0.88692  1.0000
  H   H1588     1.0  0.67075  0.54086  0.96186  1.0000
  C   C1597     1.0  0.49559  0.38858  0.56739  1.0000
  C   C1598     1.0  0.70939  0.55424  0.68151  1.0000
  Fe  Fe263     1.0  0.56194  0.49045  0.96744  1.0000
  C   C1599     1.0  0.52546  0.35618  0.58434  1.0000
  N   N135      1.0  0.71968  0.55795  0.69886  1.0000
  H   H1589     1.0  0.69591  0.54674  0.69056  1.0000
  C   C1600     1.0  0.49280  0.63324  0.90369  1.0000
  H   H1590     1.0  0.63153  0.48340  0.94268  1.0000
  S   S531      1.0  0.72089  0.64322  0.48104  1.0000
  N   N136      1.0  0.49466  0.34415  0.59224  1.0000
  C   C1601     1.0  0.51011  0.35199  0.57656  1.0000
  H   H1591     1.0  0.65063  0.49737  0.92299  1.0000
  H   H1592     1.0  0.65232  0.47961  0.94501  1.0000
  H   H1593     1.0  0.55403  0.66488  0.91834  1.0000
  H   H1594     1.0  0.52954  0.42549  0.48925  1.0000
  C   C1602     1.0  0.50174  0.35187  0.72921  1.0000
  H   H1595     1.0  0.49254  0.34333  0.72151  1.0000
  C   C1603     1.0  0.53983  0.43708  0.47984  1.0000
  H   H1596     1.0  0.49872  0.33639  0.77392  1.0000
  H   H1597     1.0  0.55931  0.42312  0.47646  1.0000
  Fe  Fe264     1.0  0.73055  0.58456  0.47476  1.0000
  S   S532      1.0  0.49020  0.41559  0.49356  1.0000
  H   H1598     1.0  0.49116  0.35841  0.95550  1.0000
  C   C1604     1.0  0.49441  0.66228  0.88066  1.0000
  H   H1599     1.0  0.48957  0.62320  0.89329  1.0000
  C   C1605     1.0  0.73876  0.56504  0.73221  1.0000
  H   H1600     1.0  0.73852  0.54530  0.68624  1.0000
  C   C1606     1.0  0.53628  0.45327  0.47426  1.0000
  Fe  Fe265     1.0  0.60179  0.87375  0.32799  1.0000
  S   S533      1.0  0.57928  0.88283  0.31822  1.0000
  S   S534      1.0  0.62970  0.88941  0.32508  1.0000
  Fe  Fe266     1.0  0.58055  0.83493  0.34417  1.0000
  S   S535      1.0  0.55666  0.84116  0.33556  1.0000
  S   S536      1.0  0.57884  0.80592  0.35511  1.0000
  Fe  Fe267     1.0  0.57380  0.85891  0.30261  1.0000
  S   S537      1.0  0.56821  0.85885  0.26640  1.0000
  Fe  Fe268     1.0  0.56377  0.86419  0.35203  1.0000
  S   S538      1.0  0.54135  0.86736  0.37759  1.0000
  S   S539      1.0  0.59748  0.85123  0.30984  1.0000
  S   S540      1.0  0.58647  0.85663  0.36316  1.0000
  Fe  Fe269     1.0  0.60882  0.87300  0.99433  1.0000
  S   S541      1.0  0.58658  0.88499  0.99709  1.0000
  S   S542      1.0  0.63226  0.88151  0.01046  1.0000
  Fe  Fe270     1.0  0.56946  0.85744  0.00939  1.0000
  S   S543      1.0  0.54592  0.85359  0.03823  1.0000
  S   S544      1.0  0.59159  0.84539  0.00901  1.0000
  Fe  Fe271     1.0  0.69759  0.98716  0.28735  1.0000
  S   S545      1.0  0.72130  0.98068  0.26956  1.0000
  S   S546      1.0  0.66924  0.97083  0.29913  1.0000
  C   C1607     1.0  0.72188  0.94944  0.99269  1.0000
  Fe  Fe272     1.0  0.49703  0.79940  0.21335  1.0000
  C   C1608     1.0  0.53837  0.79238  0.28197  1.0000
  C   C1609     1.0  0.56526  0.80896  0.29992  1.0000
  N   N137      1.0  0.69960  0.96239  0.98277  1.0000
  H   H1601     1.0  0.56533  0.69854  0.34358  1.0000
  S   S547      1.0  0.71173  0.95902  0.06571  1.0000
  S   S548      1.0  0.68633  0.98350  0.07800  1.0000
  Fe  Fe273     1.0  0.70908  0.97728  0.09058  1.0000
  S   S549      1.0  0.70513  0.96943  0.13054  1.0000
  Fe  Fe274     1.0  0.69037  0.96734  0.05122  1.0000
  S   S550      1.0  0.66726  0.95339  0.03756  1.0000
  C   C1610     1.0  0.49457  0.90192  0.39127  1.0000
  C   C1611     1.0  0.57155  0.85306  0.09297  1.0000
  H   H1602     1.0  0.50969  0.76579  0.12098  1.0000
  S   S551      1.0  0.59179  0.77245  0.45334  1.0000
  H   H1603     1.0  0.54109  0.90529  0.99259  1.0000
  H   H1604     1.0  0.51874  0.72585  0.19009  1.0000
  Fe  Fe275     1.0  0.52035  0.93431  0.45014  1.0000
  C   C1612     1.0  0.60305  0.85482  0.06486  1.0000
  S   S552      1.0  0.54190  0.93389  0.42073  1.0000
  H   H1605     1.0  0.68622  0.91820  0.99116  1.0000
  S   S553      1.0  0.50048  0.81696  0.17794  1.0000
  S   S554      1.0  0.50344  0.80588  0.24729  1.0000
  H   H1606     1.0  0.53257  0.93212  0.36398  1.0000
  C   C1613     1.0  0.55848  0.67608  0.43174  1.0000
  Fe  Fe276     1.0  0.50777  0.79512  0.16307  1.0000
  S   S555      1.0  0.53030  0.79689  0.13357  1.0000
  S   S556      1.0  0.50642  0.77863  0.19838  1.0000
  C   C1614     1.0  0.53644  0.79005  0.30616  1.0000
  H   H1607     1.0  0.55573  0.87492  0.07460  1.0000
  C   C1615     1.0  0.52328  0.90695  0.35563  1.0000
  H   H1608     1.0  0.58948  0.83310  0.26872  1.0000
  H   H1609     1.0  0.51778  0.67868  0.42912  1.0000
  H   H1610     1.0  0.52438  0.78206  0.31782  1.0000
  H   H1611     1.0  0.54198  0.69032  0.44721  1.0000
  C   C1616     1.0  0.71585  0.96419  0.98688  1.0000
  H   H1612     1.0  0.62981  0.77933  0.45300  1.0000
  C   C1617     1.0  0.69476  0.93109  0.98971  1.0000
  H   H1613     1.0  0.50697  0.92752  0.39594  1.0000
  H   H1614     1.0  0.52514  0.87974  0.33843  1.0000
  H   H1615     1.0  0.57467  0.89121  0.07660  1.0000
  N   N138      1.0  0.55691  0.70253  0.37749  1.0000
  C   C1618     1.0  0.71282  0.98215  0.15012  1.0000
  C   C1619     1.0  0.70445  0.97704  0.17400  1.0000
  C   C1620     1.0  0.71078  0.98596  0.19049  1.0000
  H   H1616     1.0  0.69303  0.96602  0.17983  1.0000
  H   H1617     1.0  0.70429  0.98176  0.20881  1.0000
  C   C1621     1.0  0.54119  0.83713  0.06413  1.0000
  C   C1622     1.0  0.52801  0.83688  0.08291  1.0000
  C   C1623     1.0  0.52438  0.82445  0.10417  1.0000
  C   C1624     1.0  0.53389  0.81213  0.10677  1.0000
  C   C1625     1.0  0.54690  0.81220  0.08786  1.0000
  C   C1626     1.0  0.55058  0.82468  0.06661  1.0000
  H   H1618     1.0  0.52063  0.84642  0.08111  1.0000
  H   H1619     1.0  0.51429  0.82449  0.11861  1.0000
  H   H1620     1.0  0.55428  0.80267  0.08971  1.0000
  H   H1621     1.0  0.56073  0.82471  0.05224  1.0000
  C   C1627     1.0  0.64132  0.90142  0.01873  1.0000
  C   C1628     1.0  0.63526  0.91630  0.01414  1.0000
  C   C1629     1.0  0.64316  0.93188  0.02049  1.0000
  C   C1630     1.0  0.65719  0.93288  0.03152  1.0000
  C   C1631     1.0  0.66310  0.91793  0.03640  1.0000
  C   C1632     1.0  0.65523  0.90235  0.03000  1.0000
  H   H1622     1.0  0.62462  0.91589  0.00547  1.0000
  H   H1623     1.0  0.63843  0.94333  0.01662  1.0000
  H   H1624     1.0  0.67384  0.91841  0.04490  1.0000
  C   C1633     1.0  0.49361  0.71883  0.15963  1.0000
  C   C1634     1.0  0.54291  0.88526  0.39114  1.0000
  C   C1635     1.0  0.52959  0.88447  0.41003  1.0000
  C   C1636     1.0  0.52951  0.89908  0.41996  1.0000
  C   C1637     1.0  0.54267  0.91464  0.41080  1.0000
  C   C1638     1.0  0.55620  0.91534  0.39218  1.0000
  C   C1639     1.0  0.55634  0.90066  0.38236  1.0000
  H   H1625     1.0  0.51916  0.87256  0.41682  1.0000
  H   H1626     1.0  0.51905  0.89844  0.43428  1.0000
  H   H1627     1.0  0.56631  0.92744  0.38496  1.0000
  H   H1628     1.0  0.56646  0.90143  0.36753  1.0000
  C   C1640     1.0  0.58200  0.79678  0.38279  1.0000
  C   C1641     1.0  0.58800  0.80737  0.39758  1.0000
  C   C1642     1.0  0.59084  0.79973  0.41920  1.0000
  C   C1643     1.0  0.58755  0.78144  0.42633  1.0000
  C   C1644     1.0  0.58140  0.77081  0.41166  1.0000
  C   C1645     1.0  0.57871  0.77847  0.38992  1.0000
  H   H1629     1.0  0.59062  0.82147  0.39228  1.0000
  H   H1630     1.0  0.59562  0.80803  0.43044  1.0000
  H   H1631     1.0  0.57897  0.75677  0.41697  1.0000
  H   H1632     1.0  0.57414  0.77020  0.37853  1.0000
  C   C1646     1.0  0.52090  0.82192  0.25165  1.0000
  C   C1647     1.0  0.52121  0.82401  0.27457  1.0000
  C   C1648     1.0  0.53550  0.83540  0.27933  1.0000
  C   C1649     1.0  0.54952  0.84509  0.26111  1.0000
  C   C1650     1.0  0.54900  0.84340  0.23807  1.0000
  C   C1651     1.0  0.53482  0.83179  0.23335  1.0000
  H   H1633     1.0  0.51049  0.81646  0.28883  1.0000
  H   H1634     1.0  0.53566  0.83661  0.29710  1.0000
  H   H1635     1.0  0.55974  0.85096  0.22383  1.0000
  H   H1636     1.0  0.53470  0.83038  0.21562  1.0000
  C   C1652     1.0  0.64080  0.91201  0.31395  1.0000
  C   C1653     1.0  0.65881  0.91737  0.31175  1.0000
  C   C1654     1.0  0.66795  0.93532  0.30582  1.0000
  C   C1655     1.0  0.65909  0.94815  0.30232  1.0000
  C   C1656     1.0  0.64115  0.94279  0.30385  1.0000
  C   C1657     1.0  0.63205  0.92484  0.30949  1.0000
  H   H1637     1.0  0.66570  0.90756  0.31524  1.0000
  H   H1638     1.0  0.68170  0.93921  0.30490  1.0000
  H   H1639     1.0  0.63417  0.95261  0.30120  1.0000
  H   H1640     1.0  0.61822  0.92096  0.31112  1.0000
  C   C1658     1.0  0.57981  0.83996  0.09844  1.0000
  H   H1641     1.0  0.52653  0.72123  0.39979  1.0000
  C   C1659     1.0  0.50837  0.74892  0.15407  1.0000
  C   C1660     1.0  0.55214  0.72550  0.40646  1.0000
  H   H1642     1.0  0.50817  0.86474  0.36065  1.0000
  H   H1643     1.0  0.55494  0.80545  0.24838  1.0000
  H   H1644     1.0  0.72002  0.95113  0.24065  1.0000
  C   C1661     1.0  0.72634  0.95434  0.22222  1.0000
  N   N139      1.0  0.56687  0.81158  0.27622  1.0000
  S   S557      1.0  0.57720  0.68675  0.44034  1.0000
  S   S558      1.0  0.70863  0.99082  0.02525  1.0000
  H   H1645     1.0  0.49579  0.71762  0.20324  1.0000
  S   S559      1.0  0.50430  0.95264  0.44133  1.0000
  Fe  Fe277     1.0  0.58350  0.74324  0.46943  1.0000
  C   C1662     1.0  0.50605  0.72880  0.19124  1.0000
  H   H1646     1.0  0.55018  0.73418  0.41816  1.0000
  H   H1647     1.0  0.59184  0.81482  0.25565  1.0000
  H   H1648     1.0  0.56826  0.68285  0.36733  1.0000
  H   H1649     1.0  0.66138  0.78737  0.45210  1.0000
  H   H1650     1.0  0.66002  0.89093  0.03373  1.0000
  H   H1651     1.0  0.55911  0.85210  0.10393  1.0000
  C   C1663     1.0  0.59444  0.86770  0.05992  1.0000
  C   C1664     1.0  0.58296  0.82282  0.26042  1.0000
  Fe  Fe278     1.0  0.73576  0.99726  0.29094  1.0000
  C   C1665     1.0  0.55378  0.80323  0.26716  1.0000
  H   H1652     1.0  0.54277  0.88459  0.00740  1.0000
  C   C1666     1.0  0.55000  0.79828  0.31524  1.0000
  H   H1653     1.0  0.73466  0.95098  0.99638  1.0000
  H   H1654     1.0  0.58029  0.83001  0.24434  1.0000
  H   H1655     1.0  0.52772  0.78646  0.27465  1.0000
  H   H1656     1.0  0.50948  0.84245  0.97607  1.0000
  C   C1667     1.0  0.53890  0.71828  0.39611  1.0000
  C   C1668     1.0  0.63440  0.77719  0.46908  1.0000
  H   H1657     1.0  0.57238  0.88522  0.04908  1.0000
  C   C1669     1.0  0.49613  0.88900  0.37864  1.0000
  H   H1658     1.0  0.61537  0.85569  0.05364  1.0000
  C   C1670     1.0  0.59560  0.84081  0.08416  1.0000
  H   H1659     1.0  0.60205  0.83063  0.08799  1.0000
  Fe  Fe279     1.0  0.51010  0.96276  0.47277  1.0000
  C   C1671     1.0  0.57002  0.70969  0.38739  1.0000
  C   C1672     1.0  0.56780  0.72117  0.40212  1.0000
  N   N140      1.0  0.50237  0.73231  0.16789  1.0000
  C   C1673     1.0  0.54307  0.68089  0.43649  1.0000
  H   H1660     1.0  0.58206  0.70600  0.38474  1.0000
  H   H1661     1.0  0.57800  0.72620  0.41068  1.0000
  C   C1674     1.0  0.71915  0.93947  0.16767  1.0000
  C   C1675     1.0  0.52210  0.92018  0.36783  1.0000
  N   N141      1.0  0.61755  0.91540  0.36931  1.0000
  C   C1676     1.0  0.61334  0.93100  0.36543  1.0000
  C   C1677     1.0  0.63442  0.91517  0.36783  1.0000
  C   C1678     1.0  0.62619  0.94694  0.35989  1.0000
  C   C1679     1.0  0.64758  0.93087  0.36247  1.0000
  C   C1680     1.0  0.64342  0.94684  0.35835  1.0000
  C   C1681     1.0  0.60394  0.89896  0.37359  1.0000
  H   H1662     1.0  0.60001  0.93114  0.36608  1.0000
  H   H1663     1.0  0.63788  0.90284  0.36968  1.0000
  H   H1664     1.0  0.62292  0.95930  0.35605  1.0000
  H   H1665     1.0  0.66099  0.93066  0.36029  1.0000
  H   H1666     1.0  0.65361  0.95908  0.35294  1.0000
  H   H1667     1.0  0.59965  0.89759  0.35711  1.0000
  H   H1668     1.0  0.60859  0.88733  0.37941  1.0000
  H   H1669     1.0  0.59271  0.89869  0.38736  1.0000
  H   H1670     1.0  0.57572  0.81531  0.30715  1.0000
  Fe  Fe280     1.0  0.57695  0.70535  0.46516  1.0000
  H   H1671     1.0  0.50612  0.74024  0.19942  1.0000
  H   H1672     1.0  0.53100  0.70077  0.37412  1.0000
  C   C1682     1.0  0.68906  0.94611  0.98423  1.0000
  C   C1683     1.0  0.71124  0.93280  0.99412  1.0000
  H   H1673     1.0  0.54873  0.79661  0.33403  1.0000
  H   H1674     1.0  0.53034  0.85795  0.99619  1.0000
  H   H1675     1.0  0.60039  0.87857  0.04491  1.0000
  H   H1676     1.0  0.57375  0.82904  0.11338  1.0000
  C   C1684     1.0  0.55960  0.69079  0.36173  1.0000
  H   H1677     1.0  0.54720  0.68127  0.36203  1.0000
  C   C1685     1.0  0.54153  0.70678  0.38152  1.0000
  C   C1686     1.0  0.51170  0.87777  0.34832  1.0000
  C   C1687     1.0  0.56998  0.88020  0.06830  1.0000
  N   N142      1.0  0.51045  0.89154  0.36128  1.0000
  H   H1678     1.0  0.53475  0.90888  0.34210  1.0000
  N   N143      1.0  0.57874  0.86651  0.07366  1.0000
  H   H1679     1.0  0.71568  0.92124  0.99892  1.0000
  C   C1688     1.0  0.54320  0.89255  0.98993  1.0000
  C   C1689     1.0  0.52512  0.86553  0.98368  1.0000
  S   S560      1.0  0.55946  0.72314  0.46833  1.0000
  C   C1690     1.0  0.50509  0.75250  0.13168  1.0000
  C   C1691     1.0  0.52935  0.67423  0.42625  1.0000
  H   H1680     1.0  0.72422  0.97704  0.98602  1.0000
  H   H1681     1.0  0.50302  0.87755  0.33586  1.0000
  C   C1692     1.0  0.65205  0.78174  0.46862  1.0000
  C   C1693     1.0  0.69302  0.97781  0.97776  1.0000
  H   H1682     1.0  0.51566  0.75958  0.16034  1.0000
  H   H1683     1.0  0.70526  0.93919  0.16981  1.0000
  H   H1684     1.0  0.49301  0.74154  0.10611  1.0000
  S   S561      1.0  0.60142  0.72615  0.46377  1.0000
  Fe  Fe281     1.0  0.72993  0.98335  0.04076  1.0000
  S   S562      1.0  0.51684  0.99242  0.46547  1.0000
  H   H1685     1.0  0.70755  0.93438  0.21354  1.0000
  C   C1694     1.0  0.50770  0.91758  0.38585  1.0000
  H   H1686     1.0  0.67795  0.99659  0.13397  1.0000
  H   H1687     1.0  0.68357  0.97814  0.99348  1.0000
  N   N144      1.0  0.53017  0.88348  0.97886  1.0000
  H   H1688     1.0  0.67598  0.94463  0.98175  1.0000
  C   C1695     1.0  0.49582  0.73891  0.12334  1.0000
  H   H1689     1.0  0.55627  0.89504  0.97868  1.0000
  C   C1696     1.0  0.49012  0.72192  0.13731  1.0000
  C   C1697     1.0  0.72751  0.99649  0.14286  1.0000
  C   C1698     1.0  0.71933  0.94497  0.20679  1.0000
  S   S563      1.0  0.49758  0.91288  0.47275  1.0000
  H   H1690     1.0  0.72033  0.92584  0.17141  1.0000
  H   H1691     1.0  0.72530  0.94564  0.14893  1.0000
  N   N145      1.0  0.72696  0.94939  0.18341  1.0000
  C   C1699     1.0  0.50457  0.76352  0.62086  1.0000
  H   H1692     1.0  0.54618  0.73014  0.92990  1.0000
  Fe  Fe282     1.0  0.50138  0.71373  0.66136  1.0000
  H   H1693     1.0  0.51946  0.67140  0.62826  1.0000
  S   S564      1.0  0.58109  0.90282  0.93530  1.0000
  C   C1700     1.0  0.54075  0.68093  0.59790  1.0000
  Fe  Fe283     1.0  0.55679  0.71448  0.50729  1.0000
  S   S565      1.0  0.57249  0.69519  0.50391  1.0000
  S   S566      1.0  0.53140  0.70524  0.53435  1.0000
  Fe  Fe284     1.0  0.59532  0.71744  0.50301  1.0000
  S   S567      1.0  0.61167  0.71322  0.52975  1.0000
  H   H1694     1.0  0.49468  0.77262  0.74407  1.0000
  S   S568      1.0  0.57921  0.73604  0.50869  1.0000
  Fe  Fe285     1.0  0.57334  0.76700  0.85781  1.0000
  S   S569      1.0  0.57497  0.74289  0.88160  1.0000
  S   S570      1.0  0.57766  0.79410  0.86651  1.0000
  Fe  Fe286     1.0  0.56377  0.74657  0.81991  1.0000
  S   S571      1.0  0.56514  0.72108  0.84110  1.0000
  S   S572      1.0  0.55791  0.74972  0.78347  1.0000
  Fe  Fe287     1.0  0.55105  0.72908  0.87150  1.0000
  S   S573      1.0  0.52680  0.71203  0.89718  1.0000
  Fe  Fe288     1.0  0.58915  0.73726  0.84890  1.0000
  S   S574      1.0  0.61273  0.72749  0.85226  1.0000
  S   S575      1.0  0.54817  0.75366  0.84995  1.0000
  S   S576      1.0  0.58902  0.76231  0.82553  1.0000
  Fe  Fe289     1.0  0.70973  0.74338  0.53805  1.0000
  S   S577      1.0  0.70211  0.72333  0.57202  1.0000
  S   S578      1.0  0.69201  0.74923  0.51375  1.0000
  Fe  Fe290     1.0  0.72081  0.74286  0.58500  1.0000
  S   S579      1.0  0.71525  0.75183  0.61925  1.0000
  S   S580      1.0  0.72644  0.76389  0.55201  1.0000
  C   C1701     1.0  0.53037  0.99736  0.50406  1.0000
  S   S581      1.0  0.70996  0.72294  0.77544  1.0000
  Fe  Fe291     1.0  0.70915  0.74972  0.78112  1.0000
  S   S582      1.0  0.68523  0.75955  0.77991  1.0000
  H   H1695     1.0  0.70409  0.70510  0.69368  1.0000
  Fe  Fe292     1.0  0.58548  0.88078  0.96093  1.0000
  H   H1696     1.0  0.57288  0.88681  0.86235  1.0000
  S   S583      1.0  0.52488  0.72745  0.63207  1.0000
  H   H1697     1.0  0.49763  0.90743  0.66087  1.0000
  S   S584      1.0  0.49403  0.72849  0.68865  1.0000
  C   C1702     1.0  0.73248  0.68222  0.82330  1.0000
  Fe  Fe293     1.0  0.51215  0.90781  0.86189  1.0000
  S   S585      1.0  0.52812  0.91717  0.82520  1.0000
  S   S586      1.0  0.51762  0.88627  0.88701  1.0000
  H   H1698     1.0  0.61915  0.76091  0.52745  1.0000
  H   H1699     1.0  0.60883  0.76642  0.49087  1.0000
  Fe  Fe294     1.0  0.50286  0.91552  0.81400  1.0000
  H   H1700     1.0  0.70579  0.70976  0.49950  1.0000
  Fe  Fe295     1.0  0.52788  0.94416  0.83023  1.0000
  S   S587      1.0  0.55183  0.96726  0.81705  1.0000
  S   S588      1.0  0.50119  0.90461  0.78109  1.0000
  S   S589      1.0  0.51373  0.93489  0.86779  1.0000
  H   H1701     1.0  0.73385  0.72597  0.63273  1.0000
  H   H1702     1.0  0.68964  0.68225  0.48335  1.0000
  H   H1703     1.0  0.55045  0.98778  0.89043  1.0000
  Fe  Fe296     1.0  0.73364  0.73735  0.74716  1.0000
  C   C1703     1.0  0.57026  0.92834  0.84356  1.0000
  C   C1704     1.0  0.68257  0.73529  0.68632  1.0000
  C   C1705     1.0  0.52388  0.89302  0.96273  1.0000
  C   C1706     1.0  0.72690  0.75037  0.68315  1.0000
  H   H1704     1.0  0.67678  0.75923  0.72755  1.0000
  C   C1707     1.0  0.56681  0.91012  0.84631  1.0000
  H   H1705     1.0  0.52366  0.98376  0.51206  1.0000
  C   C1708     1.0  0.49152  0.74871  0.62127  1.0000
  H   H1706     1.0  0.54113  0.96639  0.86668  1.0000
  H   H1707     1.0  0.67362  0.75854  0.68668  1.0000
  H   H1708     1.0  0.52897  0.74721  0.90059  1.0000
  C   C1709     1.0  0.72407  0.74656  0.64391  1.0000
  H   H1709     1.0  0.59021  0.78603  0.94560  1.0000
  Fe  Fe297     1.0  0.48994  0.70329  0.71469  1.0000
  C   C1710     1.0  0.72191  0.75551  0.66206  1.0000
  H   H1710     1.0  0.55690  0.90304  0.83878  1.0000
  H   H1711     1.0  0.71590  0.76618  0.66007  1.0000
  H   H1712     1.0  0.69694  0.71326  0.66834  1.0000
  H   H1713     1.0  0.57766  0.71165  0.59348  1.0000
  C   C1711     1.0  0.73673  0.68034  0.80028  1.0000
  C   C1712     1.0  0.51056  0.98352  0.84568  1.0000
  H   H1714     1.0  0.57177  0.70703  0.55481  1.0000
  Fe  Fe298     1.0  0.50342  0.92574  0.50229  1.0000
  H   H1715     1.0  0.67132  0.78237  0.48914  1.0000
  C   C1713     1.0  0.52718  0.69117  0.91173  1.0000
  C   C1714     1.0  0.54244  0.68593  0.90926  1.0000
  H   H1716     1.0  0.56304  0.93535  0.83356  1.0000
  H   H1717     1.0  0.68537  0.68594  0.55454  1.0000
  C   C1715     1.0  0.51182  0.88460  0.95144  1.0000
  H   H1718     1.0  0.55438  0.69488  0.89857  1.0000
  C   C1716     1.0  0.54069  0.73609  0.77479  1.0000
  C   C1717     1.0  0.53956  0.73939  0.75116  1.0000
  C   C1718     1.0  0.52608  0.72898  0.74352  1.0000
  C   C1719     1.0  0.51350  0.71515  0.75950  1.0000
  C   C1720     1.0  0.51458  0.71189  0.78315  1.0000
  C   C1721     1.0  0.52810  0.72226  0.79077  1.0000
  H   H1719     1.0  0.54924  0.75004  0.73866  1.0000
  H   H1720     1.0  0.52546  0.73166  0.72528  1.0000
  H   H1721     1.0  0.57552  0.95866  0.86512  1.0000
  H   H1722     1.0  0.52874  0.71961  0.80898  1.0000
  C   C1722     1.0  0.63244  0.73549  0.83104  1.0000
  C   C1723     1.0  0.63420  0.74778  0.81042  1.0000
  C   C1724     1.0  0.65041  0.75478  0.79472  1.0000
  C   C1725     1.0  0.66494  0.74949  0.79940  1.0000
  C   C1726     1.0  0.66311  0.73692  0.81977  1.0000
  C   C1727     1.0  0.64691  0.72999  0.83554  1.0000
  H   H1723     1.0  0.62314  0.75206  0.80672  1.0000
  H   H1724     1.0  0.65171  0.76446  0.77895  1.0000
  H   H1725     1.0  0.67422  0.73275  0.82355  1.0000
  H   H1726     1.0  0.64563  0.72043  0.85143  1.0000
  C   C1728     1.0  0.52928  0.71243  0.56084  1.0000
  C   C1729     1.0  0.51431  0.70447  0.57859  1.0000
  C   C1730     1.0  0.51265  0.70917  0.60040  1.0000
  C   C1731     1.0  0.52594  0.72196  0.60451  1.0000
  C   C1732     1.0  0.54072  0.73021  0.58661  1.0000
  C   C1733     1.0  0.54242  0.72544  0.56487  1.0000
  H   H1727     1.0  0.50408  0.69442  0.57556  1.0000
  C   C1734     1.0  0.68654  0.67600  0.50181  1.0000
  H   H1728     1.0  0.55101  0.74019  0.58965  1.0000
  H   H1729     1.0  0.55389  0.73182  0.55127  1.0000
  C   C1735     1.0  0.63436  0.72179  0.52425  1.0000
  C   C1736     1.0  0.64278  0.71918  0.54274  1.0000
  C   C1737     1.0  0.66063  0.72687  0.53956  1.0000
  C   C1738     1.0  0.67019  0.73726  0.51780  1.0000
  C   C1739     1.0  0.66191  0.73929  0.49907  1.0000
  C   C1740     1.0  0.64406  0.73164  0.50227  1.0000
  N   N146      1.0  0.58240  0.93720  0.85362  1.0000
  H   H1730     1.0  0.66683  0.72524  0.55413  1.0000
  C   C1741     1.0  0.56316  0.89805  0.92245  1.0000
  C   C1742     1.0  0.55523  0.88085  0.92162  1.0000
  C   C1743     1.0  0.54144  0.87746  0.91037  1.0000
  C   C1744     1.0  0.53554  0.89123  0.89978  1.0000
  C   C1745     1.0  0.54344  0.90847  0.90062  1.0000
  C   C1746     1.0  0.55719  0.91185  0.91200  1.0000
  H   H1731     1.0  0.55993  0.87017  0.92921  1.0000
  H   H1732     1.0  0.53535  0.86410  0.90980  1.0000
  H   H1733     1.0  0.53888  0.91915  0.89266  1.0000
  H   H1734     1.0  0.56330  0.92520  0.91256  1.0000
  C   C1747     1.0  0.58748  0.81196  0.93393  1.0000
  C   C1748     1.0  0.58435  0.82331  0.91552  1.0000
  C   C1749     1.0  0.58166  0.81769  0.89493  1.0000
  C   C1750     1.0  0.58186  0.80062  0.89253  1.0000
  C   C1751     1.0  0.58495  0.78922  0.91095  1.0000
  C   C1752     1.0  0.58780  0.79491  0.93146  1.0000
  H   H1735     1.0  0.58408  0.83646  0.91711  1.0000
  H   H1736     1.0  0.57929  0.82662  0.88081  1.0000
  H   H1737     1.0  0.58501  0.77602  0.90952  1.0000
  H   H1738     1.0  0.56312  0.71085  0.63408  1.0000
  C   C1753     1.0  0.68002  0.74902  0.71930  1.0000
  C   C1754     1.0  0.55073  0.97864  0.85841  1.0000
  H   H1739     1.0  0.68754  0.73656  0.74925  1.0000
  C   C1755     1.0  0.69062  0.72331  0.72079  1.0000
  C   C1756     1.0  0.67821  0.74858  0.69649  1.0000
  H   H1740     1.0  0.66554  0.76918  0.52938  1.0000
  H   H1741     1.0  0.68143  0.73519  0.66843  1.0000
  H   H1742     1.0  0.68163  0.69728  0.69258  1.0000
  H   H1743     1.0  0.51778  0.76266  0.61959  1.0000
  S   S590      1.0  0.59070  0.81821  0.96046  1.0000
  H   H1744     1.0  0.69106  0.66653  0.85756  1.0000
  H   H1745     1.0  0.49903  0.88608  0.74423  1.0000
  H   H1746     1.0  0.49484  0.74140  0.74884  1.0000
  C   C1757     1.0  0.57581  0.90099  0.85950  1.0000
  H   H1747     1.0  0.50488  0.70127  0.79566  1.0000
  C   C1758     1.0  0.72710  0.67310  0.49819  1.0000
  C   C1759     1.0  0.56544  0.69318  0.56422  1.0000
  H   H1748     1.0  0.72968  0.67033  0.85963  1.0000
  H   H1749     1.0  0.63538  0.71149  0.55978  1.0000
  H   H1750     1.0  0.66928  0.74712  0.48210  1.0000
  Fe  Fe299     1.0  0.72539  0.71474  0.55739  1.0000
  C   C1760     1.0  0.58811  0.91013  0.86978  1.0000
  H   H1751     1.0  0.49725  0.97796  0.88174  1.0000
  N   N147      1.0  0.63077  0.77190  0.86027  1.0000
  C   C1761     1.0  0.64538  0.77508  0.84313  1.0000
  C   C1762     1.0  0.61927  0.78169  0.85790  1.0000
  C   C1763     1.0  0.64845  0.78791  0.82258  1.0000
  C   C1764     1.0  0.62195  0.79466  0.83764  1.0000
  C   C1765     1.0  0.63658  0.79767  0.81980  1.0000
  C   C1766     1.0  0.62771  0.75846  0.88175  1.0000
  H   H1752     1.0  0.65452  0.76731  0.84491  1.0000
  H   H1753     1.0  0.60779  0.77936  0.87159  1.0000
  H   H1754     1.0  0.65980  0.78994  0.80874  1.0000
  H   H1755     1.0  0.61257  0.80213  0.83571  1.0000
  H   H1756     1.0  0.63864  0.80747  0.80381  1.0000
  H   H1757     1.0  0.63484  0.74850  0.87890  1.0000
  S   S591      1.0  0.72232  0.68532  0.56238  1.0000
  H   H1758     1.0  0.61380  0.75111  0.88737  1.0000
  N   N148      1.0  0.53713  0.75271  0.93130  1.0000
  C   C1767     1.0  0.53314  0.75719  0.91008  1.0000
  H   H1759     1.0  0.50323  0.97137  0.84256  1.0000
  C   C1768     1.0  0.53461  0.77472  0.90014  1.0000
  H   H1760     1.0  0.57546  0.68590  0.56410  1.0000
  C   C1769     1.0  0.72368  0.67394  0.53938  1.0000
  C   C1770     1.0  0.52161  0.68203  0.85822  1.0000
  H   H1761     1.0  0.53761  0.73196  0.95915  1.0000
  S   S592      1.0  0.73200  0.76410  0.75136  1.0000
  C   C1771     1.0  0.54264  0.76535  0.94313  1.0000
  C   C1772     1.0  0.56499  0.70264  0.60118  1.0000
  H   H1762     1.0  0.54874  0.79304  0.94300  1.0000
  H   H1763     1.0  0.53393  0.69064  0.65155  1.0000
  H   H1764     1.0  0.52323  0.72571  0.94056  1.0000
  C   C1773     1.0  0.55800  0.98233  0.83443  1.0000
  S   S593      1.0  0.73211  0.73384  0.52280  1.0000
  S   S594      1.0  0.49946  0.68925  0.68760  1.0000
  C   C1774     1.0  0.52994  0.66948  0.86564  1.0000
  H   H1765     1.0  0.50124  0.70266  0.61410  1.0000
  C   C1775     1.0  0.72752  0.68270  0.51586  1.0000
  H   H1766     1.0  0.53413  0.67294  0.58754  1.0000
  H   H1767     1.0  0.72471  0.75705  0.69723  1.0000
  S   S595      1.0  0.50354  0.90806  0.53644  1.0000
  H   H1768     1.0  0.49996  0.68352  0.92772  1.0000
  C   C1776     1.0  0.58519  0.95615  0.85144  1.0000
  C   C1777     1.0  0.54001  0.78765  0.91218  1.0000
  C   C1778     1.0  0.65165  0.76905  0.53244  1.0000
  H   H1769     1.0  0.53205  0.77831  0.88291  1.0000
  H   H1770     1.0  0.60018  0.93517  0.87573  1.0000
  H   H1771     1.0  0.64427  0.75610  0.54402  1.0000
  C   C1779     1.0  0.73208  0.73297  0.64655  1.0000
  C   C1780     1.0  0.68405  0.67809  0.54152  1.0000
  S   S596      1.0  0.49591  0.70191  0.75104  1.0000
  C   C1781     1.0  0.54397  0.78298  0.93388  1.0000
  C   C1782     1.0  0.50662  0.86632  0.95617  1.0000
  H   H1772     1.0  0.63775  0.73360  0.48784  1.0000
  H   H1773     1.0  0.54174  0.80136  0.90430  1.0000
  S   S597      1.0  0.72632  0.70085  0.82965  1.0000
  C   C1783     1.0  0.62849  0.76696  0.51102  1.0000
  H   H1774     1.0  0.49776  0.85971  0.94682  1.0000
  H   H1775     1.0  0.59469  0.90307  0.88086  1.0000
  H   H1776     1.0  0.68342  0.70950  0.50052  1.0000
  C   C1784     1.0  0.59112  0.92832  0.86686  1.0000
  C   C1785     1.0  0.50724  0.98725  0.86776  1.0000
  H   H1777     1.0  0.72986  0.68000  0.48008  1.0000
  C   C1786     1.0  0.69248  0.70511  0.51062  1.0000
  H   H1778     1.0  0.56557  0.99097  0.49039  1.0000
  H   H1779     1.0  0.49348  0.91193  0.70168  1.0000
  Fe  Fe300     1.0  0.72793  0.72368  0.80007  1.0000
  N   N149      1.0  0.55677  0.69229  0.58830  1.0000
  C   C1787     1.0  0.55694  0.70213  0.62416  1.0000
  C   C1788     1.0  0.53602  0.73428  0.94081  1.0000
  C   C1789     1.0  0.68616  0.73628  0.73155  1.0000
  H   H1780     1.0  0.52842  0.90723  0.95816  1.0000
  H   H1781     1.0  0.63175  0.76463  0.89592  1.0000
  C   C1790     1.0  0.73279  0.66887  0.84177  1.0000
  H   H1782     1.0  0.69581  0.71372  0.73029  1.0000
  H   H1783     1.0  0.52901  0.69465  0.84702  1.0000
  H   H1784     1.0  0.51055  0.79089  0.62200  1.0000
  N   N150      1.0  0.68886  0.72299  0.69841  1.0000
  S   S598      1.0  0.50412  0.94353  0.81584  1.0000
  C   C1791     1.0  0.69301  0.70892  0.68775  1.0000
  S   S599      1.0  0.72525  0.74947  0.80835  1.0000
  C   C1792     1.0  0.51179  0.67948  0.92567  1.0000
  C   C1793     1.0  0.55606  0.99079  0.87184  1.0000
  C   C1794     1.0  0.54222  0.66895  0.92045  1.0000
  H   H1785     1.0  0.69239  0.71162  0.52564  1.0000
  S   S600      1.0  0.60919  0.87069  0.95685  1.0000
  H   H1786     1.0  0.58385  0.96257  0.83397  1.0000
  H   H1787     1.0  0.59836  0.96253  0.85329  1.0000
  N   N151      1.0  0.64581  0.77151  0.51045  1.0000
  C   C1795     1.0  0.73417  0.73625  0.68622  1.0000
  N   N152      1.0  0.68739  0.68594  0.51827  1.0000
  H   H1788     1.0  0.55609  0.68768  0.55409  1.0000
  H   H1789     1.0  0.68647  0.97733  0.96294  1.0000
  H   H1790     1.0  0.50707  0.89217  0.93830  1.0000
  S   S601      1.0  0.52760  0.94572  0.48010  1.0000
  C   C1796     1.0  0.73711  0.72787  0.66761  1.0000
  H   H1791     1.0  0.64985  0.77963  0.54156  1.0000
  H   H1792     1.0  0.54389  0.67233  0.86030  1.0000
  H   H1793     1.0  0.73066  0.69687  0.51131  1.0000
  C   C1797     1.0  0.50051  0.77931  0.62216  1.0000
  C   C1798     1.0  0.62255  0.76984  0.49040  1.0000
  H   H1794     1.0  0.73666  0.69060  0.78590  1.0000
  C   C1799     1.0  0.53239  0.67998  0.62090  1.0000
  C   C1800     1.0  0.54053  0.69073  0.63402  1.0000
  H   H1795     1.0  0.70354  0.99025  0.97313  1.0000
  H   H1796     1.0  0.49809  0.88432  0.58060  1.0000
  H   H1797     1.0  0.54628  0.76195  0.95965  1.0000
  H   H1798     1.0  0.49463  0.73646  0.62000  1.0000
  Fe  Fe301     1.0  0.59006  0.84404  0.97166  1.0000
  C   C1801     1.0  0.65757  0.77894  0.48963  1.0000
  C   C1802     1.0  0.50373  0.67844  0.86572  1.0000
  C   C1803     1.0  0.52344  0.99538  0.82774  1.0000
  H   H1799     1.0  0.52646  0.99228  0.81071  1.0000
  H   H1800     1.0  0.49721  0.68824  0.86022  1.0000
  C   C1804     1.0  0.57058  0.99830  0.82402  1.0000
  S   S602      1.0  0.73851  0.72768  0.71342  1.0000
  Fe  Fe302     1.0  0.48984  0.93234  0.85337  1.0000
  S   S603      1.0  0.56650  0.85418  0.97348  1.0000
  C   C1805     1.0  0.51328  0.85668  0.97241  1.0000
  H   H1801     1.0  0.75438  0.25802  0.16998  1.0000
  S   S604      1.0  0.84405  0.02740  0.39432  1.0000
  C   C1806     1.0  0.93129  0.02185  0.35739  1.0000
  S   S605      1.0  0.86836  0.03375  0.34231  1.0000
  H   H1802     1.0  0.98117  0.03381  0.16164  1.0000
  Fe  Fe303     1.0  0.87259  0.03694  0.37790  1.0000
  S   S606      1.0  0.89327  0.06167  0.37753  1.0000
  Fe  Fe304     1.0  0.84011  0.02189  0.35930  1.0000
  S   S607      1.0  0.82096  0.03135  0.33961  1.0000
  H   H1803     1.0  0.75486  0.09548  0.27070  1.0000
  C   C1807     1.0  0.92023  0.00057  0.30390  1.0000
  H   H1804     1.0  0.76823  0.24625  0.24300  1.0000
  H   H1805     1.0  0.86768  0.03542  0.01785  1.0000
  S   S608      1.0  0.95741  0.13330  0.43880  1.0000
  H   H1806     1.0  0.86355  0.08169  0.40024  1.0000
  C   C1808     1.0  0.88638  0.10336  0.39260  1.0000
  C   C1809     1.0  0.85863  0.32760  0.43105  1.0000
  S   S609      1.0  0.87736  0.01052  0.38718  1.0000
  H   H1807     1.0  0.89122  0.22592  0.46235  1.0000
  C   C1810     1.0  0.75156  0.19614  0.44120  1.0000
  S   S610      1.0  0.91565  0.09057  0.46334  1.0000
  H   H1808     1.0  0.87231  0.31564  0.33302  1.0000
  H   H1809     1.0  0.97935  0.06424  0.01288  1.0000
  C   C1811     1.0  0.91802  0.25563  0.46915  1.0000
  S   S611      1.0  0.96001  0.04378  0.27272  1.0000
  C   C1812     1.0  0.93012  0.01148  0.00916  1.0000
  C   C1813     1.0  0.90256  0.23490  0.44911  1.0000
  Fe  Fe305     1.0  0.85179  0.26276  0.45448  1.0000
  S   S612      1.0  0.98321  0.00450  0.26895  1.0000
  S   S613      1.0  0.86776  0.28167  0.42089  1.0000
  C   C1814     1.0  0.74346  0.04755  0.37421  1.0000
  Fe  Fe306     1.0  0.75885  0.16190  0.36916  1.0000
  S   S614      1.0  0.78154  0.18082  0.37781  1.0000
  Fe  Fe307     1.0  0.98200  0.01948  0.03728  1.0000
  C   C1815     1.0  0.74794  0.13283  0.28307  1.0000
  Fe  Fe308     1.0  0.94191  0.10799  0.46381  1.0000
  H   H1810     1.0  0.94602  0.00583  0.28288  1.0000
  S   S615      1.0  0.76294  0.15169  0.33625  1.0000
  H   H1811     1.0  0.97778  0.06690  0.98293  1.0000
  C   C1816     1.0  0.76424  0.21092  0.44220  1.0000
  H   H1812     1.0  0.90152  0.03173  0.31942  1.0000
  S   S616      1.0  0.79088  0.30969  0.18827  1.0000
  C   C1817     1.0  0.77299  0.29895  0.17783  1.0000
  C   C1818     1.0  0.76024  0.30705  0.17268  1.0000
  C   C1819     1.0  0.75676  0.02632  0.36023  1.0000
  H   H1813     1.0  0.76345  0.20613  0.01740  1.0000
  H   H1814     1.0  0.74869  0.07824  0.00690  1.0000
  H   H1815     1.0  0.75349  0.14364  0.29050  1.0000
  H   H1816     1.0  0.76166  0.32059  0.17370  1.0000
  C   C1820     1.0  0.77942  0.01830  0.31026  1.0000
  C   C1821     1.0  0.86762  0.32537  0.34077  1.0000
  C   C1822     1.0  0.95638  0.04188  0.33179  1.0000
  C   C1823     1.0  0.79674  0.00062  0.33912  1.0000
  H   H1817     1.0  0.74486  0.05463  0.30645  1.0000
  H   H1818     1.0  0.76755  0.02056  0.35797  1.0000
  C   C1824     1.0  0.95004  0.05607  0.33587  1.0000
  N   N153      1.0  0.85684  0.00399  0.29665  1.0000
  C   C1825     1.0  0.75686  0.20548  0.39987  1.0000
  H   H1819     1.0  0.74927  0.19157  0.24096  1.0000
  C   C1826     1.0  0.86916  0.30412  0.41848  1.0000
  C   C1827     1.0  0.88142  0.31656  0.40011  1.0000
  Fe  Fe309     1.0  0.74094  0.16173  0.32700  1.0000
  N   N154      1.0  0.87991  0.10124  0.44060  1.0000
  Fe  Fe310     1.0  0.74246  0.12702  0.35558  1.0000
  C   C1828     1.0  0.85791  0.30970  0.43413  1.0000
  H   H1820     1.0  0.89020  0.31231  0.38800  1.0000
  C   C1829     1.0  0.92469  0.03577  0.36213  1.0000
  H   H1821     1.0  0.84842  0.30019  0.44833  1.0000
  C   C1830     1.0  0.79985  0.19652  0.44257  1.0000
  C   C1831     1.0  0.80784  0.20642  0.41991  1.0000
  C   C1832     1.0  0.80235  0.20111  0.40038  1.0000
  C   C1833     1.0  0.78870  0.18596  0.40314  1.0000
  C   C1834     1.0  0.78092  0.17587  0.42578  1.0000
  C   C1835     1.0  0.78651  0.18110  0.44531  1.0000
  H   H1822     1.0  0.81816  0.21824  0.41743  1.0000
  H   H1823     1.0  0.80858  0.20896  0.38297  1.0000
  H   H1824     1.0  0.77060  0.16406  0.42826  1.0000
  Fe  Fe311     1.0  0.87130  0.00673  0.35294  1.0000
  H   H1825     1.0  0.87654  0.05400  0.27359  1.0000
  H   H1826     1.0  0.77285  0.02523  0.29914  1.0000
  C   C1836     1.0  0.75594  0.27165  0.17063  1.0000
  H   H1827     1.0  0.88920  0.26141  0.43663  1.0000
  C   C1837     1.0  0.86882  0.09015  0.43147  1.0000
  Fe  Fe312     1.0  0.98031  0.12228  0.44081  1.0000
  C   C1838     1.0  0.93632  0.01150  0.29078  1.0000
  C   C1839     1.0  0.90093  0.06726  0.40209  1.0000
  C   C1840     1.0  0.89144  0.05968  0.42500  1.0000
  C   C1841     1.0  0.89662  0.06637  0.44380  1.0000
  C   C1842     1.0  0.91149  0.08045  0.43994  1.0000
  C   C1843     1.0  0.92150  0.08736  0.41718  1.0000
  C   C1844     1.0  0.91615  0.08089  0.39833  1.0000
  H   H1828     1.0  0.87971  0.04917  0.42814  1.0000
  H   H1829     1.0  0.77229  0.27857  0.23691  1.0000
  H   H1830     1.0  0.93292  0.09825  0.41396  1.0000
  H   H1831     1.0  0.92354  0.08691  0.38068  1.0000
  H   H1832     1.0  0.89938  0.23592  0.43159  1.0000
  C   C1845     1.0  0.79410  0.02762  0.31684  1.0000
  H   H1833     1.0  0.74523  0.19062  0.01329  1.0000
  H   H1834     1.0  0.92887  0.06379  0.35440  1.0000
  H   H1835     1.0  0.79868  0.04172  0.31069  1.0000
  C   C1846     1.0  0.74304  0.27967  0.16593  1.0000
  H   H1836     1.0  0.84534  0.04200  0.29321  1.0000
  C   C1847     1.0  0.87386  0.01041  0.28526  1.0000
  N   N155      1.0  0.90668  0.25213  0.45504  1.0000
  C   C1848     1.0  0.93973  0.02971  0.28781  1.0000
  C   C1849     1.0  0.92697  0.03694  0.29780  1.0000
  C   C1850     1.0  0.91108  0.02602  0.31137  1.0000
  S   S617      1.0  0.80528  0.20319  0.46809  1.0000
  H   H1837     1.0  0.74270  0.16844  0.41256  1.0000
  H   H1838     1.0  0.92957  0.05103  0.29553  1.0000
  H   H1839     1.0  0.74144  0.00891  0.34330  1.0000
  H   H1840     1.0  0.75862  0.07465  0.32952  1.0000
  H   H1841     1.0  0.91360  0.22900  0.44881  1.0000
  C   C1851     1.0  0.86988  0.32695  0.99237  1.0000
  C   C1852     1.0  0.75757  0.04041  0.37116  1.0000
  C   C1853     1.0  0.85529  0.31981  0.36200  1.0000
  C   C1854     1.0  0.87095  0.03994  0.27967  1.0000
  H   H1842     1.0  0.78277  0.12892  0.27667  1.0000
  S   S618      1.0  0.74643  0.17640  0.28908  1.0000
  H   H1843     1.0  0.78371  0.23416  0.42203  1.0000
  C   C1855     1.0  0.87659  0.09959  0.46602  1.0000
  H   H1844     1.0  0.91229  0.03334  0.37401  1.0000
  H   H1845     1.0  0.88199  0.00158  0.28324  1.0000
  H   H1846     1.0  0.89489  0.03349  0.26859  1.0000
  S   S619      1.0  0.74011  0.13627  0.38965  1.0000
  H   H1847     1.0  0.89470  0.28995  0.44803  1.0000
  C   C1856     1.0  0.77152  0.12008  0.29013  1.0000
  H   H1848     1.0  0.75469  0.20302  0.38312  1.0000
  H   H1849     1.0  0.88885  0.06086  0.46137  1.0000
  H   H1850     1.0  0.90912  0.12401  0.39080  1.0000
  H   H1851     1.0  0.74559  0.01608  0.15368  1.0000
  C   C1857     1.0  0.77324  0.00006  0.31822  1.0000
  N   N156      1.0  0.75559  0.11949  0.28174  1.0000
  H   H1852     1.0  0.87396  0.32315  0.97612  1.0000
  C   C1858     1.0  0.91306  0.28416  0.46823  1.0000
  S   S620      1.0  0.85433  0.23515  0.45937  1.0000
  H   H1853     1.0  0.92652  0.02301  0.01290  1.0000
  H   H1854     1.0  0.92369  0.00850  0.36560  1.0000
  C   C1859     1.0  0.87979  0.04710  0.98151  1.0000
  C   C1860     1.0  0.89839  0.26427  0.44752  1.0000
  C   C1861     1.0  0.90766  0.00781  0.31442  1.0000
  H   H1855     1.0  0.76909  0.04579  0.37714  1.0000
  C   C1862     1.0  0.80280  0.01887  0.33139  1.0000
  C   C1863     1.0  0.87190  0.09101  0.40737  1.0000
  C   C1864     1.0  0.93408  0.05296  0.35116  1.0000
  H   H1856     1.0  0.78058  0.27484  0.18044  1.0000
  S   S621      1.0  0.74818  0.10116  0.35062  1.0000
  H   H1857     1.0  0.96866  0.04443  0.31958  1.0000
  C   C1865     1.0  0.94580  0.00874  0.01311  1.0000
  H   H1858     1.0  0.95733  0.06936  0.32689  1.0000
  C   C1866     1.0  0.77082  0.28126  0.17649  1.0000
  C   C1867     1.0  0.88122  0.02847  0.27685  1.0000
  C   C1868     1.0  0.74747  0.27723  0.22850  1.0000
  C   C1869     1.0  0.76960  0.22041  0.40024  1.0000
  C   C1870     1.0  0.89414  0.11343  0.42624  1.0000
  H   H1859     1.0  0.85085  0.30604  0.37086  1.0000
  H   H1860     1.0  0.90682  0.00146  0.99810  1.0000
  S   S622      1.0  0.95954  0.02485  0.02282  1.0000
  C   C1871     1.0  0.74318  0.24139  0.23424  1.0000
  H   H1861     1.0  0.74930  0.29132  0.22544  1.0000
  C   C1872     1.0  0.84918  0.33223  0.37215  1.0000
  H   H1862     1.0  0.74240  0.21027  0.02226  1.0000
  Fe  Fe313     1.0  0.84872  0.00051  0.40088  1.0000
  H   H1863     1.0  0.77082  0.12497  0.30656  1.0000
  H   H1864     1.0  0.77861  0.23132  0.98688  1.0000
  C   C1873     1.0  0.77332  0.22309  0.42156  1.0000
  C   C1874     1.0  0.74883  0.10608  0.27179  1.0000
  C   C1875     1.0  0.74650  0.07563  0.32513  1.0000
  C   C1876     1.0  0.74539  0.29745  0.16678  1.0000
  H   H1865     1.0  0.84006  0.32821  0.38898  1.0000
  H   H1866     1.0  0.90329  0.12178  0.43353  1.0000
  S   S623      1.0  0.74246  0.02231  0.26352  1.0000
  C   C1877     1.0  0.75129  0.20489  0.01106  1.0000
  Fe  Fe314     1.0  0.98287  0.03243  0.26862  1.0000
  H   H1867     1.0  0.77709  0.22936  0.38398  1.0000
  C   C1878     1.0  0.85347  0.03323  0.29065  1.0000
  H   H1868     1.0  0.88925  0.10365  0.37401  1.0000
  C   C1879     1.0  0.90147  0.28046  0.45392  1.0000
  N   N157      1.0  0.75446  0.21407  0.98652  1.0000
  N   N158      1.0  0.94692  0.02502  0.34222  1.0000
  H   H1869     1.0  0.74424  0.05864  0.38252  1.0000
  C   C1880     1.0  0.75823  0.25198  0.23803  1.0000
  N   N159      1.0  0.74798  0.19362  0.42020  1.0000
  H   H1870     1.0  0.77358  0.10681  0.29442  1.0000
  C   C1881     1.0  0.95391  0.01036  0.33777  1.0000
  C   C1882     1.0  0.89755  0.11472  0.40203  1.0000
  S   S624      1.0  0.96429  0.09645  0.46378  1.0000
  S   S625      1.0  0.82284  0.25416  0.46608  1.0000
  C   C1883     1.0  0.76042  0.27004  0.23494  1.0000
  C   C1884     1.0  0.84658  0.01511  0.29901  1.0000
  C   C1885     1.0  0.86594  0.03758  0.00001  1.0000
  H   H1871     1.0  0.83303  0.01004  0.30776  1.0000
  C   C1886     1.0  0.88021  0.32739  0.00874  1.0000
  H   H1872     1.0  0.78032  0.17324  0.46272  1.0000
  H   H1873     1.0  0.89248  0.32421  0.00503  1.0000
  H   H1874     1.0  0.89240  0.05252  0.98481  1.0000
  H   H1875     1.0  0.85782  0.08018  0.44291  1.0000
  H   H1876     1.0  0.84963  0.33182  0.44292  1.0000
  C   C1887     1.0  0.74206  0.01973  0.35214  1.0000
  C   C1888     1.0  0.76905  0.22759  0.97678  1.0000
  H   H1877     1.0  0.74156  0.22735  0.23668  1.0000
  H   H1878     1.0  0.86392  0.10196  0.47248  1.0000
  C   C1889     1.0  0.85460  0.33197  0.99662  1.0000
  H   H1879     1.0  0.83919  0.02300  0.00979  1.0000
  Fe  Fe315     1.0  0.82551  0.22662  0.47345  1.0000
  S   S626      1.0  0.87928  0.00156  0.97659  1.0000
  H   H1880     1.0  0.76768  0.21246  0.45870  1.0000
  C   C1890     1.0  0.84984  0.03058  0.99532  1.0000
  H   H1881     1.0  0.91535  0.29654  0.47367  1.0000
  H   H1882     1.0  0.96236  0.00777  0.34997  1.0000
  H   H1883     1.0  0.84679  0.33214  0.98362  1.0000
  C   C1891     1.0  0.98701  0.06679  0.99465  1.0000
  H   H1884     1.0  0.74512  0.18638  0.45721  1.0000
  S   S627      1.0  0.98707  0.13434  0.47050  1.0000
  H   H1885     1.0  0.82015  0.02235  0.98372  1.0000
  Fe  Fe316     1.0  0.96285  0.14329  0.47096  1.0000
  H   H1886     1.0  0.96166  0.01334  0.31953  1.0000
  C   C1892     1.0  0.87494  0.33262  0.02944  1.0000
  H   H1887     1.0  0.88679  0.10902  0.47120  1.0000
  Fe  Fe317     1.0  0.96923  0.10920  0.49325  1.0000
  H   H1888     1.0  0.83926  0.29941  0.55206  1.0000
  C   C1893     1.0  0.74889  0.24448  0.61127  1.0000
  S   S628      1.0  0.94544  0.11867  0.49581  1.0000
  H   H1889     1.0  0.76227  0.23842  0.92200  1.0000
  S   S629      1.0  0.94103  0.01448  0.55714  1.0000
  C   C1894     1.0  0.77679  0.23017  0.60719  1.0000
  H   H1890     1.0  0.83047  0.29779  0.63415  1.0000
  H   H1891     1.0  0.80232  0.32808  0.56965  1.0000
  C   C1895     1.0  0.77655  0.22957  0.56610  1.0000
  H   H1892     1.0  0.86543  0.22744  0.83464  1.0000
  S   S630      1.0  0.85647  0.26627  0.48967  1.0000
  C   C1896     1.0  0.94300  0.27934  0.63768  1.0000
  H   H1893     1.0  0.76620  0.29415  0.74883  1.0000
  S   S631      1.0  0.96357  0.08177  0.93391  1.0000
  H   H1894     1.0  0.88812  0.05657  0.94409  1.0000
  S   S632      1.0  0.89711  0.03389  0.91262  1.0000
  Fe  Fe318     1.0  0.82761  0.25512  0.50211  1.0000
  S   S633      1.0  0.82853  0.22707  0.51052  1.0000
  S   S634      1.0  0.81003  0.26661  0.52514  1.0000
  H   H1895     1.0  0.78386  0.24699  0.94554  1.0000
  Fe  Fe319     1.0  0.85725  0.23814  0.49559  1.0000
  S   S635      1.0  0.87860  0.22834  0.50932  1.0000
  C   C1897     1.0  0.85262  0.22078  0.84535  1.0000
  H   H1896     1.0  0.98551  0.06831  0.55413  1.0000
  Fe  Fe320     1.0  0.86820  0.27174  0.84074  1.0000
  S   S636      1.0  0.86620  0.29885  0.82788  1.0000
  S   S637      1.0  0.88802  0.26110  0.82056  1.0000
  Fe  Fe321     1.0  0.83534  0.26253  0.87856  1.0000
  S   S638      1.0  0.83062  0.28908  0.86835  1.0000
  S   S639      1.0  0.82038  0.24106  0.91064  1.0000
  Fe  Fe322     1.0  0.83804  0.28623  0.83114  1.0000
  S   S640      1.0  0.82836  0.29776  0.79994  1.0000
  Fe  Fe323     1.0  0.85914  0.29978  0.86579  1.0000
  H   H1897     1.0  0.76849  0.28858  0.77814  1.0000
  S   S641      1.0  0.84043  0.25883  0.84163  1.0000
  S   S642      1.0  0.86351  0.27349  0.87845  1.0000
  H   H1898     1.0  0.94507  0.32241  0.86483  1.0000
  H   H1899     1.0  0.95093  0.08107  0.89130  1.0000
  Fe  Fe324     1.0  0.96252  0.26390  0.55865  1.0000
  S   S643      1.0  0.93707  0.26978  0.55378  1.0000
  S   S644      1.0  0.96583  0.23857  0.57776  1.0000
  C   C1898     1.0  0.97401  0.06266  0.54839  1.0000
  S   S645      1.0  0.96597  0.27739  0.83010  1.0000
  C   C1899     1.0  0.98791  0.25860  0.65566  1.0000
  C   C1900     1.0  0.94688  0.26710  0.65426  1.0000
  C   C1901     1.0  0.83313  0.21085  0.88252  1.0000
  Fe  Fe325     1.0  0.79206  0.27329  0.65529  1.0000
  S   S646      1.0  0.77748  0.29147  0.64126  1.0000
  S   S647      1.0  0.81082  0.26315  0.63223  1.0000
  Fe  Fe326     1.0  0.77713  0.27346  0.70594  1.0000
  S   S648      1.0  0.76105  0.29163  0.69540  1.0000
  S   S649      1.0  0.77613  0.26205  0.74403  1.0000
  C   C1902     1.0  0.94108  0.30950  0.79301  1.0000
  Fe  Fe327     1.0  0.78509  0.30673  0.66793  1.0000
  C   C1903     1.0  0.97122  0.20975  0.51048  1.0000
  S   S650      1.0  0.76915  0.25544  0.68229  1.0000
  S   S651      1.0  0.80136  0.28949  0.68010  1.0000
  H   H1900     1.0  0.81261  0.20006  0.83991  1.0000
  C   C1904     1.0  0.95887  0.02464  0.94792  1.0000
  C   C1905     1.0  0.88576  0.31852  0.91126  1.0000
  C   C1906     1.0  0.86289  0.22737  0.88010  1.0000
  C   C1907     1.0  0.83285  0.30573  0.56427  1.0000
  H   H1901     1.0  0.88379  0.30542  0.90813  1.0000
  N   N160      1.0  0.84918  0.21967  0.86899  1.0000
  C   C1908     1.0  0.80097  0.22531  0.91171  1.0000
  C   C1909     1.0  0.79394  0.21158  0.93171  1.0000
  C   C1910     1.0  0.77836  0.19890  0.93345  1.0000
  C   C1911     1.0  0.76979  0.19977  0.91506  1.0000
  C   C1912     1.0  0.77700  0.21331  0.89488  1.0000
  C   C1913     1.0  0.79250  0.22610  0.89323  1.0000
  H   H1902     1.0  0.78873  0.30922  0.79336  1.0000
  H   H1903     1.0  0.93684  0.23172  0.63026  1.0000
  H   H1904     1.0  0.77046  0.21405  0.88055  1.0000
  H   H1905     1.0  0.79785  0.23658  0.87771  1.0000
  C   C1914     1.0  0.81591  0.28541  0.78388  1.0000
  C   C1915     1.0  0.81831  0.29202  0.75973  1.0000
  C   C1916     1.0  0.80669  0.28446  0.74704  1.0000
  C   C1917     1.0  0.79246  0.27025  0.75846  1.0000
  C   C1918     1.0  0.79043  0.26319  0.78242  1.0000
  C   C1919     1.0  0.80213  0.27070  0.79510  1.0000
  H   H1906     1.0  0.82893  0.30342  0.75094  1.0000
  H   H1907     1.0  0.80845  0.28998  0.72861  1.0000
  H   H1908     1.0  0.77945  0.25220  0.79138  1.0000
  H   H1909     1.0  0.80002  0.26563  0.81374  1.0000
  C   C1920     1.0  0.90947  0.26496  0.82405  1.0000
  C   C1921     1.0  0.91421  0.27078  0.84341  1.0000
  C   C1922     1.0  0.93149  0.27381  0.84551  1.0000
  C   C1923     1.0  0.94419  0.27154  0.82799  1.0000
  C   C1924     1.0  0.93941  0.26553  0.80878  1.0000
  C   C1925     1.0  0.92205  0.26207  0.80697  1.0000
  H   H1910     1.0  0.90458  0.27290  0.85676  1.0000
  H   H1911     1.0  0.93512  0.27832  0.86051  1.0000
  H   H1912     1.0  0.94910  0.26368  0.79524  1.0000
  H   H1913     1.0  0.91841  0.25745  0.79203  1.0000
  C   C1926     1.0  0.81057  0.26562  0.55478  1.0000
  C   C1927     1.0  0.82223  0.25835  0.56497  1.0000
  C   C1928     1.0  0.82217  0.25768  0.58876  1.0000
  C   C1929     1.0  0.81045  0.26422  0.60249  1.0000
  C   C1930     1.0  0.79874  0.27142  0.59229  1.0000
  C   C1931     1.0  0.79879  0.27207  0.56853  1.0000
  H   H1914     1.0  0.83131  0.25325  0.55452  1.0000
  H   H1915     1.0  0.83125  0.25204  0.59656  1.0000
  H   H1916     1.0  0.78959  0.27639  0.60267  1.0000
  H   H1917     1.0  0.78967  0.27764  0.56074  1.0000
  C   C1932     1.0  0.92096  0.25798  0.54144  1.0000
  C   C1933     1.0  0.92149  0.24193  0.53570  1.0000
  C   C1934     1.0  0.90824  0.23290  0.52633  1.0000
  C   C1935     1.0  0.89447  0.23990  0.52222  1.0000
  C   C1936     1.0  0.89401  0.25601  0.52781  1.0000
  C   C1937     1.0  0.90713  0.26493  0.53749  1.0000
  H   H1918     1.0  0.93202  0.23640  0.53864  1.0000
  H   H1919     1.0  0.90872  0.22044  0.52209  1.0000
  H   H1920     1.0  0.88352  0.26158  0.52474  1.0000
  H   H1921     1.0  0.90657  0.27732  0.54187  1.0000
  C   C1938     1.0  0.92745  0.05993  0.90071  1.0000
  C   C1939     1.0  0.91598  0.04644  0.91858  1.0000
  C   C1940     1.0  0.91943  0.04359  0.94094  1.0000
  H   H1922     1.0  0.92485  0.06220  0.88337  1.0000
  H   H1923     1.0  0.91473  0.32453  0.87311  1.0000
  H   H1924     1.0  0.87298  0.23836  0.86750  1.0000
  S   S652      1.0  0.74997  0.18446  0.91669  1.0000
  C   C1941     1.0  0.94221  0.07067  0.90518  1.0000
  S   S653      1.0  0.95573  0.00178  0.72128  1.0000
  H   H1925     1.0  0.75012  0.24337  0.57525  1.0000
  H   H1926     1.0  0.83092  0.01232  0.96314  1.0000
  H   H1927     1.0  0.94433  0.29301  0.58706  1.0000
  S   S654      1.0  0.97785  0.27994  0.57947  1.0000
  H   H1928     1.0  0.78792  0.22488  0.60571  1.0000
  H   H1929     1.0  0.83045  0.20976  0.90131  1.0000
  C   C1942     1.0  0.93408  0.05449  0.94550  1.0000
  H   H1930     1.0  0.80694  0.19697  0.88310  1.0000
  H   H1931     1.0  0.80048  0.21084  0.94603  1.0000
  H   H1932     1.0  0.91069  0.03320  0.95485  1.0000
  C   C1943     1.0  0.94544  0.06814  0.92766  1.0000
  H   H1933     1.0  0.94391  0.14499  0.53075  1.0000
  H   H1934     1.0  0.92856  0.01402  0.91777  1.0000
  C   C1944     1.0  0.92009  0.32126  0.85695  1.0000
  C   C1945     1.0  0.96993  0.18437  0.49234  1.0000
  S   S655      1.0  0.98358  0.24606  0.63441  1.0000
  H   H1935     1.0  0.92698  0.00793  0.94847  1.0000
  H   H1936     1.0  0.85755  0.23291  0.89473  1.0000
  C   C1946     1.0  0.82296  0.20528  0.84810  1.0000
  C   C1947     1.0  0.81977  0.20358  0.87230  1.0000
  C   C1948     1.0  0.96732  0.07340  0.53339  1.0000
  C   C1949     1.0  0.95241  0.06604  0.52609  1.0000
  C   C1950     1.0  0.94421  0.04799  0.53385  1.0000
  C   C1951     1.0  0.95107  0.03719  0.54854  1.0000
  C   C1952     1.0  0.96597  0.04458  0.55583  1.0000
  N   N161      1.0  0.78574  0.31284  0.75804  1.0000
  H   H1937     1.0  0.94706  0.07427  0.51468  1.0000
  H   H1938     1.0  0.93263  0.04238  0.52825  1.0000
  C   C1953     1.0  0.87955  0.33083  0.89803  1.0000
  H   H1939     1.0  0.92410  0.24577  0.47588  1.0000
  H   H1940     1.0  0.81761  0.31446  0.54094  1.0000
  C   C1954     1.0  0.80998  0.32921  0.77015  1.0000
  C   C1955     1.0  0.95968  0.13133  0.82323  1.0000
  H   H1941     1.0  0.92175  0.28139  0.59480  1.0000
  C   C1956     1.0  0.98666  0.20826  0.51674  1.0000
  H   H1942     1.0  0.94655  0.12968  0.83261  1.0000
  S   S656      1.0  0.95482  0.02242  0.82782  1.0000
  H   H1943     1.0  0.93658  0.05240  0.96290  1.0000
  C   C1957     1.0  0.96402  0.11782  0.81371  1.0000
  H   H1944     1.0  0.96113  0.12392  0.53891  1.0000
  H   H1945     1.0  0.85975  0.04310  0.93661  1.0000
  Fe  Fe328     1.0  0.96225  0.00555  0.80309  1.0000
  H   H1946     1.0  0.94517  0.32175  0.77914  1.0000
  H   H1947     1.0  0.75849  0.30595  0.76981  1.0000
  H   H1948     1.0  0.98226  0.05577  0.88821  1.0000
  C   C1958     1.0  0.81197  0.32165  0.57420  1.0000
  N   N162      1.0  0.95189  0.02347  0.92879  1.0000
  H   H1949     1.0  0.78628  0.31869  0.72150  1.0000
  N   N163      1.0  0.93649  0.27438  0.61942  1.0000
  C   C1959     1.0  0.93426  0.25750  0.61668  1.0000
  C   C1960     1.0  0.93820  0.24498  0.63277  1.0000
  H   H1950     1.0  0.86907  0.21724  0.88695  1.0000
  N   N164      1.0  0.93372  0.31303  0.81541  1.0000
  H   H1951     1.0  0.92960  0.25366  0.60182  1.0000
  H   H1952     1.0  0.97292  0.07750  0.85285  1.0000
  H   H1953     1.0  0.94792  0.24034  0.66406  1.0000
  Fe  Fe329     1.0  0.98333  0.25518  0.59582  1.0000
  Fe  Fe330     1.0  0.75477  0.27455  0.66973  1.0000
  H   H1954     1.0  0.97924  0.14019  0.51891  1.0000
  C   C1961     1.0  0.79278  0.32170  0.73531  1.0000
  C   C1962     1.0  0.93574  0.01001  0.93107  1.0000
  H   H1955     1.0  0.98150  0.22126  0.88647  1.0000
  H   H1956     1.0  0.82323  0.31689  0.63705  1.0000
  C   C1963     1.0  0.97213  0.13550  0.53748  1.0000
  H   H1957     1.0  0.95044  0.00717  0.67451  1.0000
  S   S657      1.0  0.98226  0.01294  0.76918  1.0000
  C   C1964     1.0  0.75620  0.24111  0.63048  1.0000
  N   N165      1.0  0.84764  0.03288  0.97282  1.0000
  H   H1958     1.0  0.94536  0.29284  0.63944  1.0000
  C   C1965     1.0  0.96297  0.19793  0.49827  1.0000
  C   C1966     1.0  0.94382  0.31614  0.83117  1.0000
  H   H1959     1.0  0.97118  0.03642  0.56746  1.0000
  Fe  Fe331     1.0  0.88263  0.00816  0.93774  1.0000
  H   H1960     1.0  0.96554  0.21989  0.51526  1.0000
  S   S658      1.0  0.86916  0.32603  0.87519  1.0000
  S   S659      1.0  0.95822  0.16901  0.47860  1.0000
  C   C1967     1.0  0.98110  0.12009  0.80209  1.0000
  C   C1968     1.0  0.93286  0.28745  0.60191  1.0000
  S   S660      1.0  0.97800  0.09588  0.52354  1.0000
  H   H1961     1.0  0.76859  0.21675  0.56465  1.0000
  H   H1962     1.0  0.95268  0.04884  0.85413  1.0000
  N   N166      1.0  0.96607  0.14966  0.54565  1.0000
  C   C1969     1.0  0.83952  0.21383  0.83451  1.0000
  H   H1963     1.0  0.98441  0.10940  0.79508  1.0000
  C   C1970     1.0  0.96935  0.04284  0.82616  1.0000
  H   H1964     1.0  0.90246  0.01161  0.87818  1.0000
  C   C1971     1.0  0.91698  0.31399  0.81996  1.0000
  C   C1972     1.0  0.91399  0.01020  0.86640  1.0000
  H   H1965     1.0  0.95481  0.03331  0.89222  1.0000
  S   S661      1.0  0.97832  0.11448  0.86887  1.0000
  H   H1966     1.0  0.95170  0.18910  0.56301  1.0000
  H   H1967     1.0  0.82792  0.03384  0.95367  1.0000
  C   C1973     1.0  0.98729  0.06244  0.48421  1.0000
  C   C1974     1.0  0.98288  0.04546  0.49815  1.0000
  C   C1975     1.0  0.77025  0.23394  0.62850  1.0000
  H   H1968     1.0  0.84533  0.29784  0.59163  1.0000
  C   C1976     1.0  0.95118  0.15285  0.54069  1.0000
  C   C1977     1.0  0.90994  0.31814  0.84075  1.0000
  C   C1978     1.0  0.76886  0.29982  0.76402  1.0000
  C   C1979     1.0  0.96499  0.05325  0.84168  1.0000
  C   C1980     1.0  0.83192  0.31161  0.62538  1.0000
  C   C1981     1.0  0.94439  0.24982  0.65177  1.0000
  S   S662      1.0  0.98539  0.26896  0.52873  1.0000
  N   N167      1.0  0.82773  0.31234  0.60232  1.0000
  H   H1969     1.0  0.89983  0.31381  0.93821  1.0000
  N   N168      1.0  0.76970  0.23374  0.58829  1.0000
  H   H1970     1.0  0.77630  0.23169  0.64321  1.0000
  H   H1971     1.0  0.77297  0.18848  0.94902  1.0000
  C   C1982     1.0  0.75583  0.24065  0.59017  1.0000
  H   H1972     1.0  0.93144  0.29943  0.78793  1.0000
  H   H1973     1.0  0.97647  0.19409  0.84845  1.0000
  H   H1974     1.0  0.97033  0.03645  0.49983  1.0000
  C   C1983     1.0  0.97640  0.06953  0.84090  1.0000
  H   H1975     1.0  0.84539  0.31947  0.62352  1.0000
  H   H1976     1.0  0.90892  0.31142  0.80756  1.0000
  H   H1977     1.0  0.95221  0.27105  0.66861  1.0000
  C   C1984     1.0  0.75989  0.23185  0.94027  1.0000
  H   H1978     1.0  0.80900  0.32661  0.60880  1.0000
  C   C1985     1.0  0.79406  0.31652  0.77541  1.0000
  C   C1986     1.0  0.92147  0.27172  0.47584  1.0000
  H   H1979     1.0  0.91664  0.01959  0.84928  1.0000
  H   H1980     1.0  0.95238  0.01594  0.96468  1.0000
  H   H1981     1.0  0.93018  0.27425  0.48748  1.0000
  H   H1982     1.0  0.77668  0.23994  0.55096  1.0000
  H   H1983     1.0  0.92957  0.29827  0.60945  1.0000
  C   C1987     1.0  0.97582  0.04697  0.90505  1.0000
  H   H1984     1.0  0.98083  0.13081  0.54800  1.0000
  C   C1988     1.0  0.93712  0.32018  0.85223  1.0000
  H   H1985     1.0  0.84219  0.21532  0.81565  1.0000
  H   H1986     1.0  0.95097  0.19912  0.49371  1.0000
  C   C1989     1.0  0.86126  0.04182  0.95454  1.0000
  C   C1990     1.0  0.83620  0.30487  0.58665  1.0000
  H   H1987     1.0  0.92519  0.01391  0.87448  1.0000
  C   C1991     1.0  0.87742  0.04934  0.95864  1.0000
  C   C1992     1.0  0.83086  0.02501  0.96805  1.0000
  C   C1993     1.0  0.97240  0.14684  0.82109  1.0000
  S   S663      1.0  0.98303  0.00545  0.57863  1.0000
  H   H1988     1.0  0.75100  0.24416  0.64682  1.0000
  C   C1994     1.0  0.98510  0.04886  0.80972  1.0000
  C   C1995     1.0  0.95544  0.17771  0.55877  1.0000
  H   H1989     1.0  0.79019  0.22901  0.56457  1.0000
  H   H1990     1.0  0.89670  0.31899  0.84431  1.0000
  C   C1996     1.0  0.81577  0.32071  0.59636  1.0000
  C   C1997     1.0  0.98285  0.04846  0.92463  1.0000
  C   C1998     1.0  0.82061  0.31412  0.55807  1.0000
  C   C1999     1.0  0.98551  0.18308  0.49824  1.0000
  C   C2000     1.0  0.89485  0.32332  0.92828  1.0000
  H   H1991     1.0  0.93410  0.16966  0.54261  1.0000
  H   H1992     1.0  0.95248  0.30428  0.79407  1.0000
  C   C2001     1.0  0.74498  0.21816  0.95042  1.0000
  H   H1993     1.0  0.95434  0.10555  0.81564  1.0000
  Fe  Fe332     1.0  0.98234  0.10198  0.90353  1.0000
  C   C2002     1.0  0.77201  0.23665  0.95350  1.0000
  H   H1994     1.0  0.95702  0.31510  0.82774  1.0000
  C   C2003     1.0  0.97435  0.03720  0.94623  1.0000
  C   C2004     1.0  0.94557  0.16681  0.54734  1.0000
  C   C2005     1.0  0.96026  0.03427  0.90745  1.0000
  H   H1995     1.0  0.96926  0.15732  0.82880  1.0000
  H   H1996     1.0  0.97959  0.03823  0.96165  1.0000
  H   H1997     1.0  0.97895  0.18354  0.57113  1.0000
  H   H1998     1.0  0.97800  0.06640  0.47500  1.0000
  H   H1999     1.0  0.98874  0.28351  0.63452  1.0000
  S   S664      1.0  0.98787  0.16425  0.86568  1.0000
  H   H2000     1.0  0.81684  0.33155  0.78387  1.0000
  H   H2001     1.0  0.98859  0.04095  0.79770  1.0000
  Fe  Fe333     1.0  0.98801  0.27755  0.80081  1.0000
  H   H2002     1.0  0.98817  0.15844  0.55949  1.0000
  C   C2006     1.0  0.97074  0.17454  0.56341  1.0000
  C   C2007     1.0  0.97593  0.16041  0.55661  1.0000
  H   H2003     1.0  0.98795  0.23604  0.68121  1.0000
  H   H2004     1.0  0.87669  0.08624  0.47485  1.0000
  C   C2008     1.0  0.74239  0.20947  0.97377  1.0000
  Fe  Fe334     1.0  0.86979  0.61444  0.33157  1.0000
  S   S665      1.0  0.86655  0.58695  0.32578  1.0000
  S   S666      1.0  0.89735  0.63193  0.31593  1.0000
  Fe  Fe335     1.0  0.83124  0.60599  0.35496  1.0000
  S   S667      1.0  0.82536  0.57823  0.35039  1.0000
  S   S668      1.0  0.81011  0.61780  0.36962  1.0000
  Fe  Fe336     1.0  0.85019  0.57828  0.36231  1.0000
  S   S669      1.0  0.85071  0.55493  0.38940  1.0000
  Fe  Fe337     1.0  0.84220  0.58929  0.31416  1.0000
  S   S670      1.0  0.83826  0.58476  0.27826  1.0000
  S   S671      1.0  0.85500  0.60542  0.36920  1.0000
  S   S672      1.0  0.84641  0.61732  0.31780  1.0000
  Fe  Fe338     1.0  0.84333  0.58472  0.01015  1.0000
  S   S673      1.0  0.83521  0.60951  0.00970  1.0000
  S   S674      1.0  0.83193  0.55903  0.03699  1.0000
  S   S675      1.0  0.87231  0.64474  0.02010  1.0000
  S   S676      1.0  0.87176  0.59818  0.00254  1.0000
  C   C2009     1.0  0.95048  0.66202  0.09395  1.0000
  C   C2010     1.0  0.74440  0.54922  0.24195  1.0000
  H   H2005     1.0  0.97452  0.50787  0.42759  1.0000
  S   S677      1.0  0.91480  0.40846  0.00169  1.0000
  C   C2011     1.0  0.79234  0.60764  0.47044  1.0000
  Fe  Fe339     1.0  0.90553  0.37948  0.01644  1.0000
  S   S678      1.0  0.89765  0.36568  0.05478  1.0000
  S   S679      1.0  0.92810  0.37396  0.99435  1.0000
  Fe  Fe340     1.0  0.92027  0.53074  0.45398  1.0000
  S   S680      1.0  0.94018  0.51574  0.44807  1.0000
  S   S681      1.0  0.91955  0.55134  0.42319  1.0000
  H   H2006     1.0  0.93693  0.39109  0.03856  1.0000
  C   C2012     1.0  0.89248  0.65680  0.02459  1.0000
  N   N169      1.0  0.77706  0.62967  0.46458  1.0000
  H   H2007     1.0  0.76842  0.59199  0.36491  1.0000
  Fe  Fe341     1.0  0.89856  0.42280  0.36171  1.0000
  S   S682      1.0  0.91797  0.42256  0.33000  1.0000
  S   S683      1.0  0.89650  0.44915  0.36886  1.0000
  Fe  Fe342     1.0  0.88833  0.38300  0.37805  1.0000
  S   S684      1.0  0.90735  0.37967  0.34820  1.0000
  S   S685      1.0  0.86993  0.36207  0.40800  1.0000
  Fe  Fe343     1.0  0.92586  0.40309  0.35464  1.0000
  S   S686      1.0  0.95329  0.40422  0.35844  1.0000
  Fe  Fe344     1.0  0.89769  0.39941  0.32596  1.0000
  S   S687      1.0  0.89407  0.39592  0.28956  1.0000
  S   S688      1.0  0.90754  0.40450  0.38646  1.0000
  S   S689      1.0  0.87756  0.40144  0.35559  1.0000
  Fe  Fe345     1.0  0.79599  0.37509  0.19116  1.0000
  S   S690      1.0  0.82370  0.38703  0.19059  1.0000
  S   S691      1.0  0.77607  0.39062  0.19472  1.0000
  C   C2013     1.0  0.86794  0.35505  0.34010  1.0000
  H   H2008     1.0  0.94304  0.42874  0.02199  1.0000
  Fe  Fe346     1.0  0.82218  0.36226  0.21594  1.0000
  S   S692      1.0  0.82779  0.36233  0.25236  1.0000
  Fe  Fe347     1.0  0.82935  0.37260  0.16214  1.0000
  S   S693      1.0  0.84702  0.38991  0.12822  1.0000
  S   S694      1.0  0.79374  0.35097  0.21827  1.0000
  S   S695      1.0  0.80145  0.36210  0.16119  1.0000
  S   S696      1.0  0.88806  0.37437  0.99173  1.0000
  S   S697      1.0  0.76613  0.50080  0.16331  1.0000
  Fe  Fe348     1.0  0.78028  0.51607  0.21829  1.0000
  S   S698      1.0  0.79936  0.51890  0.18484  1.0000
  S   S699      1.0  0.78542  0.52180  0.25324  1.0000
  Fe  Fe349     1.0  0.78008  0.52773  0.16631  1.0000
  S   S700      1.0  0.78730  0.55286  0.13818  1.0000
  Fe  Fe350     1.0  0.78413  0.49168  0.18447  1.0000
  S   S701      1.0  0.80059  0.47366  0.17479  1.0000
  S   S702      1.0  0.76193  0.52686  0.19988  1.0000
  S   S703      1.0  0.76630  0.48811  0.21927  1.0000
  C   C2014     1.0  0.78312  0.41361  0.19098  1.0000
  C   C2015     1.0  0.80052  0.42271  0.18229  1.0000
  C   C2016     1.0  0.80567  0.44110  0.17809  1.0000
  C   C2017     1.0  0.79351  0.45058  0.18253  1.0000
  C   C2018     1.0  0.77614  0.44150  0.19186  1.0000
  C   C2019     1.0  0.77096  0.42305  0.19603  1.0000
  H   H2009     1.0  0.80998  0.41569  0.17810  1.0000
  H   H2010     1.0  0.81914  0.44806  0.17090  1.0000
  H   H2011     1.0  0.76667  0.44872  0.19532  1.0000
  H   H2012     1.0  0.75745  0.41609  0.20275  1.0000
  C   C2020     1.0  0.87526  0.38768  0.27921  1.0000
  C   C2021     1.0  0.87718  0.38609  0.25576  1.0000
  C   C2022     1.0  0.86278  0.37879  0.24702  1.0000
  C   C2023     1.0  0.84630  0.37269  0.26179  1.0000
  C   C2024     1.0  0.84435  0.37449  0.28514  1.0000
  C   C2025     1.0  0.85867  0.38215  0.29373  1.0000
  H   H2013     1.0  0.88993  0.39039  0.24432  1.0000
  H   H2014     1.0  0.86452  0.37748  0.22903  1.0000
  H   H2015     1.0  0.83163  0.36996  0.29667  1.0000
  H   H2016     1.0  0.85681  0.38379  0.31155  1.0000
  C   C2026     1.0  0.90845  0.46110  0.43770  1.0000
  C   C2027     1.0  0.90893  0.47473  0.41926  1.0000
  C   C2028     1.0  0.90468  0.47092  0.39842  1.0000
  C   C2029     1.0  0.90004  0.45349  0.39594  1.0000
  C   C2030     1.0  0.89901  0.43988  0.41474  1.0000
  C   C2031     1.0  0.90331  0.44369  0.43547  1.0000
  H   H2017     1.0  0.91312  0.48816  0.42085  1.0000
  H   H2018     1.0  0.90551  0.48148  0.38391  1.0000
  H   H2019     1.0  0.89486  0.42642  0.41336  1.0000
  H   H2020     1.0  0.90274  0.43309  0.44980  1.0000
  C   C2032     1.0  0.88355  0.37253  0.07500  1.0000
  C   C2033     1.0  0.87896  0.38812  0.06881  1.0000
  C   C2034     1.0  0.86771  0.39322  0.08533  1.0000
  C   C2035     1.0  0.86067  0.38261  0.10796  1.0000
  C   C2036     1.0  0.86503  0.36686  0.11401  1.0000
  C   C2037     1.0  0.87658  0.36195  0.09764  1.0000
  H   H2021     1.0  0.88416  0.39633  0.05138  1.0000
  H   H2022     1.0  0.86440  0.40542  0.08053  1.0000
  H   H2023     1.0  0.85976  0.35865  0.13144  1.0000
  H   H2024     1.0  0.75027  0.51454  0.27790  1.0000
  C   C2038     1.0  0.90579  0.64885  0.25622  1.0000
  H   H2025     1.0  0.75646  0.58873  0.98961  1.0000
  H   H2026     1.0  0.86279  0.57799  0.05714  1.0000
  H   H2027     1.0  0.86120  0.33883  0.06885  1.0000
  S   S704      1.0  0.83019  0.34854  0.18745  1.0000
  H   H2028     1.0  0.94158  0.41274  0.40448  1.0000
  H   H2029     1.0  0.75218  0.63180  0.46105  1.0000
  H   H2030     1.0  0.96795  0.39990  0.00449  1.0000
  C   C2039     1.0  0.97815  0.41203  0.00001  1.0000
  C   C2040     1.0  0.96808  0.42453  0.35703  1.0000
  H   H2031     1.0  0.76492  0.56519  0.39481  1.0000
  H   H2032     1.0  0.98444  0.41254  0.37537  1.0000
  C   C2041     1.0  0.93832  0.41896  0.41938  1.0000
  C   C2042     1.0  0.81865  0.55732  0.06455  1.0000
  C   C2043     1.0  0.81318  0.57157  0.07040  1.0000
  C   C2044     1.0  0.80314  0.56986  0.09285  1.0000
  C   C2045     1.0  0.79860  0.55397  0.10962  1.0000
  C   C2046     1.0  0.80398  0.53970  0.10371  1.0000
  C   C2047     1.0  0.81391  0.54137  0.08121  1.0000
  H   H2033     1.0  0.81686  0.58397  0.05782  1.0000
  H   H2034     1.0  0.79905  0.58096  0.09738  1.0000
  H   H2035     1.0  0.80058  0.52742  0.11653  1.0000
  H   H2036     1.0  0.81810  0.53029  0.07679  1.0000
  H   H2037     1.0  0.85123  0.35976  0.36929  1.0000
  H   H2038     1.0  0.81558  0.61135  0.44433  1.0000
  C   C2048     1.0  0.90791  0.65214  0.01866  1.0000
  H   H2039     1.0  0.94657  0.64852  0.09104  1.0000
  H   H2040     1.0  0.90796  0.64114  0.01047  1.0000
  C   C2049     1.0  0.86946  0.55552  0.40058  1.0000
  C   C2050     1.0  0.88513  0.56800  0.38957  1.0000
  C   C2051     1.0  0.90028  0.56700  0.39734  1.0000
  C   C2052     1.0  0.89986  0.55363  0.41627  1.0000
  C   C2053     1.0  0.88405  0.54156  0.42784  1.0000
  C   C2054     1.0  0.86894  0.54242  0.41988  1.0000
  H   H2041     1.0  0.88567  0.57817  0.37470  1.0000
  H   H2042     1.0  0.91244  0.57643  0.38834  1.0000
  H   H2043     1.0  0.88355  0.53124  0.44246  1.0000
  H   H2044     1.0  0.85685  0.53276  0.42853  1.0000
  C   C2055     1.0  0.79478  0.60606  0.39552  1.0000
  C   C2056     1.0  0.78082  0.61261  0.40333  1.0000
  C   C2057     1.0  0.76843  0.60363  0.42401  1.0000
  C   C2058     1.0  0.77003  0.58813  0.43714  1.0000
  C   C2059     1.0  0.78399  0.58159  0.42934  1.0000
  C   C2060     1.0  0.79629  0.59047  0.40853  1.0000
  H   H2045     1.0  0.77961  0.62468  0.39332  1.0000
  H   H2046     1.0  0.75781  0.60885  0.42987  1.0000
  H   H2047     1.0  0.78538  0.56964  0.43947  1.0000
  H   H2048     1.0  0.80706  0.58536  0.40269  1.0000
  C   C2061     1.0  0.82337  0.56717  0.27172  1.0000
  C   C2062     1.0  0.82300  0.56706  0.24816  1.0000
  C   C2063     1.0  0.81151  0.55334  0.24212  1.0000
  C   C2064     1.0  0.80025  0.53950  0.25963  1.0000
  C   C2065     1.0  0.80055  0.53966  0.28319  1.0000
  C   C2066     1.0  0.81202  0.55338  0.28922  1.0000
  H   H2049     1.0  0.83171  0.57764  0.23447  1.0000
  H   H2050     1.0  0.81145  0.55342  0.22395  1.0000
  H   H2051     1.0  0.79193  0.52903  0.29690  1.0000
  H   H2052     1.0  0.81214  0.55324  0.30740  1.0000
  N   N170      1.0  0.85974  0.33721  0.03369  1.0000
  C   C2067     1.0  0.90004  0.51763  0.39512  1.0000
  H   H2053     1.0  0.76545  0.65063  0.46807  1.0000
  C   C2068     1.0  0.74336  0.59505  0.37911  1.0000
  H   H2054     1.0  0.95928  0.39978  0.07681  1.0000
  Fe  Fe351     1.0  0.91920  0.49253  0.47005  1.0000
  C   C2069     1.0  0.88704  0.53184  0.36666  1.0000
  Fe  Fe352     1.0  0.74919  0.49918  0.19833  1.0000
  H   H2055     1.0  0.93520  0.43654  0.37880  1.0000
  H   H2056     1.0  0.91095  0.51745  0.40321  1.0000
  Fe  Fe353     1.0  0.80162  0.33882  0.18820  1.0000
  C   C2070     1.0  0.79687  0.55686  0.00352  1.0000
  C   C2071     1.0  0.97712  0.45641  0.34650  1.0000
  H   H2057     1.0  0.85833  0.53338  0.35462  1.0000
  H   H2058     1.0  0.92432  0.41353  0.42757  1.0000
  H   H2059     1.0  0.78540  0.53966  0.98307  1.0000
  H   H2060     1.0  0.95406  0.47524  0.43066  1.0000
  H   H2061     1.0  0.84046  0.33809  0.06238  1.0000
  C   C2072     1.0  0.75447  0.57145  0.39531  1.0000
  H   H2062     1.0  0.88811  0.54275  0.35241  1.0000
  N   N171      1.0  0.77884  0.57946  0.98543  1.0000
  H   H2063     1.0  0.86554  0.64896  0.28070  1.0000
  C   C2073     1.0  0.90150  0.53108  0.37600  1.0000
  H   H2064     1.0  0.87308  0.36888  0.33191  1.0000
  H   H2065     1.0  0.89160  0.34400  0.38285  1.0000
  N   N172      1.0  0.73985  0.56504  0.41285  1.0000
  H   H2066     1.0  0.84496  0.51854  0.38048  1.0000
  C   C2074     1.0  0.85550  0.34996  0.36114  1.0000
  C   C2075     1.0  0.83255  0.56813  0.13343  1.0000
  C   C2076     1.0  0.80498  0.61670  0.45032  1.0000
  H   H2067     1.0  0.85786  0.49623  0.40200  1.0000
  H   H2068     1.0  0.84606  0.62065  0.07901  1.0000
  H   H2069     1.0  0.82758  0.55415  0.13274  1.0000
  Fe  Fe354     1.0  0.93601  0.40272  0.97745  1.0000
  C   C2077     1.0  0.92543  0.66064  0.30719  1.0000
  C   C2078     1.0  0.94337  0.46315  0.38205  1.0000
  C   C2079     1.0  0.75650  0.58659  0.37826  1.0000
  C   C2080     1.0  0.96624  0.44230  0.03055  1.0000
  H   H2070     1.0  0.88007  0.34986  0.10256  1.0000
  N   N173      1.0  0.78993  0.42378  0.13209  1.0000
  C   C2081     1.0  0.80274  0.43923  0.12548  1.0000
  C   C2082     1.0  0.79387  0.40814  0.13206  1.0000
  C   C2083     1.0  0.82009  0.43922  0.11926  1.0000
  C   C2084     1.0  0.81104  0.40770  0.12560  1.0000
  C   C2085     1.0  0.82422  0.42331  0.11935  1.0000
  C   C2086     1.0  0.77181  0.42398  0.13834  1.0000
  H   H2071     1.0  0.79966  0.45164  0.12576  1.0000
  H   H2072     1.0  0.78375  0.39585  0.13751  1.0000
  H   H2073     1.0  0.83025  0.45144  0.11469  1.0000
  H   H2074     1.0  0.81416  0.39530  0.12562  1.0000
  H   H2075     1.0  0.83761  0.42299  0.11478  1.0000
  H   H2076     1.0  0.76418  0.41219  0.15217  1.0000
  H   H2077     1.0  0.77060  0.43561  0.14559  1.0000
  H   H2078     1.0  0.76614  0.42423  0.12268  1.0000
  H   H2079     1.0  0.88294  0.49460  0.41956  1.0000
  H   H2080     1.0  0.91353  0.54135  0.36927  1.0000
  H   H2081     1.0  0.81295  0.63904  0.42119  1.0000
  H   H2082     1.0  0.95110  0.48822  0.39087  1.0000
  H   H2083     1.0  0.82125  0.57195  0.14219  1.0000
  C   C2087     1.0  0.77728  0.56357  0.97942  1.0000
  C   C2088     1.0  0.93996  0.44501  0.38990  1.0000
  C   C2089     1.0  0.93435  0.39814  0.05272  1.0000
  C   C2090     1.0  0.78641  0.55211  0.98817  1.0000
  C   C2091     1.0  0.88648  0.34861  0.30772  1.0000
  C   C2092     1.0  0.95182  0.42803  0.03364  1.0000
  C   C2093     1.0  0.87931  0.65375  0.27334  1.0000
  C   C2094     1.0  0.96094  0.41183  0.06411  1.0000
  C   C2095     1.0  0.87068  0.34004  0.41248  1.0000
  H   H2084     1.0  0.85378  0.51004  0.35607  1.0000
  H   H2085     1.0  0.88466  0.62050  0.24942  1.0000
  H   H2086     1.0  0.84234  0.56914  0.14431  1.0000
  H   H2087     1.0  0.78806  0.65047  0.43423  1.0000
  C   C2096     1.0  0.87011  0.50603  0.39455  1.0000
  C   C2097     1.0  0.97552  0.42584  0.06145  1.0000
  H   H2088     1.0  0.95488  0.44036  0.33798  1.0000
  H   H2089     1.0  0.94119  0.46848  0.36513  1.0000
  C   C2098     1.0  0.87926  0.62480  0.26516  1.0000
  C   C2099     1.0  0.85645  0.52033  0.36623  1.0000
  H   H2090     1.0  0.80404  0.54816  0.01054  1.0000
  H   H2091     1.0  0.79045  0.59688  0.00504  1.0000
  C   C2100     1.0  0.98650  0.51777  0.41890  1.0000
  C   C2101     1.0  0.97811  0.44119  0.04463  1.0000
  C   C2102     1.0  0.94892  0.47418  0.39650  1.0000
  C   C2103     1.0  0.85460  0.34327  0.05501  1.0000
  C   C2104     1.0  0.88427  0.50497  0.40446  1.0000
  H   H2092     1.0  0.86151  0.60904  0.04841  1.0000
  N   N174      1.0  0.87157  0.51948  0.37609  1.0000
  N   N175      1.0  0.94233  0.43804  0.41135  1.0000
  C   C2105     1.0  0.78908  0.58421  0.00045  1.0000
  S   S705      1.0  0.91560  0.46538  0.46291  1.0000
  C   C2106     1.0  0.94730  0.44872  0.42591  1.0000
  H   H2093     1.0  0.96862  0.45382  0.01662  1.0000
  N   N176      1.0  0.79520  0.40569  0.24456  1.0000
  C   C2107     1.0  0.79840  0.42354  0.23817  1.0000
  C   C2108     1.0  0.80855  0.39817  0.24533  1.0000
  C   C2109     1.0  0.81538  0.43431  0.23154  1.0000
  C   C2110     1.0  0.82568  0.40853  0.23894  1.0000
  C   C2111     1.0  0.82909  0.42670  0.23189  1.0000
  C   C2112     1.0  0.77738  0.39451  0.25171  1.0000
  H   H2094     1.0  0.78783  0.42955  0.23761  1.0000
  H   H2095     1.0  0.80598  0.38405  0.25073  1.0000
  H   H2096     1.0  0.81785  0.44843  0.22585  1.0000
  H   H2097     1.0  0.83621  0.40242  0.23933  1.0000
  H   H2098     1.0  0.84234  0.43485  0.22669  1.0000
  H   H2099     1.0  0.76849  0.40087  0.24353  1.0000
  H   H2100     1.0  0.77645  0.38199  0.24578  1.0000
  H   H2101     1.0  0.77299  0.39154  0.27105  1.0000
  C   C2113     1.0  0.90767  0.65366  0.31744  1.0000
  C   C2114     1.0  0.96567  0.44041  0.34629  1.0000
  Fe  Fe355     1.0  0.86387  0.62338  0.99981  1.0000
  H   H2102     1.0  0.93138  0.38865  0.06983  1.0000
  N   N177      1.0  0.84011  0.57923  0.10987  1.0000
  C   C2115     1.0  0.83922  0.59625  0.10513  1.0000
  C   C2116     1.0  0.84870  0.57276  0.09303  1.0000
  C   C2117     1.0  0.84690  0.60720  0.08296  1.0000
  C   C2118     1.0  0.85650  0.58335  0.07068  1.0000
  C   C2119     1.0  0.85560  0.60068  0.06569  1.0000
  H   H2103     1.0  0.83235  0.60136  0.11845  1.0000
  H   H2104     1.0  0.84917  0.55920  0.09661  1.0000
  H   H2105     1.0  0.80616  0.57666  0.02181  1.0000
  C   C2120     1.0  0.74428  0.52179  0.26614  1.0000
  H   H2106     1.0  0.94596  0.41530  0.43222  1.0000
  N   N178      1.0  0.94922  0.41313  0.05045  1.0000
  H   H2107     1.0  0.94816  0.44318  0.44349  1.0000
  H   H2108     1.0  0.89689  0.36032  0.30785  1.0000
  H   H2109     1.0  0.93257  0.65244  0.29958  1.0000
  H   H2110     1.0  0.85813  0.35785  0.05099  1.0000
  C   C2121     1.0  0.84973  0.33717  0.01748  1.0000
  H   H2111     1.0  0.74489  0.60697  0.36624  1.0000
  H   H2112     1.0  0.88497  0.65922  0.33524  1.0000
  C   C2122     1.0  0.95077  0.46694  0.41867  1.0000
  C   C2123     1.0  0.98242  0.42480  0.36720  1.0000
  H   H2113     1.0  0.95899  0.66202  0.10663  1.0000
  H   H2114     1.0  0.97500  0.46863  0.33842  1.0000
  C   C2124     1.0  0.79813  0.57295  0.00981  1.0000
  H   H2115     1.0  0.92249  0.40251  0.05162  1.0000
  H   H2116     1.0  0.86522  0.62300  0.26592  1.0000
  H   H2117     1.0  0.98520  0.42459  0.07159  1.0000
  N   N179      1.0  0.87384  0.34283  0.33019  1.0000
  H   H2118     1.0  0.92099  0.65628  0.07959  1.0000
  H   H2119     1.0  0.91299  0.64006  0.25034  1.0000
  H   H2120     1.0  0.76300  0.54641  0.26308  1.0000
  C   C2125     1.0  0.76190  0.63607  0.47129  1.0000
  H   H2121     1.0  0.88065  0.61605  0.28095  1.0000
  C   C2126     1.0  0.92332  0.66166  0.02349  1.0000
  H   H2122     1.0  0.98153  0.53600  0.43988  1.0000
  H   H2123     1.0  0.83799  0.34139  0.02050  1.0000
  C   C2127     1.0  0.76880  0.59109  0.97672  1.0000
  H   H2124     1.0  0.93509  0.65780  0.01892  1.0000
  C   C2128     1.0  0.92108  0.66388  0.09298  1.0000
  C   C2129     1.0  0.78935  0.63859  0.44474  1.0000
  N   N180      1.0  0.88825  0.64304  0.26440  1.0000
  H   H2125     1.0  0.75020  0.56316  0.23492  1.0000
  C   C2130     1.0  0.80350  0.63227  0.43734  1.0000
  H   H2126     1.0  0.88324  0.33330  0.04184  1.0000
  H   H2127     1.0  0.75069  0.54842  0.43429  1.0000
  C   C2131     1.0  0.89861  0.66439  0.32730  1.0000
  S   S706      1.0  0.75510  0.57678  0.46359  1.0000
  H   H2128     1.0  0.88002  0.35233  0.29338  1.0000
  C   C2132     1.0  0.97825  0.42556  0.98166  1.0000
  C   C2133     1.0  0.75152  0.53988  0.25784  1.0000
  C   C2134     1.0  0.88226  0.33451  0.39719  1.0000
  H   H2129     1.0  0.89278  0.33829  0.30380  1.0000
  S   S707      1.0  0.89873  0.50696  0.47341  1.0000
  Fe  Fe356     1.0  0.89940  0.40301  0.97478  1.0000
  C   C2135     1.0  0.91477  0.66596  0.25622  1.0000
  S   S708      1.0  0.97346  0.52490  0.48802  1.0000
  S   S709      1.0  0.86434  0.62657  0.96114  1.0000
  S   S710      1.0  0.89105  0.59622  0.93718  1.0000
  C   C2136     1.0  0.93498  0.47383  0.90304  1.0000
  C   C2137     1.0  0.80216  0.43517  0.61606  1.0000
  N   N181      1.0  0.84712  0.59741  0.88888  1.0000
  H   H2130     1.0  0.81125  0.43983  0.59920  1.0000
  C   C2138     1.0  0.89754  0.34033  0.93255  1.0000
  C   C2139     1.0  0.88222  0.34780  0.90235  1.0000
  H   H2131     1.0  0.97124  0.56124  0.47869  1.0000
  C   C2140     1.0  0.78233  0.44038  0.64748  1.0000
  H   H2132     1.0  0.91755  0.46083  0.96155  1.0000
  S   S711      1.0  0.77269  0.57657  0.88990  1.0000
  H   H2133     1.0  0.93503  0.48359  0.88790  1.0000
  H   H2134     1.0  0.89794  0.53619  0.56967  1.0000
  C   C2141     1.0  0.92579  0.57041  0.93464  1.0000
  S   S712      1.0  0.75711  0.58859  0.83042  1.0000
  H   H2135     1.0  0.95812  0.47343  0.86614  1.0000
  Fe  Fe357     1.0  0.89509  0.52515  0.86301  1.0000
  S   S713      1.0  0.91341  0.54326  0.83064  1.0000
  S   S714      1.0  0.87489  0.53205  0.88829  1.0000
  Fe  Fe358     1.0  0.90769  0.49352  0.85447  1.0000
  S   S715      1.0  0.92688  0.50943  0.82197  1.0000
  S   S716      1.0  0.90795  0.46516  0.86138  1.0000
  Fe  Fe359     1.0  0.93313  0.53012  0.84251  1.0000
  S   S717      1.0  0.96122  0.53778  0.84567  1.0000
  Fe  Fe360     1.0  0.90531  0.52046  0.81336  1.0000
  S   S718      1.0  0.90002  0.52127  0.77670  1.0000
  S   S719      1.0  0.91506  0.51326  0.87581  1.0000
  S   S720      1.0  0.88580  0.50342  0.84498  1.0000
  S   S721      1.0  0.96154  0.42386  0.96613  1.0000
  H   H2136     1.0  0.87183  0.42419  0.79477  1.0000
  H   H2137     1.0  0.74221  0.49002  0.67460  1.0000
  H   H2138     1.0  0.94813  0.59278  0.92081  1.0000
  C   C2142     1.0  0.93328  0.44805  0.94157  1.0000
  S   S722      1.0  0.92109  0.39888  0.94945  1.0000
  Fe  Fe361     1.0  0.90777  0.51284  0.50562  1.0000
  H   H2139     1.0  0.77685  0.42166  0.69635  1.0000
  S   S723      1.0  0.88896  0.51303  0.53846  1.0000
  H   H2140     1.0  0.77636  0.33964  0.69591  1.0000
  H   H2141     1.0  0.75543  0.55116  0.71613  1.0000
  H   H2142     1.0  0.89298  0.36562  0.92277  1.0000
  Fe  Fe362     1.0  0.85016  0.45479  0.66479  1.0000
  S   S724      1.0  0.84651  0.43545  0.69895  1.0000
  S   S725      1.0  0.87299  0.45777  0.63514  1.0000
  Fe  Fe363     1.0  0.81684  0.46416  0.68082  1.0000
  S   S726      1.0  0.81078  0.44591  0.71587  1.0000
  S   S727      1.0  0.80000  0.48109  0.66878  1.0000
  Fe  Fe364     1.0  0.83893  0.45641  0.71589  1.0000
  S   S728      1.0  0.84491  0.46096  0.75095  1.0000
  Fe  Fe365     1.0  0.81883  0.42652  0.69612  1.0000
  S   S729      1.0  0.80038  0.39889  0.70679  1.0000
  S   S730      1.0  0.84446  0.47630  0.68195  1.0000
  S   S731      1.0  0.82306  0.44431  0.66094  1.0000
  C   C2143     1.0  0.77755  0.47517  0.68062  1.0000
  C   C2144     1.0  0.76766  0.48597  0.67227  1.0000
  H   H2143     1.0  0.74406  0.66359  0.77796  1.0000
  H   H2144     1.0  0.91386  0.50210  0.59595  1.0000
  C   C2145     1.0  0.92605  0.47426  0.92514  1.0000
  C   C2146     1.0  0.76941  0.46000  0.69812  1.0000
  H   H2145     1.0  0.77388  0.49771  0.65867  1.0000
  H   H2146     1.0  0.86261  0.60564  0.91260  1.0000
  H   H2147     1.0  0.75829  0.47037  0.74754  1.0000
  H   H2148     1.0  0.77694  0.45170  0.70485  1.0000
  C   C2147     1.0  0.87607  0.47216  0.60773  1.0000
  C   C2148     1.0  0.88836  0.47123  0.58860  1.0000
  C   C2149     1.0  0.89186  0.48314  0.56689  1.0000
  C   C2150     1.0  0.88331  0.49630  0.56428  1.0000
  C   C2151     1.0  0.87078  0.49702  0.58328  1.0000
  C   C2152     1.0  0.86712  0.48497  0.60490  1.0000
  H   H2149     1.0  0.89527  0.46129  0.59064  1.0000
  H   H2150     1.0  0.90146  0.48240  0.55238  1.0000
  H   H2151     1.0  0.86406  0.50713  0.58137  1.0000
  H   H2152     1.0  0.85763  0.48581  0.61950  1.0000
  C   C2153     1.0  0.88369  0.50525  0.76982  1.0000
  C   C2154     1.0  0.88315  0.50554  0.74622  1.0000
  C   C2155     1.0  0.87108  0.49240  0.74004  1.0000
  C   C2156     1.0  0.85929  0.47888  0.75748  1.0000
  C   C2157     1.0  0.85948  0.47890  0.78106  1.0000
  C   C2158     1.0  0.87165  0.49190  0.78720  1.0000
  H   H2153     1.0  0.89236  0.51582  0.73261  1.0000
  H   H2154     1.0  0.87115  0.49257  0.72181  1.0000
  H   H2155     1.0  0.85038  0.46858  0.79472  1.0000
  H   H2156     1.0  0.87180  0.49150  0.80540  1.0000
  C   C2159     1.0  0.89964  0.45276  0.89015  1.0000
  C   C2160     1.0  0.90278  0.43635  0.89610  1.0000
  C   C2161     1.0  0.89765  0.42675  0.91935  1.0000
  C   C2162     1.0  0.88922  0.43346  0.93672  1.0000
  C   C2163     1.0  0.88544  0.44957  0.93061  1.0000
  C   C2164     1.0  0.89077  0.45931  0.90733  1.0000
  H   H2157     1.0  0.90941  0.43111  0.88279  1.0000
  H   H2158     1.0  0.90005  0.41408  0.92376  1.0000
  H   H2159     1.0  0.87874  0.45471  0.94398  1.0000
  H   H2160     1.0  0.88816  0.47192  0.90275  1.0000
  C   C2165     1.0  0.79955  0.35303  0.66964  1.0000
  C   C2166     1.0  0.78686  0.35150  0.68955  1.0000
  C   C2167     1.0  0.78750  0.36556  0.70092  1.0000
  C   C2168     1.0  0.80073  0.38133  0.69245  1.0000
  C   C2169     1.0  0.81333  0.38294  0.67241  1.0000
  C   C2170     1.0  0.81270  0.36886  0.66107  1.0000
  C   C2171     1.0  0.95111  0.46004  0.87677  1.0000
  H   H2161     1.0  0.77756  0.36429  0.71623  1.0000
  H   H2162     1.0  0.82354  0.39502  0.66562  1.0000
  H   H2163     1.0  0.82252  0.37024  0.64558  1.0000
  H   H2164     1.0  0.96061  0.45215  0.87725  1.0000
  C   C2172     1.0  0.97204  0.57358  0.84450  1.0000
  C   C2173     1.0  0.97582  0.55734  0.84775  1.0000
  C   C2174     1.0  0.78805  0.41251  0.65090  1.0000
  H   H2165     1.0  0.95992  0.57457  0.84017  1.0000
  H   H2166     1.0  0.78623  0.39936  0.66095  1.0000
  H   H2167     1.0  0.95690  0.51045  0.53843  1.0000
  C   C2175     1.0  0.85453  0.61062  0.90118  1.0000
  C   C2176     1.0  0.94915  0.57193  0.90265  1.0000
  C   C2177     1.0  0.98822  0.54526  0.48659  1.0000
  S   S732      1.0  0.90911  0.34572  0.95410  1.0000
  C   C2178     1.0  0.94654  0.51485  0.54753  1.0000
  H   H2168     1.0  0.85953  0.43734  0.78096  1.0000
  H   H2169     1.0  0.74514  0.44377  0.72041  1.0000
  C   C2179     1.0  0.93568  0.50446  0.56847  1.0000
  H   H2170     1.0  0.96156  0.57890  0.89098  1.0000
  C   C2180     1.0  0.88613  0.57879  0.92298  1.0000
  C   C2181     1.0  0.89817  0.57797  0.90351  1.0000
  C   C2182     1.0  0.89493  0.56372  0.89259  1.0000
  C   C2183     1.0  0.87951  0.55035  0.90092  1.0000
  C   C2184     1.0  0.86730  0.55142  0.91998  1.0000
  C   C2185     1.0  0.87064  0.56550  0.93110  1.0000
  H   H2171     1.0  0.91012  0.58830  0.89698  1.0000
  H   H2172     1.0  0.90434  0.56308  0.87773  1.0000
  H   H2173     1.0  0.85533  0.54110  0.92648  1.0000
  H   H2174     1.0  0.86136  0.56584  0.94618  1.0000
  C   C2186     1.0  0.80460  0.60642  0.93466  1.0000
  C   C2187     1.0  0.79414  0.61440  0.92241  1.0000
  C   C2188     1.0  0.78417  0.60547  0.90878  1.0000
  C   C2189     1.0  0.78453  0.58838  0.90728  1.0000
  C   C2190     1.0  0.79497  0.58038  0.91960  1.0000
  C   C2191     1.0  0.80503  0.58936  0.93308  1.0000
  H   H2175     1.0  0.79366  0.62758  0.92353  1.0000
  H   H2176     1.0  0.77627  0.61183  0.89937  1.0000
  H   H2177     1.0  0.79538  0.56718  0.91851  1.0000
  H   H2178     1.0  0.81294  0.58299  0.94245  1.0000
  C   C2192     1.0  0.94213  0.44801  0.91926  1.0000
  C   C2193     1.0  0.89102  0.35250  0.91967  1.0000
  H   H2179     1.0  0.94623  0.54915  0.88763  1.0000
  N   N182      1.0  0.78444  0.48598  0.73773  1.0000
  C   C2194     1.0  0.79562  0.49661  0.71785  1.0000
  C   C2195     1.0  0.79057  0.47719  0.75479  1.0000
  C   C2196     1.0  0.81339  0.49838  0.71447  1.0000
  C   C2197     1.0  0.80829  0.47880  0.75207  1.0000
  C   C2198     1.0  0.81974  0.48947  0.73176  1.0000
  C   C2199     1.0  0.94168  0.57967  0.91952  1.0000
  H   H2180     1.0  0.79083  0.50344  0.70411  1.0000
  H   H2181     1.0  0.78174  0.46880  0.77059  1.0000
  H   H2182     1.0  0.82211  0.50632  0.69829  1.0000
  H   H2183     1.0  0.81317  0.47168  0.76547  1.0000
  C   C2200     1.0  0.79936  0.41808  0.62885  1.0000
  H   H2184     1.0  0.76594  0.58897  0.95966  1.0000
  S   S733      1.0  0.92793  0.53796  0.48635  1.0000
  H   H2185     1.0  0.94814  0.43750  0.91722  1.0000
  C   C2201     1.0  0.83204  0.59767  0.88191  1.0000
  C   C2202     1.0  0.82459  0.58493  0.87062  1.0000
  C   C2203     1.0  0.83286  0.57211  0.86606  1.0000
  H   H2186     1.0  0.82546  0.60752  0.88553  1.0000
  H   H2187     1.0  0.81231  0.58485  0.86580  1.0000
  H   H2188     1.0  0.82713  0.56205  0.85754  1.0000
  C   C2204     1.0  0.74089  0.66502  0.79583  1.0000
  H   H2189     1.0  0.79298  0.59514  0.48012  1.0000
  S   S734      1.0  0.79933  0.33580  0.65454  1.0000
  H   H2190     1.0  0.87749  0.35742  0.89218  1.0000
  Fe  Fe366     1.0  0.91107  0.37049  0.96844  1.0000
  Fe  Fe367     1.0  0.75207  0.58227  0.86990  1.0000
  C   C2205     1.0  0.84857  0.57235  0.87243  1.0000
  N   N183      1.0  0.88312  0.45165  0.78749  1.0000
  C   C2206     1.0  0.89084  0.45719  0.80454  1.0000
  C   C2207     1.0  0.88988  0.45984  0.76444  1.0000
  C   C2208     1.0  0.90526  0.47175  0.79874  1.0000
  C   C2209     1.0  0.90424  0.47453  0.75808  1.0000
  C   C2210     1.0  0.91184  0.48061  0.77542  1.0000
  C   C2211     1.0  0.86782  0.43652  0.79391  1.0000
  H   H2191     1.0  0.88572  0.45061  0.82284  1.0000
  H   H2192     1.0  0.88369  0.45553  0.75091  1.0000
  H   H2193     1.0  0.91108  0.47629  0.81235  1.0000
  H   H2194     1.0  0.90902  0.48156  0.73994  1.0000
  H   H2195     1.0  0.92252  0.49244  0.77089  1.0000
  H   H2196     1.0  0.85966  0.43612  0.81112  1.0000
  S   S735      1.0  0.81598  0.61785  0.95277  1.0000
  H   H2197     1.0  0.94103  0.45408  0.86793  1.0000
  H   H2198     1.0  0.89238  0.53615  0.94059  1.0000
  H   H2199     1.0  0.76816  0.60671  0.49232  1.0000
  C   C2212     1.0  0.85565  0.58533  0.88361  1.0000
  H   H2200     1.0  0.86270  0.62267  0.88834  1.0000
  C   C2213     1.0  0.76585  0.48437  0.74130  1.0000
  C   C2214     1.0  0.74972  0.48164  0.68125  1.0000
  C   C2215     1.0  0.90575  0.53216  0.58215  1.0000
  N   N184      1.0  0.94288  0.46083  0.90035  1.0000
  S   S736      1.0  0.92654  0.49652  0.50381  1.0000
  H   H2201     1.0  0.85522  0.56250  0.86887  1.0000
  H   H2202     1.0  0.92793  0.54846  0.54182  1.0000
  H   H2203     1.0  0.83349  0.49067  0.72933  1.0000
  H   H2204     1.0  0.77601  0.44932  0.65477  1.0000
  H   H2205     1.0  0.86798  0.58560  0.88815  1.0000
  H   H2206     1.0  0.91125  0.54349  0.58941  1.0000
  H   H2207     1.0  0.82963  0.34811  0.74270  1.0000
  C   C2216     1.0  0.94059  0.55521  0.90085  1.0000
  C   C2217     1.0  0.92234  0.51035  0.57979  1.0000
  H   H2208     1.0  0.80622  0.40932  0.62204  1.0000
  C   C2218     1.0  0.74153  0.46639  0.69859  1.0000
  H   H2209     1.0  0.79598  0.45989  0.61596  1.0000
  H   H2210     1.0  0.91805  0.53340  0.91460  1.0000
  C   C2219     1.0  0.93020  0.53620  0.54960  1.0000
  N   N185      1.0  0.77968  0.42361  0.65991  1.0000
  H   H2211     1.0  0.91927  0.48421  0.92703  1.0000
  H   H2212     1.0  0.93744  0.49184  0.57579  1.0000
  C   C2220     1.0  0.79358  0.44641  0.62540  1.0000
  S   S737      1.0  0.84253  0.58467  0.97256  1.0000
  H   H2213     1.0  0.89431  0.55299  0.95676  1.0000
  H   H2214     1.0  0.91995  0.57663  0.94750  1.0000
  C   C2221     1.0  0.92509  0.46117  0.94447  1.0000
  N   N186      1.0  0.91966  0.52597  0.57018  1.0000
  H   H2215     1.0  0.90388  0.53520  0.96400  1.0000
  C   C2222     1.0  0.90125  0.54408  0.94940  1.0000
  H   H2216     1.0  0.93244  0.43770  0.95642  1.0000
  C   C2223     1.0  0.94388  0.53088  0.53809  1.0000
  H   H2217     1.0  0.76195  0.49186  0.75436  1.0000
  H   H2218     1.0  0.89669  0.52167  0.59663  1.0000
  H   H2219     1.0  0.74582  0.56727  0.74580  1.0000
  N   N187      1.0  0.91750  0.55398  0.93280  1.0000
  Fe  Fe368     1.0  0.94613  0.52108  0.48203  1.0000
  H   H2220     1.0  0.81418  0.34153  0.71138  1.0000
  H   H2221     1.0  0.84419  0.61409  0.91277  1.0000
  C   C2224     1.0  0.76886  0.41796  0.68372  1.0000
  C   C2225     1.0  0.98409  0.58863  0.84673  1.0000
  H   H2222     1.0  0.95224  0.53901  0.52178  1.0000
  H   H2223     1.0  0.76921  0.55982  0.96744  1.0000
  Fe  Fe369     1.0  0.87026  0.60032  0.96473  1.0000
  S   S738      1.0  0.88413  0.42233  0.96624  1.0000
  C   C2226     1.0  0.92469  0.54635  0.91619  1.0000
  H   H2224     1.0  0.76221  0.48938  0.72476  1.0000
  C   C2227     1.0  0.75143  0.45556  0.70693  1.0000
  H   H2225     1.0  0.98111  0.60116  0.84414  1.0000
  H   H2226     1.0  0.75796  0.42410  0.68541  1.0000
  C   C2228     1.0  0.81724  0.33832  0.74702  1.0000
  H   H2227     1.0  0.76327  0.40348  0.68865  1.0000
  C   C2229     1.0  0.77830  0.61427  0.47724  1.0000
  S   S739      1.0  0.74497  0.63203  0.80776  1.0000
  C   C2230     1.0  0.98393  0.56115  0.48165  1.0000
  H   H2228     1.0  0.75569  0.63104  0.49022  1.0000
  C   C2231     1.0  0.80862  0.33457  0.72945  1.0000
  C   C2232     1.0  0.74406  0.55588  0.71568  1.0000
  C   C2233     1.0  0.74065  0.65140  0.81432  1.0000
  Fe  Fe370     1.0  0.83648  0.61050  0.97127  1.0000
  Fe  Fe371     1.0  0.73958  0.60630  0.83432  1.0000
  H   H2229     1.0  0.77621  0.60510  0.97360  1.0000
  S   S740      1.0  0.83910  0.98060  0.43528  1.0000
  S   S741      1.0  0.97497  0.88440  0.44457  1.0000
  H   H2230     1.0  0.80321  0.99369  0.35040  1.0000
  C   C2234     1.0  0.95784  0.90570  0.39109  1.0000
  C   C2235     1.0  0.94686  0.80612  0.03478  1.0000
  H   H2231     1.0  0.77359  0.98816  0.04560  1.0000
  C   C2236     1.0  0.93402  0.67817  0.30652  1.0000
  C   C2237     1.0  0.90575  0.67700  0.26516  1.0000
  C   C2238     1.0  0.88791  0.67088  0.27382  1.0000
  C   C2239     1.0  0.74170  0.96291  0.17484  1.0000
  Fe  Fe372     1.0  0.85251  0.98519  0.97744  1.0000
  H   H2232     1.0  0.91759  0.98649  0.30606  1.0000
  H   H2233     1.0  0.95864  0.77636  0.37514  1.0000
  C   C2240     1.0  0.91695  0.85761  0.46512  1.0000
  C   C2241     1.0  0.94058  0.78065  0.30551  1.0000
  C   C2242     1.0  0.91293  0.90476  0.42013  1.0000
  S   S742      1.0  0.98480  0.71893  0.27876  1.0000
  H   H2234     1.0  0.98775  0.74125  0.13387  1.0000
  H   H2235     1.0  0.89051  0.88243  0.43070  1.0000
  H   H2236     1.0  0.90010  0.69008  0.33442  1.0000
  S   S743      1.0  0.97577  0.75002  0.08118  1.0000
  C   C2243     1.0  0.92354  0.98448  0.99547  1.0000
  Fe  Fe373     1.0  0.96301  0.72702  0.29875  1.0000
  S   S744      1.0  0.93508  0.71118  0.31580  1.0000
  S   S745      1.0  0.96631  0.75132  0.27109  1.0000
  Fe  Fe374     1.0  0.95487  0.74876  0.06100  1.0000
  S   S746      1.0  0.96799  0.73783  0.03285  1.0000
  S   S747      1.0  0.94343  0.77209  0.05667  1.0000
  Fe  Fe375     1.0  0.96110  0.72287  0.10098  1.0000
  S   S748      1.0  0.97468  0.70987  0.07568  1.0000
  S   S749      1.0  0.95546  0.71351  0.14095  1.0000
  Fe  Fe376     1.0  0.95342  0.71110  0.05585  1.0000
  S   S750      1.0  0.86103  0.96058  0.97482  1.0000
  S   S751      1.0  0.93890  0.72216  0.08275  1.0000
  C   C2244     1.0  0.90413  0.88729  0.42218  1.0000
  C   C2245     1.0  0.85677  0.95987  0.41484  1.0000
  H   H2237     1.0  0.91822  0.94180  0.03679  1.0000
  C   C2246     1.0  0.95271  0.76954  0.36313  1.0000
  C   C2247     1.0  0.77380  0.98297  0.01131  1.0000
  C   C2248     1.0  0.81796  0.91455  0.44401  1.0000
  C   C2249     1.0  0.96876  0.72482  0.20094  1.0000
  C   C2250     1.0  0.96002  0.71761  0.18483  1.0000
  C   C2251     1.0  0.96674  0.72346  0.16050  1.0000
  C   C2252     1.0  0.92159  0.68453  0.12573  1.0000
  C   C2253     1.0  0.89282  0.67119  0.03529  1.0000
  H   H2238     1.0  0.94797  0.70744  0.19128  1.0000
  C   C2254     1.0  0.98703  0.96118  0.02512  1.0000
  H   H2239     1.0  0.86957  0.94286  0.39882  1.0000
  C   C2255     1.0  0.94803  0.75124  0.36763  1.0000
  C   C2256     1.0  0.90830  0.68086  0.03981  1.0000
  H   H2240     1.0  0.94767  0.68333  0.29857  1.0000
  H   H2241     1.0  0.90828  0.69194  0.04784  1.0000
  C   C2257     1.0  0.74907  0.97252  0.18980  1.0000
  H   H2242     1.0  0.97838  0.80504  0.97879  1.0000
  C   C2258     1.0  0.92496  0.68892  0.31632  1.0000
  S   S752      1.0  0.86779  0.91387  0.43534  1.0000
  H   H2243     1.0  0.89590  0.66756  0.09142  1.0000
  C   C2259     1.0  0.80932  0.98499  0.00837  1.0000
  C   C2260     1.0  0.91303  0.87598  0.41377  1.0000
  C   C2261     1.0  0.81525  0.88063  0.46710  1.0000
  H   H2244     1.0  0.88089  0.67914  0.28162  1.0000
  C   C2262     1.0  0.94174  0.88034  0.46712  1.0000
  C   C2263     1.0  0.90723  0.68191  0.32673  1.0000
  C   C2264     1.0  0.92369  0.67613  0.03402  1.0000
  C   C2265     1.0  0.93936  0.98179  0.99916  1.0000
  C   C2266     1.0  0.91900  0.99935  0.00053  1.0000
  C   C2267     1.0  0.96954  0.80539  0.99440  1.0000
  H   H2245     1.0  0.89639  0.68609  0.12093  1.0000
  C   C2268     1.0  0.84936  0.98502  0.30541  1.0000
  N   N188      1.0  0.94317  0.77060  0.32702  1.0000
  H   H2246     1.0  0.97249  0.93613  0.07484  1.0000
  H   H2247     1.0  0.94248  0.98015  0.07147  1.0000
  H   H2248     1.0  0.93287  0.74594  0.31904  1.0000
  H   H2249     1.0  0.83345  0.90904  0.41448  1.0000
  H   H2250     1.0  0.94588  0.77580  0.29017  1.0000
  H   H2251     1.0  0.83104  0.87863  0.43507  1.0000
  S   S753      1.0  0.94744  0.87435  0.98930  1.0000
  Fe  Fe377     1.0  0.98799  0.73724  0.05450  1.0000
  C   C2269     1.0  0.82450  0.88681  0.44384  1.0000
  H   H2252     1.0  0.97584  0.78720  0.06935  1.0000
  C   C2270     1.0  0.93833  0.75267  0.33145  1.0000
  H   H2253     1.0  0.92662  0.77940  0.30670  1.0000
  C   C2271     1.0  0.82578  0.90386  0.43224  1.0000
  C   C2272     1.0  0.94065  0.74272  0.35181  1.0000
  H   H2254     1.0  0.96499  0.95061  0.01144  1.0000
  S   S754      1.0  0.96208  0.91365  0.01712  1.0000
  S   S755      1.0  0.97975  0.74176  0.31940  1.0000
  H   H2255     1.0  0.93805  0.80644  0.05045  1.0000
  C   C2273     1.0  0.95876  0.92866  0.07727  1.0000
  C   C2274     1.0  0.98236  0.73663  0.15248  1.0000
  H   H2256     1.0  0.92217  0.69297  0.13815  1.0000
  C   C2275     1.0  0.95159  0.79058  0.03295  1.0000
  H   H2257     1.0  0.96203  0.92011  0.38394  1.0000
  S   S756      1.0  0.83165  0.98713  0.00712  1.0000
  H   H2258     1.0  0.77738  0.97722  0.33888  1.0000
  H   H2259     1.0  0.92114  0.97054  0.04800  1.0000
  C   C2276     1.0  0.92389  0.87234  0.47339  1.0000
  H   H2260     1.0  0.85091  0.92678  0.47345  1.0000
  C   C2277     1.0  0.95273  0.87379  0.45232  1.0000
  C   C2278     1.0  0.94584  0.85902  0.44406  1.0000
  C   C2279     1.0  0.92799  0.85082  0.45070  1.0000
  C   C2280     1.0  0.96529  0.82110  0.99656  1.0000
  H   H2261     1.0  0.95430  0.85375  0.43293  1.0000
  H   H2262     1.0  0.92268  0.83932  0.44442  1.0000
  C   C2281     1.0  0.84804  0.96264  0.43565  1.0000
  H   H2263     1.0  0.94712  0.68173  0.12548  1.0000
  C   C2282     1.0  0.90684  0.67026  0.09959  1.0000
  N   N189      1.0  0.94873  0.94030  0.06854  1.0000
  C   C2283     1.0  0.93715  0.93500  0.05537  1.0000
  C   C2284     1.0  0.95065  0.95626  0.07440  1.0000
  H   H2264     1.0  0.97440  0.80914  0.06350  1.0000
  C   C2285     1.0  0.94077  0.96737  0.06710  1.0000
  C   C2286     1.0  0.74127  0.96824  0.21360  1.0000
  C   C2287     1.0  0.80176  0.98161  0.98968  1.0000
  H   H2265     1.0  0.93583  0.92248  0.05034  1.0000
  H   H2266     1.0  0.95994  0.96050  0.08467  1.0000
  H   H2267     1.0  0.95390  0.79329  0.33923  1.0000
  S   S757      1.0  0.88766  0.99393  0.33088  1.0000
  H   H2268     1.0  0.93709  0.72848  0.35497  1.0000
  C   C2288     1.0  0.78412  0.98065  0.99116  1.0000
  H   H2269     1.0  0.76031  0.98372  0.18286  1.0000
  H   H2270     1.0  0.85839  0.96899  0.39843  1.0000
  H   H2271     1.0  0.91372  0.85107  0.98418  1.0000
  H   H2272     1.0  0.96142  0.89952  0.37628  1.0000
  H   H2273     1.0  0.95042  0.83339  0.01865  1.0000
  H   H2274     1.0  0.95806  0.67096  0.07705  1.0000
  S   S758      1.0  0.90966  0.96918  0.98458  1.0000
  H   H2275     1.0  0.96653  0.77834  0.01092  1.0000
  Fe  Fe378     1.0  0.98476  0.76538  0.29025  1.0000
  C   C2289     1.0  0.92881  0.96199  0.05390  1.0000
  C   C2290     1.0  0.98377  0.80107  0.06331  1.0000
  H   H2276     1.0  0.95876  0.91797  0.06763  1.0000
  C   C2291     1.0  0.96290  0.79025  0.01261  1.0000
  C   C2292     1.0  0.93071  0.88230  0.40349  1.0000
  H   H2277     1.0  0.91268  0.69002  0.26624  1.0000
  H   H2278     1.0  0.90606  0.91358  0.42679  1.0000
  C   C2293     1.0  0.93062  0.91066  0.40976  1.0000
  H   H2279     1.0  0.95024  0.74367  0.38322  1.0000
  H   H2280     1.0  0.94763  0.79478  0.30210  1.0000
  C   C2294     1.0  0.90522  0.84067  0.97809  1.0000
  H   H2281     1.0  0.90639  0.86221  0.41617  1.0000
  C   C2295     1.0  0.95377  0.82138  0.01673  1.0000
  N   N190      1.0  0.93922  0.89950  0.40133  1.0000
  S   S759      1.0  0.98153  0.99897  0.06839  1.0000
  C   C2296     1.0  0.95001  0.77906  0.34273  1.0000
  H   H2282     1.0  0.88104  0.67501  0.03990  1.0000
  S   S760      1.0  0.94342  0.68686  0.04100  1.0000
  H   H2283     1.0  0.96266  0.99177  0.01090  1.0000
  C   C2297     1.0  0.85263  0.93599  0.45712  1.0000
  H   H2284     1.0  0.89894  0.82925  0.99297  1.0000
  H   H2285     1.0  0.93744  0.92417  0.40860  1.0000
  H   H2286     1.0  0.94300  0.97033  0.99520  1.0000
  H   H2287     1.0  0.94339  0.99824  0.33975  1.0000
  C   C2298     1.0  0.78135  0.98634  0.03001  1.0000
  S   S761      1.0  0.89447  0.84803  0.47156  1.0000
  S   S762      1.0  0.75167  0.98168  0.01196  1.0000
  H   H2288     1.0  0.80473  0.99000  0.04304  1.0000
  H   H2289     1.0  0.98485  0.97406  0.02373  1.0000
  C   C2299     1.0  0.92711  0.94582  0.04771  1.0000
  N   N191      1.0  0.93527  0.66787  0.10237  1.0000
  C   C2300     1.0  0.86312  0.94506  0.41509  1.0000
  H   H2290     1.0  0.95329  0.92267  0.09614  1.0000
  H   H2291     1.0  0.96510  0.90242  0.40463  1.0000
  H   H2292     1.0  0.96342  0.72017  0.21955  1.0000
  H   H2293     1.0  0.81947  0.92806  0.43537  1.0000
  H   H2294     1.0  0.84463  0.97909  0.29143  1.0000
  C   C2301     1.0  0.86097  0.93303  0.43616  1.0000
  C   C2302     1.0  0.84605  0.95071  0.45682  1.0000
  Fe  Fe379     1.0  0.96646  0.90015  0.98715  1.0000
  H   H2295     1.0  0.85909  0.97866  0.31129  1.0000
  H   H2296     1.0  0.93767  0.87327  0.39774  1.0000
  C   C2303     1.0  0.95047  0.99387  0.00812  1.0000
  H   H2297     1.0  0.74752  0.96674  0.15624  1.0000
  C   C2304     1.0  0.78205  0.99131  0.33259  1.0000
  C   C2305     1.0  0.98448  0.73787  0.19290  1.0000
  C   C2306     1.0  0.79902  0.98738  0.02849  1.0000
  Fe  Fe380     1.0  0.86387  0.89432  0.46913  1.0000
  S   S763      1.0  0.98449  0.79303  0.29448  1.0000
  H   H2298     1.0  0.98619  0.82778  0.30120  1.0000
  C   C2307     1.0  0.90714  0.68068  0.11605  1.0000
  H   H2299     1.0  0.92873  0.67040  0.25031  1.0000
  S   S764      1.0  0.75440  0.98765  0.31132  1.0000
  H   H2300     1.0  0.74651  0.97606  0.22517  1.0000
  H   H2301     1.0  0.77841  0.97802  0.97660  1.0000
  C   C2308     1.0  0.93570  0.67813  0.11847  1.0000
  S   S765      1.0  0.98136  0.86984  0.38294  1.0000
  C   C2309     1.0  0.97591  0.94795  0.01796  1.0000
  C   C2310     1.0  0.97846  0.93112  0.02011  1.0000
  S   S766      1.0  0.85513  0.86552  0.47036  1.0000
  C   C2311     1.0  0.80903  0.90803  0.46738  1.0000
  S   S767      1.0  0.97576  0.84024  0.97439  1.0000
  H   H2302     1.0  0.83846  0.98212  0.32087  1.0000
  S   S768      1.0  0.84284  0.99441  0.36719  1.0000
  H   H2303     1.0  0.83935  0.95285  0.47297  1.0000
  H   H2304     1.0  0.94706  0.89162  0.47382  1.0000
  Fe  Fe381     1.0  0.98886  0.74393  0.25204  1.0000
  Fe  Fe382     1.0  0.87065  0.88844  0.51806  1.0000
  C   C2312     1.0  0.79843  0.88455  0.50311  1.0000
  S   S769      1.0  0.87753  0.90401  0.54496  1.0000
  Fe  Fe383     1.0  0.84053  0.86263  0.50707  1.0000
  H   H2305     1.0  0.93290  0.96176  0.85507  1.0000
  S   S770      1.0  0.81209  0.84791  0.52212  1.0000
  Fe  Fe384     1.0  0.95194  0.96683  0.80158  1.0000
  C   C2313     1.0  0.92463  0.98464  0.86093  1.0000
  H   H2306     1.0  0.89425  0.90412  0.86872  1.0000
  C   C2314     1.0  0.97127  0.97720  0.65971  1.0000
  S   S771      1.0  0.86263  0.85896  0.52360  1.0000
  S   S772      1.0  0.84738  0.89189  0.50435  1.0000
  S   S773      1.0  0.91812  0.88501  0.94855  1.0000
  Fe  Fe385     1.0  0.96366  0.96236  0.55895  1.0000
  C   C2315     1.0  0.81331  0.79524  0.56279  1.0000
  S   S774      1.0  0.95625  0.94000  0.54098  1.0000
  Fe  Fe386     1.0  0.97475  0.97748  0.59939  1.0000
  S   S775      1.0  0.94909  0.97034  0.58907  1.0000
  S   S776      1.0  0.97089  0.98238  0.81824  1.0000
  H   H2307     1.0  0.77726  0.69842  0.79613  1.0000
  S   S777      1.0  0.93716  0.93955  0.82158  1.0000
  C   C2316     1.0  0.92299  0.97481  0.53082  1.0000
  S   S778      1.0  0.86247  0.95726  0.90587  1.0000
  C   C2317     1.0  0.93273  0.94760  0.74415  1.0000
  S   S779      1.0  0.96629  0.87760  0.93480  1.0000
  Fe  Fe387     1.0  0.83518  0.86748  0.88411  1.0000
  S   S780      1.0  0.82524  0.86822  0.85115  1.0000
  S   S781      1.0  0.82504  0.87707  0.91582  1.0000
  Fe  Fe388     1.0  0.86423  0.85206  0.86603  1.0000
  S   S782      1.0  0.85665  0.85109  0.83152  1.0000
  S   S783      1.0  0.88884  0.84658  0.87382  1.0000
  Fe  Fe389     1.0  0.85336  0.87798  0.83271  1.0000
  S   S784      1.0  0.86489  0.90235  0.80379  1.0000
  Fe  Fe390     1.0  0.82906  0.84112  0.85264  1.0000
  S   S785      1.0  0.80687  0.81744  0.85266  1.0000
  S   S786      1.0  0.86270  0.87943  0.86563  1.0000
  S   S787      1.0  0.83716  0.83986  0.88729  1.0000
  H   H2308     1.0  0.92593  0.96574  0.70219  1.0000
  H   H2309     1.0  0.89617  0.90478  0.75615  1.0000
  S   S788      1.0  0.77584  0.76857  0.52180  1.0000
  C   C2318     1.0  0.91881  0.95538  0.50438  1.0000
  C   C2319     1.0  0.88800  0.91085  0.90212  1.0000
  H   H2310     1.0  0.94285  0.95969  0.74120  1.0000
  S   S789      1.0  0.77230  0.78409  0.77610  1.0000
  S   S790      1.0  0.98867  0.96725  0.57086  1.0000
  H   H2311     1.0  0.91659  0.92545  0.93343  1.0000
  H   H2312     1.0  0.79177  0.76104  0.75487  1.0000
  H   H2313     1.0  0.94125  0.82052  0.90921  1.0000
  S   S791      1.0  0.75177  0.73594  0.77154  1.0000
  H   H2314     1.0  0.89519  0.84650  0.97209  1.0000
  N   N192      1.0  0.91852  0.94745  0.73486  1.0000
  C   C2320     1.0  0.92991  0.96651  0.51428  1.0000
  H   H2315     1.0  0.95948  0.99459  0.64059  1.0000
  H   H2316     1.0  0.89456  0.83104  0.94109  1.0000
  H   H2317     1.0  0.78161  0.75736  0.57267  1.0000
  Fe  Fe391     1.0  0.74820  0.75274  0.53966  1.0000
  C   C2321     1.0  0.89440  0.96077  0.52696  1.0000
  C   C2322     1.0  0.90513  0.97198  0.53721  1.0000
  H   H2318     1.0  0.90416  0.96308  0.71815  1.0000
  C   C2323     1.0  0.79728  0.80882  0.83090  1.0000
  C   C2324     1.0  0.80422  0.81541  0.80691  1.0000
  C   C2325     1.0  0.79625  0.80783  0.79046  1.0000
  C   C2326     1.0  0.78114  0.79375  0.79769  1.0000
  C   C2327     1.0  0.77401  0.78739  0.82169  1.0000
  C   C2328     1.0  0.78211  0.79481  0.83814  1.0000
  H   H2319     1.0  0.81587  0.82616  0.80102  1.0000
  H   H2320     1.0  0.80191  0.81288  0.77196  1.0000
  H   H2321     1.0  0.76238  0.77662  0.82758  1.0000
  H   H2322     1.0  0.77661  0.78957  0.85663  1.0000
  C   C2329     1.0  0.85115  0.93512  0.90942  1.0000
  C   C2330     1.0  0.85095  0.92812  0.88944  1.0000
  C   C2331     1.0  0.84283  0.91038  0.89139  1.0000
  C   C2332     1.0  0.83471  0.89948  0.91336  1.0000
  C   C2333     1.0  0.83453  0.90650  0.93340  1.0000
  C   C2334     1.0  0.84281  0.92431  0.93146  1.0000
  H   H2323     1.0  0.85702  0.93639  0.87230  1.0000
  H   H2324     1.0  0.84274  0.90520  0.87579  1.0000
  H   H2325     1.0  0.82814  0.89811  0.95045  1.0000
  H   H2326     1.0  0.84277  0.92963  0.94696  1.0000
  C   C2335     1.0  0.91761  0.92966  0.81485  1.0000
  C   C2336     1.0  0.91110  0.91142  0.82185  1.0000
  C   C2337     1.0  0.89504  0.90308  0.81815  1.0000
  C   C2338     1.0  0.88532  0.91294  0.80749  1.0000
  C   C2339     1.0  0.89202  0.93121  0.79986  1.0000
  C   C2340     1.0  0.90819  0.93959  0.80354  1.0000
  H   H2327     1.0  0.91846  0.90362  0.83019  1.0000
  H   H2328     1.0  0.89023  0.88894  0.82341  1.0000
  H   H2329     1.0  0.88455  0.93885  0.79150  1.0000
  H   H2330     1.0  0.91316  0.95370  0.79805  1.0000
  H   H2331     1.0  0.89970  0.97834  0.55018  1.0000
  H   H2332     1.0  0.92585  0.91182  0.86671  1.0000
  H   H2333     1.0  0.81225  0.77059  0.55267  1.0000
  H   H2334     1.0  0.87421  0.90713  0.90303  1.0000
  C   C2341     1.0  0.91060  0.87517  0.92675  1.0000
  C   C2342     1.0  0.92167  0.87050  0.90974  1.0000
  C   C2343     1.0  0.91499  0.86210  0.89312  1.0000
  C   C2344     1.0  0.89727  0.85843  0.89340  1.0000
  C   C2345     1.0  0.88631  0.86351  0.91008  1.0000
  C   C2346     1.0  0.89296  0.87177  0.92676  1.0000
  H   H2335     1.0  0.93532  0.87318  0.90952  1.0000
  H   H2336     1.0  0.92352  0.85827  0.88015  1.0000
  H   H2337     1.0  0.87262  0.86065  0.91050  1.0000
  H   H2338     1.0  0.88432  0.87536  0.93988  1.0000
  H   H2339     1.0  0.88020  0.96004  0.85318  1.0000
  Fe  Fe392     1.0  0.86535  0.97064  0.93592  1.0000
  Fe  Fe393     1.0  0.74826  0.76177  0.77828  1.0000
  C   C2347     1.0  0.96119  0.99158  0.69816  1.0000
  H   H2340     1.0  0.76662  0.84744  0.84552  1.0000
  H   H2341     1.0  0.81448  0.86741  0.47609  1.0000
  C   C2348     1.0  0.80199  0.82621  0.52045  1.0000
  C   C2349     1.0  0.81112  0.81610  0.50929  1.0000
  C   C2350     1.0  0.80276  0.79864  0.50930  1.0000
  C   C2351     1.0  0.78526  0.79108  0.52052  1.0000
  C   C2352     1.0  0.77605  0.80131  0.53132  1.0000
  C   C2353     1.0  0.78438  0.81879  0.53122  1.0000
  H   H2342     1.0  0.82466  0.82162  0.50090  1.0000
  H   H2343     1.0  0.80999  0.79084  0.50087  1.0000
  H   H2344     1.0  0.76257  0.79570  0.53990  1.0000
  H   H2345     1.0  0.77719  0.82653  0.53983  1.0000
  C   C2354     1.0  0.93433  0.92930  0.54335  1.0000
  C   C2355     1.0  0.93009  0.91789  0.52859  1.0000
  C   C2356     1.0  0.91273  0.90985  0.52916  1.0000
  C   C2357     1.0  0.89947  0.91307  0.54465  1.0000
  C   C2358     1.0  0.90371  0.92431  0.55963  1.0000
  C   C2359     1.0  0.92108  0.93245  0.55896  1.0000
  H   H2346     1.0  0.94028  0.91529  0.51659  1.0000
  H   H2347     1.0  0.90963  0.90105  0.51775  1.0000
  H   H2348     1.0  0.89351  0.92682  0.57171  1.0000
  H   H2349     1.0  0.92421  0.94116  0.57048  1.0000
  H   H2350     1.0  0.78761  0.84343  0.83761  1.0000
  S   S792      1.0  0.94153  0.98932  0.78926  1.0000
  S   S793      1.0  0.97955  0.96923  0.63561  1.0000
  H   H2351     1.0  0.91558  0.87738  0.48502  1.0000
  C   C2360     1.0  0.90563  0.93224  0.73871  1.0000
  H   H2352     1.0  0.88051  0.95849  0.53217  1.0000
  C   C2361     1.0  0.91759  0.96360  0.71991  1.0000
  H   H2353     1.0  0.80983  0.81858  0.57379  1.0000
  H   H2354     1.0  0.93726  0.99163  0.86258  1.0000
  H   H2355     1.0  0.95445  0.82866  0.94188  1.0000
  S   S794      1.0  0.74345  0.73265  0.57328  1.0000
  S   S795      1.0  0.97102  0.97083  0.76793  1.0000
  H   H2356     1.0  0.89506  0.93003  0.49638  1.0000
  S   S796      1.0  0.89286  0.98547  0.93220  1.0000
  H   H2357     1.0  0.90416  0.94573  0.85054  1.0000
  H   H2358     1.0  0.92428  0.94862  0.49199  1.0000
  H   H2359     1.0  0.81191  0.75562  0.75684  1.0000
  H   H2360     1.0  0.75612  0.77822  0.61106  1.0000
  H   H2361     1.0  0.88755  0.91694  0.95636  1.0000
  C   C2362     1.0  0.80531  0.77795  0.56253  1.0000
  C   C2363     1.0  0.76048  0.77221  0.59644  1.0000
  C   C2364     1.0  0.96989  0.97854  0.70065  1.0000
  C   C2365     1.0  0.78656  0.79702  0.58566  1.0000
  C   C2366     1.0  0.91164  0.92119  0.91899  1.0000
  N   N193      1.0  0.90129  0.95254  0.51090  1.0000
  N   N194      1.0  0.89424  0.91657  0.92013  1.0000
  N   N195      1.0  0.77887  0.77999  0.58554  1.0000
  H   H2362     1.0  0.75262  0.77402  0.58319  1.0000
  C   C2367     1.0  0.91700  0.91348  0.88150  1.0000
  H   H2363     1.0  0.80459  0.76995  0.77382  1.0000
  H   H2364     1.0  0.93699  0.92250  0.89939  1.0000
  H   H2365     1.0  0.89429  0.93207  0.73147  1.0000
  H   H2366     1.0  0.93141  0.98324  0.53895  1.0000
  C   C2368     1.0  0.91688  0.82496  0.92334  1.0000
  H   H2367     1.0  0.92197  0.90483  0.77300  1.0000
  H   H2368     1.0  0.76276  0.70269  0.83415  1.0000
  H   H2369     1.0  0.94534  0.93251  0.76573  1.0000
  H   H2370     1.0  0.80793  0.88507  0.51446  1.0000
  H   H2371     1.0  0.76554  0.73283  0.84054  1.0000
  N   N196      1.0  0.91515  0.83523  0.95906  1.0000
  Fe  Fe394     1.0  0.94524  0.88700  0.95365  1.0000
  C   C2369     1.0  0.89927  0.90915  0.88261  1.0000
  H   H2372     1.0  0.75778  0.75794  0.60395  1.0000
  C   C2370     1.0  0.88223  0.91838  0.94036  1.0000
  C   C2371     1.0  0.90671  0.91668  0.75238  1.0000
  H   H2373     1.0  0.86978  0.90802  0.94427  1.0000
  C   C2372     1.0  0.92117  0.91672  0.76190  1.0000
  N   N197      1.0  0.77889  0.84190  0.87373  1.0000
  C   C2373     1.0  0.77929  0.82786  0.89013  1.0000
  C   C2374     1.0  0.78300  0.85847  0.87771  1.0000
  C   C2375     1.0  0.78408  0.83024  0.91105  1.0000
  C   C2376     1.0  0.78767  0.86130  0.89855  1.0000
  C   C2377     1.0  0.78828  0.84708  0.91524  1.0000
  C   C2378     1.0  0.77526  0.83948  0.85104  1.0000
  H   H2374     1.0  0.77657  0.81478  0.88672  1.0000
  H   H2375     1.0  0.78326  0.86967  0.86441  1.0000
  H   H2376     1.0  0.78503  0.81917  0.92358  1.0000
  H   H2377     1.0  0.79151  0.87451  0.90139  1.0000
  H   H2378     1.0  0.79251  0.84923  0.93108  1.0000
  H   H2379     1.0  0.98178  0.96141  0.68341  1.0000
  S   S797      1.0  0.97092  0.98899  0.53537  1.0000
  H   H2380     1.0  0.76892  0.82552  0.85164  1.0000
  C   C2379     1.0  0.80390  0.80489  0.57436  1.0000
  C   C2380     1.0  0.93385  0.82444  0.92335  1.0000
  S   S798      1.0  0.96280  0.91327  0.95265  1.0000
  H   H2381     1.0  0.82659  0.80138  0.55328  1.0000
  C   C2381     1.0  0.78794  0.77053  0.57392  1.0000
  H   H2382     1.0  0.88859  0.94884  0.48312  1.0000
  C   C2382     1.0  0.88991  0.94121  0.49983  1.0000
  S   S799      1.0  0.85520  0.99416  0.93862  1.0000
  Fe  Fe395     1.0  0.96226  0.99467  0.75650  1.0000
  C   C2383     1.0  0.97479  0.97129  0.68153  1.0000
  H   H2383     1.0  0.77920  0.80477  0.59403  1.0000
  H   H2384     1.0  0.87963  0.93145  0.93671  1.0000
  C   C2384     1.0  0.94127  0.82907  0.94159  1.0000
  H   H2385     1.0  0.92216  0.97514  0.72740  1.0000
  C   C2385     1.0  0.92327  0.91960  0.89974  1.0000
  N   N198      1.0  0.79062  0.74281  0.78579  1.0000
  C   C2386     1.0  0.78887  0.72625  0.78193  1.0000
  C   C2387     1.0  0.78240  0.74523  0.80657  1.0000
  C   C2388     1.0  0.77894  0.71155  0.79932  1.0000
  C   C2389     1.0  0.77235  0.73086  0.82429  1.0000
  C   C2390     1.0  0.77074  0.71393  0.82065  1.0000
  C   C2391     1.0  0.80025  0.75805  0.76689  1.0000
  H   H2386     1.0  0.79483  0.72435  0.76515  1.0000
  H   H2387     1.0  0.78336  0.75835  0.80937  1.0000
  C   C2392     1.0  0.93428  0.93226  0.75783  1.0000
  H   H2388     1.0  0.80351  0.91666  0.47659  1.0000
  C   C2393     1.0  0.90619  0.95881  0.85388  1.0000
  C   C2394     1.0  0.93164  0.83436  0.95949  1.0000
  H   H2389     1.0  0.97321  0.97429  0.71707  1.0000
  Fe  Fe396     1.0  0.95851  0.99763  0.56610  1.0000
  C   C2395     1.0  0.92227  0.96777  0.85662  1.0000
  C   C2396     1.0  0.89275  0.96683  0.85532  1.0000
  H   H2390     1.0  0.94376  0.96819  0.50976  1.0000
  N   N199      1.0  0.80754  0.89116  0.47849  1.0000
  Fe  Fe397     1.0  0.88790  0.97774  0.97117  1.0000
  N   N200      1.0  0.91124  0.99226  0.86278  1.0000
  C   C2397     1.0  0.90763  0.83033  0.94153  1.0000
  H   H2391     1.0  0.79074  0.87065  0.50619  1.0000
  C   C2398     1.0  0.89547  0.98360  0.85995  1.0000
  Fe  Fe398     1.0  0.87784  0.86404  0.48646  1.0000
  S   S800      1.0  0.88762  0.89311  0.48242  1.0000
  H   H2392     1.0  0.88478  0.98954  0.86153  1.0000
  C   C2399     1.0  0.96225  0.98997  0.65734  1.0000
  Fe  Fe399     1.0  0.98429  0.90284  0.93705  1.0000
  H   H2393     1.0  0.78938  0.89224  0.50856  1.0000
  H   H2394     1.0  0.91101  0.82166  0.90907  1.0000
  H   H2395     1.0  0.93848  0.99734  0.92933  1.0000
  Fe  Fe400     1.0  0.96996  0.86684  0.97053  1.0000
  H   H2396     1.0  0.74283  0.71699  0.66978  1.0000
  H   H2397     1.0  0.87687  0.93525  0.51153  1.0000
  H   H2398     1.0  0.98668  0.92878  0.50722  1.0000
  C   C2400     1.0  0.95718  0.99709  0.67656  1.0000
  H   H2399     1.0  0.93753  0.83788  0.97363  1.0000
  H   H2400     1.0  0.80947  0.97968  0.97413  1.0000
