data_image0
_chemical_formula_structural       FeS2FeS2FeSFeS2CFeS2FeS2FeSFeS3FeS2CHFe2HCSCH6C6H5CHCHNC6H4C6H3C2HNHC4SHCHSCSHNC6H5CH2C2H2CHC3H2C2H4C3HCH5CH3NCSH5SCNC3H2NH2C2H2CFeSFe2S2FeSFeS3FeS2FeS2H2FeS3CHC6H4C6H4C6H4C6H4CHC4H5NH7C2HC2NC2HC4H3C4S2HNHCH3CH2C2H2C3HC3HNSCH3FeC2H2CH2SCFeCFeSHCFeSHSFeS2FeCSFeSFeHS2FeSHFeS2FeSFeS3HC8H4C6H4CHC2HCH3CH2CH2C3H4CHCH3SNH5CH2CH4CNC3HSCHCS2CH3CHCHNC4HC2H2CHSCH2NHC2HC4HSCH2CH4C2H2CHCH2C4NH2CH3NCNCHCFeHSCFeSHFeSFeS2HFeS2FeSHFeSFeS3FeS2FeHFe2SCS2CHCHCNC6H4NCHC2HC6H4C6H3CH5SC2H2C2HNCH2C3HNSHC2HC4H2C2HC2H2NH3CFeC3SCH3CH5SH2SC2HCH5NHCFeSCFeS2FeSFeS3FeC2FeS2FeCFeS3HC7H2CHC6H4C6H4C6H4C7H5C2H2C2HCH4NC6H8CHNSHC2SH2NC2HCH2NHNC4H3SC2HSCHNH3SHCH4C2HSH2C3S2H2CHCSCH2CNFeSCHFeSCHFeS2FeHSFeSCFeS2FeS2FeS2FeSFeS3CH2C6H3C7H4C2HCHCH3CH3SHCSHCH4C2HCHC2HSH2C4FeNH4CH2CH5SH2CNHCHC3H3CHCSCH2CHCHNC7HFeC3H2NC3HCH3SCHFeCFeS2FeSFeSHFeS2FeS2FeSFeHS2FeSCFeS2FeSFeS3C4HC6H4C5H3CH3C6H2CNHC2HC4H2NH2C2NHCHCHNHC3H2CHCH2CSC3HCH2C5H3C2HC5SCH2CHSCH2C3H6CHSCH3FeH2SHCH10C3HCSHFeS2FeS2FeSFeS3CHFeS2FeSCFeCFeS3HCH3C6H4C6H2CHC2H3C6H4C6H4C6H8NH2CH4C4SCNHC2HCHNC2H9CSHCNH3CHSC3NHCHNC6HCH2C3H2CH5CHC2HS2C4FeS2CFeHCSFeCHFeS2H2FeS3FeS2FeS2FeSFeHS2H2CHC2NC6H4C7H3SCH5C6H4C2HC3NC6H10FeH2C4HSFeHC2NC6H4SH3SCH3C2NSH3NSHC2H2C2HC2H2CFeH2CH2CHCH2FeSHFeSHCNFeS2FeS2FeSFeHS2FeS2FeS2FeCFeS3CHCH2C6H4C6H2C2H3C2HC4H2SHCHNHSCHCHSC2SHSHC2NC3H2N2HCH2CH2CHCSC2H2C2HC4HCH2CHNHCSC2H3CH2FeHCH2C2H3CHCH4CH2C2HC2HSCFeSCFeS2FeSFeS3H2FeS2FeSHFeCFeS3C3H2C6H4C6H4C3H2C6H4C7H3C7H4CH2SHCH4NH2CSHCH2NC6H11CSNC6H3CHCH5SHCSHCHFeS2HFeSHSFeHSFeS2CHFeS3FeS2FeS2FeSFeS3CSHCHCHC6H4C7H3CH2CH3C6H6C2HFeCHCHCH4CSFeCNCNCHCH2C2HNSHC2H2NC6HFeH3C2HNC6H7CNHC2HSCHCH2CH4CHCHC2H3CH2CHCHC
_chemical_formula_sum              "Fe128 S256 C768 H768 N64"
_cell_length_a       36.4778
_cell_length_b       38.5701
_cell_length_c       67.09
_cell_angle_alpha    89.9526
_cell_angle_beta     90.148
_cell_angle_gamma    89.4412

_space_group_name_H-M_alt    "P 1"
_space_group_IT_number       1

loop_
  _space_group_symop_operation_xyz
  'x, y, z'

loop_
  _atom_site_type_symbol
  _atom_site_label
  _atom_site_symmetry_multiplicity
  _atom_site_fract_x
  _atom_site_fract_y
  _atom_site_fract_z
  _atom_site_occupancy
  Fe  Fe1       1.0  0.39044  0.49689  0.09152  1.0000
  S   S1        1.0  0.44555  0.47032  0.09343  1.0000
  S   S2        1.0  0.07720  0.31099  0.34587  1.0000
  Fe  Fe2       1.0  0.35946  0.44319  0.06265  1.0000
  S   S3        1.0  0.41219  0.41274  0.06202  1.0000
  S   S4        1.0  0.30489  0.43312  0.04708  1.0000
  Fe  Fe3       1.0  0.41339  0.42075  0.09525  1.0000
  S   S5        1.0  0.43438  0.37536  0.11393  1.0000
  Fe  Fe4       1.0  0.44076  0.46426  0.06017  1.0000
  S   S6        1.0  0.49152  0.46567  0.04040  1.0000
  S   S7        1.0  0.35856  0.44778  0.09611  1.0000
  C   C1        1.0  0.18621  0.16862  0.32491  1.0000
  Fe  Fe5       1.0  0.36542  0.23961  0.19387  1.0000
  S   S8        1.0  0.32552  0.19565  0.19695  1.0000
  S   S9        1.0  0.34347  0.28389  0.17465  1.0000
  Fe  Fe6       1.0  0.41683  0.20824  0.22547  1.0000
  S   S10       1.0  0.37970  0.16349  0.23101  1.0000
  S   S11       1.0  0.47130  0.21340  0.24180  1.0000
  Fe  Fe7       1.0  0.37520  0.16086  0.19763  1.0000
  S   S12       1.0  0.38328  0.10624  0.18567  1.0000
  Fe  Fe8       1.0  0.33369  0.20253  0.22988  1.0000
  S   S13       1.0  0.28402  0.19907  0.25012  1.0000
  S   S14       1.0  0.41482  0.20408  0.19195  1.0000
  S   S15       1.0  0.37104  0.24802  0.22697  1.0000
  Fe  Fe9       1.0  0.16427  0.32259  0.31485  1.0000
  S   S16       1.0  0.12042  0.28511  0.30612  1.0000
  S   S17       1.0  0.21712  0.32762  0.29730  1.0000
  C   C2        1.0  0.51197  0.50235  0.02916  1.0000
  H   H1        1.0  0.45238  0.06548  0.19336  1.0000
  Fe  Fe10      1.0  0.12009  0.27126  0.33865  1.0000
  Fe  Fe11      1.0  0.08124  0.32829  0.31400  1.0000
  H   H2        1.0  0.33431  0.03841  0.18699  1.0000
  C   C3        1.0  0.27449  0.23871  0.31859  1.0000
  S   S18       1.0  0.12498  0.36747  0.32056  1.0000
  C   C4        1.0  0.04339  0.38482  0.27015  1.0000
  H   H3        1.0  0.05625  0.21093  0.02789  1.0000
  H   H4        1.0  0.41748  0.29754  0.10219  1.0000
  H   H5        1.0  0.07154  0.38225  0.27511  1.0000
  H   H6        1.0  0.38796  0.27304  0.11786  1.0000
  H   H7        1.0  0.06792  0.46698  0.32510  1.0000
  H   H8        1.0  0.27037  0.05353  0.12670  1.0000
  C   C5        1.0  0.26575  0.23545  0.26273  1.0000
  C   C6        1.0  0.23035  0.23344  0.27079  1.0000
  C   C7        1.0  0.21518  0.26146  0.28145  1.0000
  C   C8        1.0  0.23531  0.29179  0.28411  1.0000
  C   C9        1.0  0.27068  0.29386  0.27597  1.0000
  C   C10       1.0  0.28587  0.26580  0.26530  1.0000
  H   H9        1.0  0.21461  0.21004  0.26884  1.0000
  H   H10       1.0  0.18796  0.25953  0.28760  1.0000
  H   H11       1.0  0.28641  0.31724  0.27799  1.0000
  H   H12       1.0  0.31323  0.26756  0.25924  1.0000
  H   H13       1.0  0.05523  0.42367  0.24793  1.0000
  C   C11       1.0  0.21321  0.28513  0.23103  1.0000
  H   H14       1.0  0.39111  0.26250  0.09159  1.0000
  C   C12       1.0  0.02212  0.24487  0.08671  1.0000
  H   H15       1.0  0.29624  0.25730  0.31635  1.0000
  N   N1        1.0  0.50369  0.15349  0.31677  1.0000
  C   C13       1.0  0.37002  0.31099  0.15923  1.0000
  C   C14       1.0  0.35263  0.33854  0.14910  1.0000
  C   C15       1.0  0.37229  0.35951  0.13576  1.0000
  C   C16       1.0  0.40951  0.35292  0.13239  1.0000
  C   C17       1.0  0.42706  0.32588  0.14289  1.0000
  C   C18       1.0  0.40744  0.30497  0.15627  1.0000
  H   H16       1.0  0.32369  0.34344  0.15136  1.0000
  H   H17       1.0  0.35853  0.38029  0.12778  1.0000
  H   H18       1.0  0.45589  0.32068  0.14037  1.0000
  H   H19       1.0  0.42114  0.28391  0.16403  1.0000
  C   C19       1.0  0.37876  0.08000  0.11909  1.0000
  C   C20       1.0  0.36885  0.11335  0.12568  1.0000
  C   C21       1.0  0.37095  0.12207  0.14601  1.0000
  C   C22       1.0  0.38327  0.09749  0.15985  1.0000
  C   C23       1.0  0.39411  0.06442  0.15320  1.0000
  C   C24       1.0  0.39149  0.05554  0.13292  1.0000
  H   H20       1.0  0.35905  0.13238  0.11501  1.0000
  H   H21       1.0  0.36255  0.14762  0.15097  1.0000
  H   H22       1.0  0.47352  0.10888  0.30795  1.0000
  C   C25       1.0  0.27128  0.28469  0.21390  1.0000
  C   C26       1.0  0.47388  0.14550  0.25510  1.0000
  H   H23       1.0  0.24200  0.27320  0.33677  1.0000
  N   N2        1.0  0.21715  0.19234  0.32293  1.0000
  H   H24       1.0  0.44656  0.14291  0.24917  1.0000
  C   C27       1.0  0.49102  0.11705  0.26447  1.0000
  C   C28       1.0  0.05871  0.42773  0.34715  1.0000
  C   C29       1.0  0.31171  0.03606  0.15725  1.0000
  C   C30       1.0  0.48299  0.17636  0.30579  1.0000
  S   S19       1.0  0.38777  0.49417  0.05796  1.0000
  H   H25       1.0  0.17941  0.16482  0.34092  1.0000
  C   C31       1.0  0.24689  0.18343  0.31154  1.0000
  H   H26       1.0  0.03985  0.45483  0.28949  1.0000
  S   S20       1.0  0.11425  0.21500  0.34773  1.0000
  C   C32       1.0  0.21540  0.22398  0.33208  1.0000
  S   S21       1.0  0.16666  0.30578  0.34701  1.0000
  H   H27       1.0  0.34076  0.36894  0.03319  1.0000
  N   N3        1.0  0.36039  0.30802  0.09809  1.0000
  C   C33       1.0  0.36599  0.33542  0.08553  1.0000
  C   C34       1.0  0.32631  0.30206  0.10578  1.0000
  C   C35       1.0  0.33710  0.35794  0.08058  1.0000
  C   C36       1.0  0.29682  0.32418  0.10113  1.0000
  C   C37       1.0  0.30235  0.35227  0.08840  1.0000
  C   C38       1.0  0.39068  0.28397  0.10259  1.0000
  H   H28       1.0  0.39310  0.34039  0.07961  1.0000
  H   H29       1.0  0.32194  0.28045  0.11584  1.0000
  H   H30       1.0  0.34157  0.37984  0.07082  1.0000
  H   H31       1.0  0.26992  0.31964  0.10741  1.0000
  H   H32       1.0  0.27991  0.36980  0.08457  1.0000
  C   C39       1.0  0.49218  0.17703  0.25340  1.0000
  H   H33       1.0  0.40389  0.04530  0.16380  1.0000
  H   H34       1.0  0.03815  0.23105  0.07559  1.0000
  C   C40       1.0  0.03407  0.40827  0.25479  1.0000
  C   C41       1.0  0.23916  0.26771  0.21941  1.0000
  H   H35       1.0  0.29907  0.19964  0.29976  1.0000
  H   H36       1.0  0.18867  0.27193  0.23590  1.0000
  C   C42       1.0  0.28881  0.39583  0.03458  1.0000
  H   H37       1.0  0.23503  0.24084  0.21521  1.0000
  C   C43       1.0  0.04135  0.23502  0.02561  1.0000
  C   C44       1.0  0.49556  0.20992  0.30205  1.0000
  C   C45       1.0  0.24396  0.24767  0.33002  1.0000
  H   H38       1.0  0.31700  0.35866  0.22274  1.0000
  H   H39       1.0  0.51288  0.09970  0.32269  1.0000
  C   C46       1.0  0.21965  0.31918  0.23699  1.0000
  C   C47       1.0  0.25177  0.39500  0.02883  1.0000
  H   H40       1.0  0.45455  0.13313  0.19386  1.0000
  H   H41       1.0  0.16164  0.17976  0.31731  1.0000
  H   H42       1.0  0.19217  0.14271  0.31841  1.0000
  H   H43       1.0  0.23354  0.41599  0.03312  1.0000
  C   C48       1.0  0.50522  0.15598  0.20316  1.0000
  C   C49       1.0  0.31210  0.36847  0.02905  1.0000
  C   C50       1.0  0.48989  0.11859  0.32074  1.0000
  H   H44       1.0  0.24791  0.15883  0.30373  1.0000
  C   C51       1.0  0.25212  0.33537  0.23122  1.0000
  H   H45       1.0  0.30876  0.34318  0.19768  1.0000
  H   H46       1.0  0.25703  0.36170  0.23614  1.0000
  H   H47       1.0  0.47971  0.22749  0.29265  1.0000
  H   H48       1.0  0.39935  0.02983  0.12796  1.0000
  H   H49       1.0  0.33520  0.31757  0.21502  1.0000
  C   C52       1.0  0.31116  0.33536  0.21360  1.0000
  H   H50       1.0  0.45712  0.16842  0.29932  1.0000
  H   H51       1.0  0.20016  0.33256  0.24658  1.0000
  H   H52       1.0  0.29140  0.27087  0.20499  1.0000
  N   N4        1.0  0.27755  0.31799  0.21993  1.0000
  C   C53       1.0  0.27611  0.20634  0.30934  1.0000
  S   S22       1.0  0.37406  0.06971  0.09359  1.0000
  H   H53       1.0  0.47665  0.09271  0.26561  1.0000
  H   H54       1.0  0.47285  0.11870  0.33442  1.0000
  H   H55       1.0  0.49864  0.18123  0.19686  1.0000
  H   H56       1.0  0.30558  0.06365  0.15689  1.0000
  H   H57       1.0  0.47053  0.04501  0.21542  1.0000
  S   S23       1.0  0.02576  0.33648  0.29918  1.0000
  C   C54       1.0  0.48023  0.12882  0.20171  1.0000
  N   N5        1.0  0.48771  0.09741  0.21037  1.0000
  C   C55       1.0  0.28873  0.03134  0.12300  1.0000
  C   C56       1.0  0.05093  0.44530  0.32937  1.0000
  C   C57       1.0  0.46028  0.06997  0.20917  1.0000
  H   H58       1.0  0.02344  0.20281  0.10766  1.0000
  H   H59       1.0  0.19153  0.23116  0.34082  1.0000
  N   N6        1.0  0.02252  0.43511  0.31744  1.0000
  H   H60       1.0  0.31097  0.04085  0.11319  1.0000
  H   H61       1.0  0.43527  0.07793  0.21752  1.0000
  C   C58       1.0  0.32815  0.02191  0.17433  1.0000
  C   C59       1.0  0.51986  0.09208  0.22055  1.0000
  H   H62       1.0  0.47864  0.02057  0.05059  1.0000
  H   H63       1.0  0.48501  0.28660  0.49101  1.0000
  C   C60       1.0  0.38051  0.16182  0.66394  1.0000
  Fe  Fe12      1.0  0.44823  0.21064  0.56298  1.0000
  S   S24       1.0  0.40106  0.24869  0.56505  1.0000
  Fe  Fe13      1.0  0.17339  0.03307  0.44752  1.0000
  Fe  Fe14      1.0  0.40330  0.15132  0.58085  1.0000
  S   S25       1.0  0.35312  0.18475  0.58373  1.0000
  S   S26       1.0  0.39683  0.09471  0.58886  1.0000
  Fe  Fe15      1.0  0.36709  0.20408  0.55333  1.0000
  S   S27       1.0  0.32554  0.20671  0.52808  1.0000
  Fe  Fe16      1.0  0.39136  0.22549  0.59554  1.0000
  S   S28       1.0  0.37832  0.24655  0.62655  1.0000
  S   S29       1.0  0.41505  0.16788  0.54945  1.0000
  S   S30       1.0  0.44087  0.19046  0.59427  1.0000
  Fe  Fe17      1.0  0.10763  0.06238  0.46958  1.0000
  S   S31       1.0  0.11581  0.37449  0.38174  1.0000
  S   S32       1.0  0.04830  0.05427  0.47855  1.0000
  Fe  Fe18      1.0  0.15892  0.11083  0.44679  1.0000
  S   S33       1.0  0.20887  0.07889  0.45469  1.0000
  S   S34       1.0  0.16869  0.16338  0.43257  1.0000
  H   H64       1.0  0.15996  0.42524  0.36021  1.0000
  H   H65       1.0  0.49545  0.31570  0.55230  1.0000
  Fe  Fe19      1.0  0.18471  0.07666  0.48532  1.0000
  S   S35       1.0  0.21660  0.08119  0.51424  1.0000
  S   S36       1.0  0.12496  0.06512  0.43732  1.0000
  S   S37       1.0  0.13685  0.11124  0.47811  1.0000
  C   C61       1.0  0.35061  0.10940  0.65538  1.0000
  H   H66       1.0  0.28542  0.05154  0.49140  1.0000
  C   C62       1.0  0.15621  0.17541  0.40811  1.0000
  C   C63       1.0  0.16694  0.20801  0.40101  1.0000
  C   C64       1.0  0.15476  0.22020  0.38237  1.0000
  C   C65       1.0  0.13170  0.19980  0.37070  1.0000
  C   C66       1.0  0.12180  0.16674  0.37751  1.0000
  C   C67       1.0  0.13393  0.15457  0.39621  1.0000
  H   H67       1.0  0.18422  0.22422  0.41016  1.0000
  H   H68       1.0  0.16265  0.24565  0.37728  1.0000
  H   H69       1.0  0.12382  0.25004  0.44586  1.0000
  H   H70       1.0  0.12558  0.12938  0.40154  1.0000
  C   C68       1.0  0.15346  0.48429  0.39820  1.0000
  C   C69       1.0  0.16315  0.46984  0.37968  1.0000
  C   C70       1.0  0.15210  0.43615  0.37444  1.0000
  C   C71       1.0  0.13119  0.41664  0.38773  1.0000
  C   C72       1.0  0.12140  0.43112  0.40620  1.0000
  C   C73       1.0  0.13245  0.46480  0.41143  1.0000
  H   H71       1.0  0.17956  0.48472  0.36941  1.0000
  H   H72       1.0  0.39572  0.09108  0.53974  1.0000
  H   H73       1.0  0.10523  0.41622  0.41657  1.0000
  H   H74       1.0  0.37419  0.13831  0.51503  1.0000
  C   C74       1.0  0.29238  0.17375  0.52541  1.0000
  C   C75       1.0  0.27082  0.17254  0.50803  1.0000
  C   C76       1.0  0.24660  0.14488  0.50468  1.0000
  C   C77       1.0  0.24364  0.11828  0.51878  1.0000
  C   C78       1.0  0.26421  0.12016  0.53647  1.0000
  C   C79       1.0  0.28846  0.14776  0.53978  1.0000
  H   H75       1.0  0.27348  0.19267  0.49690  1.0000
  H   H76       1.0  0.23078  0.14382  0.49104  1.0000
  H   H77       1.0  0.26185  0.09988  0.54752  1.0000
  H   H78       1.0  0.30435  0.14876  0.55337  1.0000
  C   C80       1.0  0.38341  0.29034  0.63401  1.0000
  C   C81       1.0  0.37672  0.29942  0.65400  1.0000
  C   C82       1.0  0.37988  0.33404  0.66046  1.0000
  C   C83       1.0  0.38963  0.35992  0.64691  1.0000
  C   C84       1.0  0.39651  0.35081  0.62697  1.0000
  C   C85       1.0  0.39354  0.31619  0.62054  1.0000
  H   H79       1.0  0.36863  0.27961  0.66448  1.0000
  H   H80       1.0  0.37409  0.34074  0.67579  1.0000
  H   H81       1.0  0.40395  0.37067  0.61637  1.0000
  H   H82       1.0  0.39862  0.30955  0.60512  1.0000
  C   C86       1.0  0.42814  0.05895  0.65184  1.0000
  H   H83       1.0  0.47085  0.39551  0.65333  1.0000
  C   C87       1.0  0.39902  0.04830  0.61986  1.0000
  C   C88       1.0  0.40989  0.08101  0.61296  1.0000
  C   C89       1.0  0.43026  0.10246  0.62548  1.0000
  C   C90       1.0  0.43937  0.09144  0.64484  1.0000
  H   H84       1.0  0.33296  0.17616  0.63120  1.0000
  H   H85       1.0  0.08376  0.17001  0.43067  1.0000
  H   H86       1.0  0.43914  0.12750  0.62025  1.0000
  H   H87       1.0  0.45494  0.10829  0.65450  1.0000
  H   H88       1.0  0.37591  0.47523  0.61064  1.0000
  N   N7        1.0  0.36217  0.14191  0.65040  1.0000
  H   H89       1.0  0.38330  0.03155  0.61022  1.0000
  H   H90       1.0  0.38004  0.16801  0.62447  1.0000
  H   H91       1.0  0.03541  0.41611  0.51918  1.0000
  H   H92       1.0  0.04366  0.38520  0.36619  1.0000
  H   H93       1.0  0.03112  0.45986  0.49412  1.0000
  H   H94       1.0  0.05426  0.19671  0.44620  1.0000
  H   H95       1.0  0.46461  0.25502  0.52129  1.0000
  C   C91       1.0  0.30618  0.06983  0.49607  1.0000
  C   C92       1.0  0.09653  0.28131  0.40088  1.0000
  H   H96       1.0  0.12486  0.47565  0.42573  1.0000
  C   C93       1.0  0.06782  0.06623  0.53292  1.0000
  C   C94       1.0  0.08166  0.19474  0.43912  1.0000
  N   N8        1.0  0.34854  0.08989  0.52094  1.0000
  C   C95       1.0  0.32371  0.06593  0.51453  1.0000
  C   C96       1.0  0.35601  0.11836  0.50953  1.0000
  H   H97       1.0  0.10295  0.19319  0.45101  1.0000
  C   C97       1.0  0.33890  0.12313  0.49103  1.0000
  C   C98       1.0  0.31383  0.09866  0.48429  1.0000
  C   C99       1.0  0.36576  0.08636  0.54062  1.0000
  C   C100      1.0  0.50508  0.27369  0.50040  1.0000
  H   H98       1.0  0.34671  0.13541  0.61979  1.0000
  H   H99       1.0  0.07066  0.08759  0.52250  1.0000
  H   H100      1.0  0.51270  0.34885  0.52194  1.0000
  C   C101      1.0  0.51925  0.23996  0.53012  1.0000
  C   C102      1.0  0.10941  0.25118  0.43171  1.0000
  C   C103      1.0  0.03394  0.05953  0.54182  1.0000
  C   C104      1.0  0.05625  0.51307  0.53444  1.0000
  S   S38       1.0  0.50680  0.22182  0.55335  1.0000
  S   S39       1.0  0.43752  0.04770  0.67681  1.0000
  H   H101      1.0  0.10414  0.15074  0.36846  1.0000
  N   N9        1.0  0.08751  0.22439  0.42583  1.0000
  H   H102      1.0  0.34381  0.14650  0.48247  1.0000
  C   C105      1.0  0.49343  0.25574  0.51752  1.0000
  H   H103      1.0  0.33674  0.09335  0.64451  1.0000
  H   H104      1.0  0.07850  0.50324  0.54360  1.0000
  H   H105      1.0  0.10057  0.30326  0.39103  1.0000
  C   C106      1.0  0.06999  0.22552  0.40778  1.0000
  H   H106      1.0  0.12408  0.04932  0.53005  1.0000
  H   H107      1.0  0.31638  0.04422  0.52393  1.0000
  C   C107      1.0  0.35484  0.15595  0.63051  1.0000
  C   C108      1.0  0.11425  0.28001  0.41932  1.0000
  H   H108      1.0  0.06134  0.25416  0.38042  1.0000
  H   H109      1.0  0.35828  0.47159  0.64625  1.0000
  C   C109      1.0  0.35817  0.09567  0.67427  1.0000
  C   C110      1.0  0.35190  0.49481  0.63770  1.0000
  C   C111      1.0  0.48641  0.39069  0.66688  1.0000
  H   H110      1.0  0.29921  0.10272  0.47036  1.0000
  C   C112      1.0  0.40803  0.03729  0.63929  1.0000
  C   C113      1.0  0.36185  0.49690  0.61768  1.0000
  C   C114      1.0  0.09773  0.04454  0.53703  1.0000
  H   H111      1.0  0.35357  0.10546  0.55112  1.0000
  N   N10       1.0  0.02983  0.03168  0.55425  1.0000
  S   S40       1.0  0.39355  0.40398  0.65406  1.0000
  C   C115      1.0  0.07428  0.25391  0.39502  1.0000
  H   H112      1.0  0.13201  0.30106  0.42382  1.0000
  H   H113      1.0  0.08134  0.43569  0.35656  1.0000
  H   H114      1.0  0.44498  0.35877  0.67983  1.0000
  Fe  Fe20      1.0  0.12374  0.34715  0.35204  1.0000
  C   C116      1.0  0.47198  0.36973  0.68192  1.0000
  C   C117      1.0  0.38881  0.14877  0.68291  1.0000
  H   H115      1.0  0.35060  0.06926  0.67789  1.0000
  H   H116      1.0  0.05325  0.20400  0.40293  1.0000
  C   C118      1.0  0.03748  0.39941  0.35260  1.0000
  H   H117      1.0  0.38939  0.18771  0.65988  1.0000
  H   H118      1.0  0.36216  0.06011  0.54710  1.0000
  S   S41       1.0  0.15381  0.02761  0.47914  1.0000
  C   C119      1.0  0.03372  0.02070  0.49464  1.0000
  Fe  Fe21      1.0  0.39683  0.50154  0.70066  1.0000
  C   C120      1.0  0.31021  0.02230  0.73580  1.0000
  Fe  Fe22      1.0  0.43879  0.44302  0.72246  1.0000
  S   S42       1.0  0.39474  0.40382  0.71628  1.0000
  H   H119      1.0  0.03520  0.18897  0.79946  1.0000
  C   C121      1.0  0.27302  0.51667  0.79337  1.0000
  Fe  Fe23      1.0  0.35600  0.44769  0.72482  1.0000
  S   S43       1.0  0.30297  0.44260  0.74219  1.0000
  H   H120      1.0  0.23762  0.13309  0.87720  1.0000
  S   S44       1.0  0.40021  0.48526  0.73284  1.0000
  Fe  Fe24      1.0  0.17699  0.12796  0.82964  1.0000
  S   S45       1.0  0.13319  0.08965  0.83745  1.0000
  S   S46       1.0  0.19218  0.17711  0.84620  1.0000
  Fe  Fe25      1.0  0.20370  0.08551  0.79353  1.0000
  C   C122      1.0  0.12057  0.06356  0.74460  1.0000
  S   S47       1.0  0.24561  0.08690  0.76856  1.0000
  Fe  Fe26      1.0  0.12251  0.08864  0.80421  1.0000
  S   S48       1.0  0.06483  0.08609  0.79149  1.0000
  Fe  Fe27      1.0  0.17622  0.04906  0.83094  1.0000
  H   H121      1.0  0.19457  0.40958  0.81698  1.0000
  S   S49       1.0  0.16338  0.12971  0.79688  1.0000
  S   S50       1.0  0.22098  0.08742  0.82554  1.0000
  Fe  Fe28      1.0  0.19249  0.31152  0.97789  1.0000
  S   S51       1.0  0.15479  0.35762  0.97895  1.0000
  H   H122      1.0  0.19961  0.11029  0.86663  1.0000
  Fe  Fe29      1.0  0.14584  0.27569  0.94570  1.0000
  S   S52       1.0  0.10591  0.32060  0.94408  1.0000
  S   S53       1.0  0.13107  0.22475  0.93060  1.0000
  Fe  Fe30      1.0  0.15566  0.35463  0.94543  1.0000
  S   S54       1.0  0.17189  0.40561  0.93095  1.0000
  Fe  Fe31      1.0  0.10876  0.31923  0.97763  1.0000
  S   S55       1.0  0.05564  0.32522  0.99514  1.0000
  S   S56       1.0  0.19558  0.30978  0.94440  1.0000
  S   S57       1.0  0.14644  0.27306  0.97926  1.0000
  H   H123      1.0  0.03914  0.08720  0.72519  1.0000
  C   C123      1.0  0.31904  0.49131  0.77120  1.0000
  C   C124      1.0  0.05544  0.16386  0.75052  1.0000
  C   C125      1.0  0.12694  0.45652  0.87389  1.0000
  C   C126      1.0  0.11660  0.42255  0.87881  1.0000
  C   C127      1.0  0.12930  0.40672  0.89652  1.0000
  C   C128      1.0  0.15242  0.42485  0.90940  1.0000
  C   C129      1.0  0.16219  0.45898  0.90462  1.0000
  C   C130      1.0  0.14950  0.47477  0.88698  1.0000
  H   H124      1.0  0.09901  0.40829  0.86880  1.0000
  H   H125      1.0  0.12159  0.38041  0.90006  1.0000
  H   H126      1.0  0.17994  0.47326  0.91454  1.0000
  H   H127      1.0  0.18611  0.43942  0.96782  1.0000
  C   C131      1.0  0.17294  0.19115  0.86900  1.0000
  C   C132      1.0  0.14453  0.17320  0.87828  1.0000
  C   C133      1.0  0.13135  0.18431  0.89696  1.0000
  C   C134      1.0  0.14637  0.21343  0.90646  1.0000
  C   C135      1.0  0.17434  0.23165  0.89703  1.0000
  C   C136      1.0  0.18756  0.22050  0.87839  1.0000
  H   H128      1.0  0.13295  0.15065  0.87116  1.0000
  H   H129      1.0  0.10966  0.17010  0.90417  1.0000
  H   H130      1.0  0.18616  0.25404  0.90421  1.0000
  H   H131      1.0  0.20951  0.23453  0.87128  1.0000
  C   C137      1.0  0.29239  0.47053  0.76231  1.0000
  H   H132      1.0  0.16880  0.03926  0.92557  1.0000
  C   C138      1.0  0.04805  0.11536  0.77331  1.0000
  C   C139      1.0  0.26498  0.04885  0.75806  1.0000
  H   H133      1.0  0.04057  0.18074  0.98088  1.0000
  C   C140      1.0  0.10566  0.11097  0.72336  1.0000
  H   H134      1.0  0.23538  0.45644  0.76248  1.0000
  H   H135      1.0  0.08599  0.12499  0.71414  1.0000
  H   H136      1.0  0.30558  0.07721  0.74162  1.0000
  C   C141      1.0  0.03808  0.29254  0.01089  1.0000
  H   H137      1.0  0.15593  0.41295  0.83393  1.0000
  H   H138      1.0  0.31667  0.32014  0.01291  1.0000
  C   C142      1.0  0.48013  0.38969  0.76821  1.0000
  H   H139      1.0  0.47003  0.35836  0.79431  1.0000
  H   H140      1.0  0.45140  0.39509  0.76542  1.0000
  C   C143      1.0  0.22182  0.10858  0.87794  1.0000
  C   C144      1.0  0.19869  0.13100  0.90978  1.0000
  C   C145      1.0  0.30941  0.51410  0.78674  1.0000
  H   H141      1.0  0.49308  0.06666  0.93589  1.0000
  H   H142      1.0  0.46278  0.03342  0.96307  1.0000
  H   H143      1.0  0.23163  0.42125  0.88994  1.0000
  H   H144      1.0  0.26957  0.47356  0.88372  1.0000
  C   C146      1.0  0.26702  0.44477  0.99088  1.0000
  H   H145      1.0  0.03158  0.23750  0.77505  1.0000
  C   C147      1.0  0.25173  0.46367  0.87213  1.0000
  H   H146      1.0  0.07231  0.18428  0.74452  1.0000
  H   H147      1.0  0.18734  0.43168  0.99435  1.0000
  H   H148      1.0  0.32382  0.44130  0.99982  1.0000
  S   S58       1.0  0.43945  0.46313  0.69089  1.0000
  N   N11       1.0  0.09579  0.08114  0.73294  1.0000
  H   H149      1.0  0.24066  0.08689  0.87389  1.0000
  H   H150      1.0  0.29152  0.51766  0.71892  1.0000
  H   H151      1.0  0.34710  0.48977  0.76616  1.0000
  H   H152      1.0  0.21823  0.49743  0.78945  1.0000
  H   H153      1.0  0.48651  0.51335  0.97504  1.0000
  C   C148      1.0  0.51512  0.10490  0.95598  1.0000
  H   H154      1.0  0.49643  0.32690  0.72270  1.0000
  H   H155      1.0  0.20640  0.15696  0.90525  1.0000
  C   C149      1.0  0.26167  0.34086  0.01107  1.0000
  H   H156      1.0  0.28439  0.36030  0.96153  1.0000
  H   H157      1.0  0.05116  0.23772  0.94586  1.0000
  H   H158      1.0  0.51392  0.42736  0.81080  1.0000
  H   H159      1.0  0.46293  0.36087  0.72649  1.0000
  C   C150      1.0  0.30227  0.43017  0.99072  1.0000
  N   N12       1.0  0.20422  0.43972  0.84286  1.0000
  C   C151      1.0  0.22547  0.46802  0.83919  1.0000
  C   C152      1.0  0.20706  0.42245  0.86064  1.0000
  C   C153      1.0  0.24945  0.48050  0.85374  1.0000
  H   H160      1.0  0.46813  0.05373  0.99811  1.0000
  S   S59       1.0  0.11304  0.47463  0.85080  1.0000
  C   C154      1.0  0.17946  0.42702  0.82731  1.0000
  H   H161      1.0  0.22359  0.48152  0.82506  1.0000
  C   C155      1.0  0.15626  0.07584  0.74694  1.0000
  S   S60       1.0  0.49542  0.43150  0.73550  1.0000
  S   S61       1.0  0.16173  0.04433  0.79846  1.0000
  C   C156      1.0  0.14094  0.12437  0.72574  1.0000
  H   H162      1.0  0.26184  0.46731  0.00017  1.0000
  H   H163      1.0  0.22314  0.38769  0.96176  1.0000
  H   H164      1.0  0.04856  0.05569  0.74411  1.0000
  C   C157      1.0  0.05910  0.06682  0.72995  1.0000
  H   H165      1.0  0.17436  0.14897  0.93724  1.0000
  C   C158      1.0  0.24637  0.49569  0.78460  1.0000
  H   H166      1.0  0.15735  0.50102  0.88351  1.0000
  N   N13       1.0  0.23918  0.42990  0.98029  1.0000
  C   C159      1.0  0.24536  0.40017  0.96964  1.0000
  C   C160      1.0  0.23063  0.43429  0.87559  1.0000
  C   C161      1.0  0.28017  0.38471  0.96927  1.0000
  C   C162      1.0  0.49490  0.07536  0.95123  1.0000
  H   H167      1.0  0.16727  0.44904  0.81878  1.0000
  C   C163      1.0  0.20190  0.44417  0.98175  1.0000
  C   C164      1.0  0.16637  0.10658  0.73760  1.0000
  H   H168      1.0  0.07883  0.22354  0.96669  1.0000
  H   H169      1.0  0.38516  0.10430  0.70236  1.0000
  C   C165      1.0  0.50316  0.49013  0.97696  1.0000
  H   H170      1.0  0.06323  0.26740  0.96560  1.0000
  S   S62       1.0  0.35010  0.46673  0.69333  1.0000
  C   C166      1.0  0.06964  0.14188  0.76551  1.0000
  H   H171      1.0  0.20217  0.47267  0.98408  1.0000
  H   H172      1.0  0.14849  0.14838  0.71847  1.0000
  N   N14       1.0  0.20564  0.10322  0.89764  1.0000
  H   H173      1.0  0.40430  0.16417  0.69343  1.0000
  C   C167      1.0  0.50676  0.40399  0.75580  1.0000
  C   C168      1.0  0.49076  0.36887  0.78458  1.0000
  H   H174      1.0  0.09734  0.14530  0.77088  1.0000
  C   C169      1.0  0.30877  0.39985  0.97990  1.0000
  C   C170      1.0  0.25612  0.47252  0.76925  1.0000
  C   C171      1.0  0.51209  0.43438  0.99266  1.0000
  C   C172      1.0  0.29464  0.05185  0.74487  1.0000
  H   H175      1.0  0.33551  0.38735  0.98040  1.0000
  S   S63       1.0  0.24641  0.30760  0.99497  1.0000
  C   C173      1.0  0.47786  0.05681  0.96643  1.0000
  H   H176      1.0  0.20030  0.04872  0.89339  1.0000
  H   H177      1.0  0.19020  0.40002  0.86361  1.0000
  C   C174      1.0  0.48067  0.06826  0.98608  1.0000
  H   H178      1.0  0.19392  0.11650  0.73960  1.0000
  H   H179      1.0  0.50403  0.10604  0.00569  1.0000
  H   H180      1.0  0.45350  0.32569  0.70955  1.0000
  H   H181      1.0  0.46348  0.46585  0.99620  1.0000
  C   C175      1.0  0.50101  0.09793  0.99028  1.0000
  C   C176      1.0  0.47520  0.34319  0.71520  1.0000
  H   H182      1.0  0.17603  0.06165  0.75596  1.0000
  H   H183      1.0  0.26563  0.50345  0.85079  1.0000
  C   C177      1.0  0.05526  0.24032  0.96221  1.0000
  H   H184      1.0  0.20984  0.36776  0.01249  1.0000
  C   C178      1.0  0.19511  0.07064  0.90315  1.0000
  H   H185      1.0  0.51160  0.39164  0.83919  1.0000
  H   H186      1.0  0.08431  0.25788  0.00798  1.0000
  C   C179      1.0  0.48985  0.46327  0.98886  1.0000
  C   C180      1.0  0.23828  0.36779  0.01705  1.0000
  C   C181      1.0  0.05732  0.26157  0.01428  1.0000
  C   C182      1.0  0.37774  0.11538  0.68801  1.0000
  N   N15       1.0  0.49133  0.36371  0.69910  1.0000
  H   H187      1.0  0.50279  0.41442  0.00284  1.0000
  H   H188      1.0  0.13152  0.02763  0.87159  1.0000
  C   C183      1.0  0.18057  0.12660  0.92794  1.0000
  H   H189      1.0  0.11278  0.03998  0.75227  1.0000
  H   H190      1.0  0.33285  0.02503  0.72558  1.0000
  H   H191      1.0  0.06006  0.04624  0.71840  1.0000
  N   N16       1.0  0.02167  0.23141  0.97290  1.0000
  C   C184      1.0  0.16987  0.09342  0.93373  1.0000
  N   N17       1.0  0.51859  0.11534  0.97538  1.0000
  C   C185      1.0  0.17725  0.06518  0.92130  1.0000
  H   H192      1.0  0.15564  0.08962  0.94774  1.0000
  C   C186      1.0  0.29845  0.34097  0.01744  1.0000
  Fe  Fe32      1.0  0.39276  0.42676  0.68537  1.0000
  H   H193      1.0  0.46325  0.60559  0.12175  1.0000
  S   S64       1.0  0.42125  0.97402  0.08999  1.0000
  C   C187      1.0  0.49309  0.62428  0.27484  1.0000
  Fe  Fe33      1.0  0.33639  0.96515  0.05432  1.0000
  S   S65       1.0  0.37552  0.92106  0.05997  1.0000
  H   H194      1.0  0.07726  0.76471  0.07361  1.0000
  Fe  Fe34      1.0  0.37370  0.93707  0.09231  1.0000
  S   S66       1.0  0.35664  0.90592  0.11960  1.0000
  Fe  Fe35      1.0  0.41953  0.96173  0.05700  1.0000
  S   S67       1.0  0.46501  0.95159  0.03453  1.0000
  S   S68       1.0  0.33093  0.97847  0.08661  1.0000
  H   H195      1.0  0.30276  0.89306  0.03705  1.0000
  Fe  Fe36      1.0  0.41544  0.74422  0.18665  1.0000
  S   S69       1.0  0.37013  0.70508  0.18478  1.0000
  S   S70       1.0  0.43510  0.77498  0.15983  1.0000
  Fe  Fe37      1.0  0.44194  0.71673  0.22754  1.0000
  S   S71       1.0  0.39837  0.67643  0.22860  1.0000
  H   H196      1.0  0.41612  0.61904  0.09613  1.0000
  Fe  Fe38      1.0  0.41150  0.66653  0.19641  1.0000
  S   S72       1.0  0.42820  0.61250  0.18636  1.0000
  Fe  Fe39      1.0  0.36087  0.71879  0.21721  1.0000
  S   S73       1.0  0.30393  0.72075  0.23083  1.0000
  S   S74       1.0  0.45748  0.70448  0.19609  1.0000
  S   S75       1.0  0.40377  0.76040  0.21838  1.0000
  Fe  Fe40      1.0  0.19309  0.83501  0.30553  1.0000
  S   S76       1.0  0.15962  0.78659  0.30614  1.0000
  S   S77       1.0  0.24272  0.84252  0.28563  1.0000
  Fe  Fe41      1.0  0.14846  0.86861  0.33961  1.0000
  H   H197      1.0  0.07672  0.80148  0.03354  1.0000
  Fe  Fe42      1.0  0.16584  0.79066  0.33941  1.0000
  Fe  Fe43      1.0  0.11080  0.82224  0.30954  1.0000
  S   S78       1.0  0.05404  0.81630  0.29605  1.0000
  C   C188      1.0  0.33799  0.98684  0.17456  1.0000
  S   S79       1.0  0.14378  0.87050  0.30618  1.0000
  S   S80       1.0  0.11356  0.82120  0.34303  1.0000
  C   C189      1.0  0.47527  0.57487  0.22696  1.0000
  H   H198      1.0  0.23880  0.74502  0.30724  1.0000
  C   C190      1.0  0.49227  0.53294  0.02521  1.0000
  H   H199      1.0  0.25301  0.78658  0.31550  1.0000
  C   C191      1.0  0.04759  0.89476  0.25556  1.0000
  N   N18       1.0  0.40877  0.69197  0.12406  1.0000
  C   C192      1.0  0.28593  0.75641  0.24434  1.0000
  C   C193      1.0  0.25188  0.75291  0.25382  1.0000
  C   C194      1.0  0.23783  0.77950  0.26604  1.0000
  C   C195      1.0  0.25766  0.80996  0.26882  1.0000
  C   C196      1.0  0.29116  0.81396  0.25881  1.0000
  C   C197      1.0  0.30536  0.78724  0.24667  1.0000
  H   H200      1.0  0.23652  0.72928  0.25192  1.0000
  H   H201      1.0  0.21175  0.77631  0.27334  1.0000
  H   H202      1.0  0.30656  0.83755  0.26076  1.0000
  H   H203      1.0  0.33148  0.79034  0.23933  1.0000
  N   N19       1.0  0.50771  0.59677  0.22885  1.0000
  C   C198      1.0  0.50165  0.68386  0.26420  1.0000
  H   H204      1.0  0.35133  0.97558  0.18754  1.0000
  C   C199      1.0  0.42219  0.63787  0.10770  1.0000
  C   C200      1.0  0.26186  0.75898  0.31439  1.0000
  H   H205      1.0  0.36378  0.72501  0.11527  1.0000
  C   C201      1.0  0.41279  0.81133  0.14888  1.0000
  C   C202      1.0  0.42868  0.82710  0.13212  1.0000
  C   C203      1.0  0.41182  0.85599  0.12288  1.0000
  C   C204      1.0  0.37884  0.86933  0.13035  1.0000
  C   C205      1.0  0.36287  0.85343  0.14705  1.0000
  C   C206      1.0  0.37971  0.82452  0.15627  1.0000
  H   H206      1.0  0.45431  0.81708  0.12631  1.0000
  H   H207      1.0  0.42442  0.86802  0.11007  1.0000
  H   H208      1.0  0.33729  0.86348  0.15289  1.0000
  H   H209      1.0  0.36715  0.81257  0.16912  1.0000
  C   C207      1.0  0.38560  0.56368  0.12853  1.0000
  C   C208      1.0  0.36871  0.59373  0.13619  1.0000
  C   C209      1.0  0.38105  0.60867  0.15409  1.0000
  C   C210      1.0  0.41022  0.59343  0.16454  1.0000
  C   C211      1.0  0.42647  0.56285  0.15718  1.0000
  C   C212      1.0  0.41429  0.54804  0.13920  1.0000
  H   H210      1.0  0.34641  0.60586  0.12803  1.0000
  H   H211      1.0  0.36819  0.63209  0.15969  1.0000
  H   H212      1.0  0.47493  0.55411  0.23844  1.0000
  C   C213      1.0  0.32037  0.78190  0.30242  1.0000
  H   H213      1.0  0.46439  0.53570  0.03049  1.0000
  H   H214      1.0  0.37887  0.72993  0.14052  1.0000
  H   H215      1.0  0.26614  0.74857  0.32967  1.0000
  H   H216      1.0  0.45342  0.65408  0.25798  1.0000
  H   H217      1.0  0.04172  0.73405  0.06733  1.0000
  S   S81       1.0  0.37193  0.54838  0.10487  1.0000
  C   C214      1.0  0.10596  0.69742  0.34429  1.0000
  C   C215      1.0  0.48007  0.65416  0.26503  1.0000
  H   H218      1.0  0.47487  0.64770  0.14911  1.0000
  H   H219      1.0  0.44010  0.70302  0.15013  1.0000
  C   C216      1.0  0.07369  0.96578  0.29216  1.0000
  C   C217      1.0  0.30251  0.72551  0.29236  1.0000
  H   H220      1.0  0.07569  0.74400  0.04935  1.0000
  N   N20       1.0  0.03618  0.78420  0.05408  1.0000
  C   C218      1.0  0.49687  0.01626  0.03811  1.0000
  H   H221      1.0  0.09949  0.93556  0.31526  1.0000
  H   H222      1.0  0.09827  0.98024  0.28880  1.0000
  C   C219      1.0  0.35983  0.74860  0.28064  1.0000
  C   C220      1.0  0.45515  0.65384  0.13747  1.0000
  C   C221      1.0  0.44870  0.63027  0.12211  1.0000
  H   H223      1.0  0.27228  0.01220  0.11452  1.0000
  N   N21       1.0  0.04381  0.92094  0.31075  1.0000
  S   S82       1.0  0.38021  0.00469  0.04958  1.0000
  H   H224      1.0  0.44898  0.55085  0.16523  1.0000
  C   C222      1.0  0.04134  0.97210  0.28155  1.0000
  C   C223      1.0  0.35281  0.77888  0.29141  1.0000
  H   H225      1.0  0.06613  0.91294  0.24870  1.0000
  C   C224      1.0  0.28223  0.89697  0.02558  1.0000
  C   C225      1.0  0.31447  0.98137  0.14109  1.0000
  C   C226      1.0  0.33118  0.96641  0.15784  1.0000
  C   C227      1.0  0.07431  0.94022  0.30697  1.0000
  H   H226      1.0  0.30969  0.96525  0.12811  1.0000
  H   H227      1.0  0.33926  0.93921  0.15764  1.0000
  C   C228      1.0  0.02852  0.83376  0.03266  1.0000
  C   C229      1.0  0.40236  0.66904  0.10889  1.0000
  H   H228      1.0  0.28263  0.70481  0.29222  1.0000
  C   C230      1.0  0.33458  0.72169  0.28113  1.0000
  C   C231      1.0  0.43497  0.68484  0.13814  1.0000
  H   H229      1.0  0.37182  0.80030  0.29072  1.0000
  H   H230      1.0  0.08163  0.69089  0.33512  1.0000
  N   N22       1.0  0.29557  0.75551  0.30264  1.0000
  H   H231      1.0  0.44979  0.59062  0.22888  1.0000
  H   H232      1.0  0.07218  0.88066  0.32613  1.0000
  H   H233      1.0  0.33910  0.69862  0.27216  1.0000
  C   C232      1.0  0.38840  0.72490  0.12504  1.0000
  Fe  Fe44      1.0  0.37821  0.01419  0.08258  1.0000
  C   C233      1.0  0.49568  0.98489  0.02770  1.0000
  C   C234      1.0  0.04974  0.80601  0.03984  1.0000
  C   C235      1.0  0.06138  0.87018  0.26919  1.0000
  S   S83       1.0  0.20138  0.83799  0.33876  1.0000
  C   C236      1.0  0.26959  0.93049  0.02122  1.0000
  H   H234      1.0  0.31449  0.80598  0.31021  1.0000
  H   H235      1.0  0.38427  0.74631  0.27148  1.0000
  H   H236      1.0  0.38148  0.67446  0.09776  1.0000
  C   C237      1.0  0.03773  0.84672  0.27830  1.0000
  H   H237      1.0  0.48324  0.63834  0.21254  1.0000
  H   H238      1.0  0.47448  0.56298  0.21187  1.0000
  H   H239      1.0  0.09037  0.86926  0.27253  1.0000
  H   H240      1.0  0.04059  0.99112  0.26961  1.0000
  H   H241      1.0  0.40648  0.74662  0.12058  1.0000
  S   S84       1.0  0.48692  0.72109  0.25090  1.0000
  H   H242      1.0  0.47635  0.60128  0.27516  1.0000
  H   H243      1.0  0.15967  0.64991  0.34096  1.0000
  S   S85       1.0  0.28815  0.96743  0.03292  1.0000
  C   C238      1.0  0.05896  0.75546  0.06155  1.0000
  C   C239      1.0  0.50742  0.62898  0.22031  1.0000
  H   H244      1.0  0.12935  0.70300  0.33422  1.0000
  C   C240      1.0  0.04518  0.89412  0.32622  1.0000
  H   H245      1.0  0.42747  0.52490  0.13342  1.0000
  H   H246      1.0  0.02439  0.87372  0.32356  1.0000
  H   H247      1.0  0.04114  0.90595  0.34113  1.0000
  H   H248      1.0  0.03886  0.85014  0.02079  1.0000
  H   H249      1.0  0.02780  0.87051  0.16566  1.0000
  N   N23       1.0  0.30470  0.01572  0.14101  1.0000
  H   H250      1.0  0.19080  0.89783  0.37951  1.0000
  C   C241      1.0  0.45014  0.81217  0.58315  1.0000
  Fe  Fe45      1.0  0.44778  0.71487  0.56718  1.0000
  S   S86       1.0  0.39552  0.74380  0.56111  1.0000
  C   C242      1.0  0.06369  0.52640  0.51535  1.0000
  Fe  Fe46      1.0  0.40824  0.65734  0.58981  1.0000
  S   S87       1.0  0.35256  0.68222  0.58545  1.0000
  S   S88       1.0  0.41902  0.60356  0.60257  1.0000
  Fe  Fe47      1.0  0.37092  0.69194  0.55396  1.0000
  S   S89       1.0  0.33732  0.69119  0.52525  1.0000
  Fe  Fe48      1.0  0.38173  0.73200  0.59298  1.0000
  S   S90       1.0  0.35537  0.77515  0.61106  1.0000
  S   S91       1.0  0.42477  0.66373  0.55766  1.0000
  S   S92       1.0  0.43584  0.70630  0.59969  1.0000
  Fe  Fe49      1.0  0.09891  0.56784  0.46678  1.0000
  C   C243      1.0  0.14753  0.57086  0.53261  1.0000
  C   C244      1.0  0.12936  0.61417  0.38399  1.0000
  Fe  Fe50      1.0  0.13588  0.62833  0.44499  1.0000
  S   S93       1.0  0.18937  0.59959  0.44187  1.0000
  S   S94       1.0  0.12119  0.68270  0.43462  1.0000
  Fe  Fe51      1.0  0.15419  0.55398  0.43327  1.0000
  C   C245      1.0  0.15461  0.66593  0.52214  1.0000
  Fe  Fe52      1.0  0.18007  0.58226  0.47352  1.0000
  S   S95       1.0  0.22005  0.57783  0.49961  1.0000
  S   S96       1.0  0.10137  0.58410  0.43465  1.0000
  S   S97       1.0  0.12913  0.61468  0.47730  1.0000
  H   H251      1.0  0.07197  0.68314  0.37834  1.0000
  C   C246      1.0  0.47439  0.84914  0.60811  1.0000
  C   C247      1.0  0.14205  0.70055  0.41329  1.0000
  C   C248      1.0  0.12750  0.73117  0.40496  1.0000
  C   C249      1.0  0.14189  0.74477  0.38718  1.0000
  C   C250      1.0  0.17102  0.72781  0.37767  1.0000
  C   C251      1.0  0.18617  0.69771  0.38627  1.0000
  C   C252      1.0  0.17173  0.68408  0.40401  1.0000
  H   H252      1.0  0.10463  0.74410  0.41213  1.0000
  H   H253      1.0  0.13011  0.76804  0.38070  1.0000
  C   C253      1.0  0.43066  0.69712  0.50525  1.0000
  H   H254      1.0  0.18328  0.66061  0.41036  1.0000
  C   C254      1.0  0.17936  0.96824  0.41003  1.0000
  C   C255      1.0  0.19433  0.93734  0.40232  1.0000
  C   C256      1.0  0.17930  0.92181  0.38520  1.0000
  C   C257      1.0  0.14931  0.93730  0.37556  1.0000
  C   C258      1.0  0.13481  0.96856  0.38304  1.0000
  C   C259      1.0  0.14972  0.98398  0.40022  1.0000
  H   H255      1.0  0.21745  0.92514  0.40975  1.0000
  H   H256      1.0  0.08037  0.59559  0.52536  1.0000
  H   H257      1.0  0.11169  0.98077  0.37562  1.0000
  H   H258      1.0  0.11630  0.99906  0.55293  1.0000
  C   C260      1.0  0.30444  0.65959  0.51861  1.0000
  C   C261      1.0  0.28306  0.66474  0.50136  1.0000
  C   C262      1.0  0.25713  0.63998  0.49531  1.0000
  C   C263      1.0  0.25266  0.60958  0.50637  1.0000
  C   C264      1.0  0.27385  0.60452  0.52370  1.0000
  C   C265      1.0  0.29955  0.62943  0.52985  1.0000
  H   H259      1.0  0.28664  0.68799  0.49257  1.0000
  H   H260      1.0  0.24092  0.64426  0.48198  1.0000
  H   H261      1.0  0.27053  0.58109  0.53235  1.0000
  H   H262      1.0  0.31589  0.62511  0.54311  1.0000
  C   C266      1.0  0.38051  0.79941  0.62870  1.0000
  C   C267      1.0  0.36414  0.82878  0.63747  1.0000
  C   C268      1.0  0.38413  0.84998  0.65059  1.0000
  C   C269      1.0  0.42063  0.84176  0.65512  1.0000
  C   C270      1.0  0.43671  0.81190  0.64675  1.0000
  C   C271      1.0  0.41682  0.79089  0.63352  1.0000
  H   H263      1.0  0.33602  0.83546  0.63386  1.0000
  H   H264      1.0  0.12696  0.55795  0.54220  1.0000
  H   H265      1.0  0.46487  0.80529  0.65026  1.0000
  H   H266      1.0  0.42963  0.76825  0.62698  1.0000
  C   C272      1.0  0.40121  0.57167  0.66772  1.0000
  C   C273      1.0  0.41841  0.54912  0.65429  1.0000
  C   C274      1.0  0.42489  0.55979  0.63457  1.0000
  C   C275      1.0  0.41433  0.59306  0.62809  1.0000
  C   C276      1.0  0.39795  0.61597  0.64163  1.0000
  C   C277      1.0  0.39142  0.60526  0.66139  1.0000
  C   C278      1.0  0.03505  0.53910  0.50346  1.0000
  H   H267      1.0  0.43764  0.54197  0.62419  1.0000
  H   H268      1.0  0.38982  0.64171  0.63683  1.0000
  H   H269      1.0  0.37834  0.62295  0.67173  1.0000
  H   H270      1.0  0.49010  0.74362  0.46618  1.0000
  H   H271      1.0  0.31477  0.57522  0.64295  1.0000
  C   C279      1.0  0.47346  0.73001  0.47703  1.0000
  C   C280      1.0  0.41396  0.71885  0.49125  1.0000
  H   H272      1.0  0.20881  0.68453  0.37904  1.0000
  H   H273      1.0  0.38441  0.72277  0.49157  1.0000
  C   C281      1.0  0.48756  0.77112  0.52541  1.0000
  C   C282      1.0  0.10127  0.61540  0.52498  1.0000
  H   H274      1.0  0.45911  0.76839  0.52958  1.0000
  C   C283      1.0  0.15051  0.61857  0.36691  1.0000
  H   H275      1.0  0.13569  0.59322  0.39428  1.0000
  H   H276      1.0  0.06276  0.65559  0.51629  1.0000
  H   H277      1.0  0.42281  0.75282  0.46621  1.0000
  H   H278      1.0  0.08495  0.63492  0.40161  1.0000
  N   N24       1.0  0.12649  0.92315  0.43936  1.0000
  C   C284      1.0  0.11821  0.94962  0.45220  1.0000
  C   C285      1.0  0.10569  0.91801  0.42263  1.0000
  C   C286      1.0  0.08891  0.97228  0.44821  1.0000
  C   C287      1.0  0.07621  0.94021  0.41818  1.0000
  C   C288      1.0  0.06791  0.96757  0.43106  1.0000
  C   C289      1.0  0.15735  0.89980  0.44395  1.0000
  H   H279      1.0  0.13491  0.95382  0.46536  1.0000
  H   H280      1.0  0.11253  0.89736  0.41226  1.0000
  H   H281      1.0  0.08276  0.99364  0.45821  1.0000
  H   H282      1.0  0.06061  0.93668  0.40456  1.0000
  H   H283      1.0  0.34392  0.58748  0.59039  1.0000
  H   H284      1.0  0.14958  0.88141  0.45591  1.0000
  H   H285      1.0  0.10039  0.72180  0.35263  1.0000
  H   H286      1.0  0.18153  0.91500  0.44887  1.0000
  C   C290      1.0  0.41659  0.83004  0.58370  1.0000
  H   H287      1.0  0.04550  0.98537  0.42771  1.0000
  N   N25       1.0  0.47833  0.82158  0.59540  1.0000
  S   S98       1.0  0.04272  0.55444  0.47907  1.0000
  H   H288      1.0  0.38592  0.87122  0.59778  1.0000
  C   C291      1.0  0.49680  0.78823  0.50761  1.0000
  C   C292      1.0  0.09112  0.64934  0.51980  1.0000
  S   S99       1.0  0.19673  0.98481  0.43271  1.0000
  H   H289      1.0  0.17599  0.68514  0.52060  1.0000
  H   H290      1.0  0.47528  0.79860  0.49814  1.0000
  N   N26       1.0  0.48963  0.70904  0.49106  1.0000
  C   C293      1.0  0.04516  0.96879  0.51442  1.0000
  C   C294      1.0  0.10073  0.63735  0.38800  1.0000
  H   H291      1.0  0.19227  0.62514  0.52999  1.0000
  C   C295      1.0  0.32822  0.58631  0.60457  1.0000
  H   H292      1.0  0.06390  0.94876  0.51956  1.0000
  H   H293      1.0  0.08592  0.99436  0.49649  1.0000
  N   N27       1.0  0.11461  0.66898  0.35812  1.0000
  H   H294      1.0  0.16622  0.88484  0.43062  1.0000
  N   N28       1.0  0.33714  0.55488  0.61600  1.0000
  C   C296      1.0  0.51517  0.75702  0.53749  1.0000
  C   C297      1.0  0.44138  0.86788  0.60884  1.0000
  C   C298      1.0  0.16371  0.63183  0.52742  1.0000
  C   C299      1.0  0.05769  0.99458  0.50129  1.0000
  H   H295      1.0  0.39368  0.82150  0.57465  1.0000
  H   H296      1.0  0.36274  0.52904  0.59152  1.0000
  H   H297      1.0  0.17465  0.56883  0.54015  1.0000
  S   S100      1.0  0.44811  0.86934  0.66982  1.0000
  C   C300      1.0  0.11806  0.67468  0.51828  1.0000
  C   C301      1.0  0.41224  0.85801  0.59666  1.0000
  H   H298      1.0  0.48153  0.67619  0.51628  1.0000
  S   S101      1.0  0.14923  0.53391  0.46472  1.0000
  C   C302      1.0  0.09337  0.01638  0.54986  1.0000
  H   H299      1.0  0.45343  0.79027  0.57317  1.0000
  N   N29       1.0  0.13719  0.60706  0.52872  1.0000
  H   H300      1.0  0.39916  0.01226  0.64460  1.0000
  H   H301      1.0  0.05559  0.98794  0.56804  1.0000
  H   H302      1.0  0.41404  0.68405  0.51625  1.0000
  S   S102      1.0  0.50488  0.73322  0.55923  1.0000
  H   H303      1.0  0.49627  0.85620  0.61823  1.0000
  C   C303      1.0  0.09366  0.66473  0.37481  1.0000
  H   H304      1.0  0.37146  0.87289  0.65696  1.0000
  H   H305      1.0  0.13802  0.00778  0.40598  1.0000
  H   H306      1.0  0.29850  0.58731  0.60107  1.0000
  H   H307      1.0  0.11076  0.70084  0.51369  1.0000
  C   C304      1.0  0.35422  0.52733  0.60696  1.0000
  C   C305      1.0  0.43544  0.73550  0.47703  1.0000
  H   H308      1.0  0.33590  0.60982  0.61315  1.0000
  S   S103      1.0  0.38176  0.95578  0.68057  1.0000
  H   H309      1.0  0.43785  0.88885  0.61948  1.0000
  H   H310      1.0  0.14978  0.55670  0.51822  1.0000
  C   C306      1.0  0.32733  0.55304  0.63564  1.0000
  C   C307      1.0  0.05902  0.01030  0.55840  1.0000
  C   C308      1.0  0.46875  0.69256  0.50502  1.0000
  S   S104      1.0  0.12793  0.91784  0.35477  1.0000
  S   S105      1.0  0.16791  0.52678  0.40408  1.0000
  H   H311      1.0  0.17318  0.60089  0.36396  1.0000
  H   H312      1.0  0.50673  0.77381  0.59922  1.0000
  C   C309      1.0  0.51243  0.80116  0.59501  1.0000
  H   H313      1.0  0.09142  0.52636  0.50968  1.0000
  C   C310      1.0  0.33457  0.52305  0.64678  1.0000
  S   S106      1.0  0.18733  0.74168  0.35426  1.0000
  C   C311      1.0  0.14267  0.64625  0.35401  1.0000
  H   H314      1.0  0.42620  0.52326  0.65901  1.0000
  H   H315      1.0  0.32798  0.52222  0.66253  1.0000
  C   C312      1.0  0.50031  0.88408  0.75394  1.0000
  N   N30       1.0  0.25194  0.56712  0.75477  1.0000
  Fe  Fe53      1.0  0.45149  0.95199  0.72500  1.0000
  S   S107      1.0  0.41094  0.90989  0.71952  1.0000
  C   C313      1.0  0.31917  0.55678  0.73603  1.0000
  H   H316      1.0  0.45828  0.94503  0.79036  1.0000
  Fe  Fe54      1.0  0.37044  0.95337  0.71366  1.0000
  S   S108      1.0  0.31452  0.95173  0.72839  1.0000
  C   C314      1.0  0.36676  0.91552  0.76739  1.0000
  H   H317      1.0  0.29961  0.86357  0.96837  1.0000
  Fe  Fe55      1.0  0.15625  0.60063  0.85157  1.0000
  S   S109      1.0  0.10374  0.57685  0.84030  1.0000
  S   S110      1.0  0.15771  0.63139  0.88052  1.0000
  Fe  Fe56      1.0  0.20372  0.55841  0.82228  1.0000
  H   H318      1.0  0.39223  0.01480  0.77559  1.0000
  S   S111      1.0  0.26200  0.54713  0.81219  1.0000
  Fe  Fe57      1.0  0.12816  0.58455  0.80978  1.0000
  S   S112      1.0  0.10221  0.59832  0.77993  1.0000
  C   C315      1.0  0.26849  0.86847  0.01489  1.0000
  Fe  Fe58      1.0  0.42442  0.99484  0.68932  1.0000
  S   S113      1.0  0.17857  0.61190  0.82093  1.0000
  S   S114      1.0  0.18644  0.54953  0.85391  1.0000
  Fe  Fe59      1.0  0.18024  0.84361  0.96402  1.0000
  S   S115      1.0  0.13191  0.87792  0.97111  1.0000
  S   S116      1.0  0.22873  0.83749  0.98508  1.0000
  Fe  Fe60      1.0  0.14794  0.81921  0.92454  1.0000
  S   S117      1.0  0.09722  0.85157  0.92896  1.0000
  S   S118      1.0  0.15109  0.79439  0.89386  1.0000
  Fe  Fe61      1.0  0.13490  0.89364  0.93886  1.0000
  S   S119      1.0  0.12198  0.94844  0.92850  1.0000
  Fe  Fe62      1.0  0.09827  0.83295  0.96062  1.0000
  S   S120      1.0  0.46924  0.95534  0.69321  1.0000
  S   S121      1.0  0.18596  0.86278  0.93244  1.0000
  S   S122      1.0  0.14621  0.79695  0.95556  1.0000
  C   C316      1.0  0.05341  0.63577  0.75728  1.0000
  H   H319      1.0  0.12811  0.86520  0.88956  1.0000
  H   H320      1.0  0.20093  0.59414  0.75613  1.0000
  C   C317      1.0  0.17449  0.98893  0.87130  1.0000
  C   C318      1.0  0.19007  0.96051  0.88138  1.0000
  C   C319      1.0  0.17446  0.94820  0.89909  1.0000
  C   C320      1.0  0.14335  0.96449  0.90694  1.0000
  C   C321      1.0  0.12841  0.99367  0.89721  1.0000
  C   C322      1.0  0.14378  0.00577  0.87932  1.0000
  H   H321      1.0  0.21394  0.94753  0.87527  1.0000
  H   H322      1.0  0.18637  0.92598  0.90659  1.0000
  H   H323      1.0  0.19942  0.54955  0.76439  1.0000
  C   C323      1.0  0.28875  0.53755  0.73027  1.0000
  C   C324      1.0  0.15904  0.67691  0.88348  1.0000
  C   C325      1.0  0.15373  0.69964  0.86747  1.0000
  C   C326      1.0  0.15227  0.73568  0.87082  1.0000
  C   C327      1.0  0.15589  0.74921  0.89017  1.0000
  C   C328      1.0  0.16167  0.72651  0.90614  1.0000
  C   C329      1.0  0.16326  0.69052  0.90278  1.0000
  H   H324      1.0  0.15036  0.68944  0.85256  1.0000
  H   H325      1.0  0.14780  0.75309  0.85838  1.0000
  H   H326      1.0  0.16460  0.73662  0.92109  1.0000
  H   H327      1.0  0.16752  0.67309  0.91523  1.0000
  C   C330      1.0  0.29581  0.98948  0.73960  1.0000
  C   C331      1.0  0.26615  0.98645  0.75279  1.0000
  H   H328      1.0  0.51895  0.95542  0.00347  1.0000
  C   C332      1.0  0.03249  0.78676  0.98957  1.0000
  H   H329      1.0  0.34372  0.84342  0.96434  1.0000
  C   C333      1.0  0.06284  0.69098  0.93494  1.0000
  H   H330      1.0  0.25491  0.96114  0.75584  1.0000
  H   H331      1.0  0.07691  0.90744  0.89177  1.0000
  H   H332      1.0  0.11578  0.95672  0.83840  1.0000
  C   C334      1.0  0.39263  0.90190  0.00774  1.0000
  H   H333      1.0  0.17129  0.83708  0.85680  1.0000
  H   H334      1.0  0.33934  0.59594  0.75599  1.0000
  H   H335      1.0  0.34131  0.90759  0.76038  1.0000
  S   S123      1.0  0.04234  0.82189  0.97374  1.0000
  H   H336      1.0  0.38632  0.86335  0.77243  1.0000
  C   C335      1.0  0.24228  0.87328  0.99971  1.0000
  S   S124      1.0  0.49278  0.95506  0.75013  1.0000
  H   H337      1.0  0.08682  0.76445  0.98922  1.0000
  C   C336      1.0  0.22924  0.90674  0.99561  1.0000
  H   H338      1.0  0.42862  0.00474  0.79280  1.0000
  H   H339      1.0  0.22816  0.01328  0.77227  1.0000
  H   H340      1.0  0.21960  0.58143  0.78003  1.0000
  H   H341      1.0  0.41685  0.89622  0.01668  1.0000
  C   C337      1.0  0.05760  0.72326  0.94408  1.0000
  C   C338      1.0  0.09583  0.90847  0.87931  1.0000
  H   H342      1.0  0.27931  0.60467  0.77260  1.0000
  C   C339      1.0  0.06591  0.62854  0.77669  1.0000
  H   H343      1.0  0.05710  0.77864  0.93972  1.0000
  C   C340      1.0  0.28166  0.58611  0.76051  1.0000
  C   C341      1.0  0.42487  0.90145  0.78274  1.0000
  H   H344      1.0  0.10431  0.00636  0.90327  1.0000
  S   S125      1.0  0.19313  0.00102  0.84820  1.0000
  H   H345      1.0  0.07029  0.95340  0.86592  1.0000
  H   H346      1.0  0.23283  0.96104  0.00296  1.0000
  C   C342      1.0  0.41669  0.99789  0.77810  1.0000
  C   C343      1.0  0.02232  0.65696  0.75408  1.0000
  C   C344      1.0  0.31568  0.58122  0.75124  1.0000
  C   C345      1.0  0.06069  0.75343  0.93276  1.0000
  Fe  Fe63      1.0  0.13561  0.52656  0.84103  1.0000
  N   N31       1.0  0.34362  0.88280  0.98649  1.0000
  H   H347      1.0  0.03501  0.54709  0.77970  1.0000
  H   H348      1.0  0.19229  0.85804  0.87783  1.0000
  H   H349      1.0  0.07097  0.71599  0.01204  1.0000
  H   H350      1.0  0.50903  0.82881  0.75627  1.0000
  C   C346      1.0  0.51963  0.97966  0.01156  1.0000
  H   H351      1.0  0.44514  0.88246  0.78765  1.0000
  H   H352      1.0  0.49274  0.58292  0.01059  1.0000
  C   C347      1.0  0.18099  0.86240  0.86259  1.0000
  H   H353      1.0  0.06751  0.62446  0.74465  1.0000
  H   H354      1.0  0.39254  0.95628  0.01491  1.0000
  H   H355      1.0  0.20379  0.87177  0.85312  1.0000
  H   H356      1.0  0.10088  0.64188  0.91242  1.0000
  H   H357      1.0  0.31721  0.83392  0.98646  1.0000
  S   S126      1.0  0.41002  0.99487  0.72184  1.0000
  H   H358      1.0  0.34551  0.55241  0.72888  1.0000
  H   H359      1.0  0.08058  0.65628  0.88958  1.0000
  C   C348      1.0  0.34757  0.94292  0.99558  1.0000
  N   N32       1.0  0.40736  0.96101  0.77746  1.0000
  H   H360      1.0  0.47858  0.88194  0.74302  1.0000
  C   C349      1.0  0.24279  0.93519  0.00637  1.0000
  H   H361      1.0  0.16699  0.91457  0.83705  1.0000
  C   C350      1.0  0.37904  0.93576  0.00673  1.0000
  C   C351      1.0  0.43210  0.93691  0.78432  1.0000
  C   C352      1.0  0.05925  0.76230  0.99498  1.0000
  H   H362      1.0  0.20910  0.91079  0.98395  1.0000
  H   H363      1.0  0.07211  0.77436  0.90364  1.0000
  H   H364      1.0  0.33586  0.96891  0.99550  1.0000
  C   C353      1.0  0.09218  0.93427  0.86484  1.0000
  H   H365      1.0  0.38477  0.84916  0.99861  1.0000
  C   C354      1.0  0.37438  0.87553  0.99751  1.0000
  S   S127      1.0  0.38977  0.55806  0.69208  1.0000
  C   C355      1.0  0.04781  0.64362  0.79290  1.0000
  H   H366      1.0  0.05193  0.63789  0.90852  1.0000
  H   H367      1.0  0.06095  0.66765  0.94390  1.0000
  C   C356      1.0  0.51752  0.85405  0.76148  1.0000
  H   H368      1.0  0.43713  0.00360  0.76629  1.0000
  C   C357      1.0  0.06871  0.75102  0.91249  1.0000
  H   H369      1.0  0.05728  0.63833  0.80790  1.0000
  N   N33       1.0  0.15039  0.88730  0.86321  1.0000
  C   C358      1.0  0.12511  0.88490  0.87815  1.0000
  C   C359      1.0  0.14672  0.91220  0.84877  1.0000
  C   C360      1.0  0.51197  0.91677  0.76015  1.0000
  C   C361      1.0  0.11761  0.93607  0.84937  1.0000
  C   C362      1.0  0.07606  0.65461  0.90595  1.0000
  C   C363      1.0  0.25507  0.54327  0.73974  1.0000
  C   C364      1.0  0.39200  0.89075  0.77415  1.0000
  H   H370      1.0  0.50839  0.88540  0.69630  1.0000
  Fe  Fe64      1.0  0.42579  0.91564  0.68713  1.0000
  C   C365      1.0  0.21624  0.57341  0.76421  1.0000
  C   C366      1.0  0.33016  0.91601  0.98541  1.0000
  C   C367      1.0  0.37501  0.95074  0.76910  1.0000
  H   H371      1.0  0.33023  0.53012  0.79348  1.0000
  H   H372      1.0  0.30506  0.92170  0.97729  1.0000
  N   N34       1.0  0.07042  0.68884  0.91501  1.0000
  C   C368      1.0  0.07326  0.71831  0.90376  1.0000
  C   C369      1.0  0.32530  0.85461  0.97584  1.0000
  C   C370      1.0  0.50834  0.55958  0.01383  1.0000
  H   H373      1.0  0.23174  0.52781  0.73536  1.0000
  C   C371      1.0  0.25093  0.01597  0.76211  1.0000
  H   H374      1.0  0.08011  0.71676  0.88806  1.0000
  H   H375      1.0  0.05139  0.72491  0.95985  1.0000
  H   H376      1.0  0.35558  0.96977  0.76341  1.0000
  S   S128      1.0  0.15507  0.53181  0.80945  1.0000
  C   C372      1.0  0.05024  0.73497  0.00793  1.0000
  H   H377      1.0  0.27845  0.84261  0.01828  1.0000
  Fe  Fe65      1.0  0.63743  0.03970  0.33514  1.0000
  C   C373      1.0  0.73057  0.06145  0.02352  1.0000
  Fe  Fe66      1.0  0.59725  0.08424  0.30350  1.0000
  S   S129      1.0  0.63725  0.12762  0.30647  1.0000
  S   S130      1.0  0.54680  0.08292  0.28355  1.0000
  Fe  Fe67      1.0  0.68084  0.08554  0.30728  1.0000
  S   S131      1.0  0.73486  0.08807  0.29042  1.0000
  Fe  Fe68      1.0  0.63245  0.11851  0.33955  1.0000
  S   S132      1.0  0.64096  0.04298  0.30175  1.0000
  H   H378      1.0  0.83297  0.02412  0.25575  1.0000
  Fe  Fe69      1.0  0.84635  0.45860  0.22376  1.0000
  S   S133      1.0  0.89358  0.49419  0.22933  1.0000
  S   S134      1.0  0.79703  0.45121  0.24403  1.0000
  Fe  Fe70      1.0  0.87631  0.43461  0.18336  1.0000
  S   S135      1.0  0.92557  0.46873  0.18583  1.0000
  S   S136      1.0  0.86332  0.40831  0.15388  1.0000
  Fe  Fe71      1.0  0.92885  0.45059  0.21772  1.0000
  S   S137      1.0  0.98674  0.44295  0.22967  1.0000
  Fe  Fe72      1.0  0.88685  0.50945  0.19716  1.0000
  H   H379      1.0  0.71537  0.04046  0.03113  1.0000
  S   S138      1.0  0.88215  0.41308  0.21446  1.0000
  S   S139      1.0  0.83700  0.47712  0.19241  1.0000
  Fe  Fe73      1.0  0.84850  0.20342  0.06224  1.0000
  S   S140      1.0  0.89011  0.16276  0.05430  1.0000
  C   C374      1.0  0.76962  0.04257  0.21602  1.0000
  Fe  Fe74      1.0  0.88966  0.22453  0.10011  1.0000
  S   S141      1.0  0.93395  0.18454  0.09467  1.0000
  S   S142      1.0  0.89548  0.25133  0.13022  1.0000
  Fe  Fe75      1.0  0.93196  0.20257  0.06282  1.0000
  S   S143      1.0  0.98629  0.20361  0.04622  1.0000
  Fe  Fe76      1.0  0.88853  0.14852  0.08673  1.0000
  S   S144      1.0  0.88421  0.09135  0.09406  1.0000
  S   S145      1.0  0.89052  0.24508  0.06860  1.0000
  S   S146      1.0  0.84420  0.18681  0.09431  1.0000
  C   C375      1.0  0.98437  0.22871  0.13762  1.0000
  C   C376      1.0  0.80183  0.10934  0.06513  1.0000
  C   C377      1.0  0.97039  0.39197  0.25722  1.0000
  C   C378      1.0  0.98707  0.27037  0.03068  1.0000
  H   H380      1.0  0.94220  0.39461  0.25235  1.0000
  C   C379      1.0  0.87472  0.36517  0.14726  1.0000
  C   C380      1.0  0.88904  0.34161  0.16114  1.0000
  C   C381      1.0  0.89510  0.30681  0.15564  1.0000
  C   C382      1.0  0.88718  0.29534  0.13622  1.0000
  C   C383      1.0  0.87344  0.31901  0.12224  1.0000
  C   C384      1.0  0.86714  0.35377  0.12779  1.0000
  H   H381      1.0  0.89495  0.35009  0.17617  1.0000
  H   H382      1.0  0.90587  0.28864  0.16653  1.0000
  H   H383      1.0  0.86739  0.31050  0.10723  1.0000
  H   H384      1.0  0.85611  0.37188  0.11695  1.0000
  C   C385      1.0  0.89345  0.05510  0.15908  1.0000
  C   C386      1.0  0.89481  0.09057  0.15441  1.0000
  C   C387      1.0  0.89205  0.10195  0.13454  1.0000
  C   C388      1.0  0.88782  0.07788  0.11917  1.0000
  C   C389      1.0  0.88616  0.04238  0.12383  1.0000
  H   H385      1.0  0.97237  0.24698  0.14870  1.0000
  H   H386      1.0  0.89819  0.10937  0.16622  1.0000
  H   H387      1.0  0.89326  0.12934  0.13112  1.0000
  C   C390      1.0  0.79743  0.51753  0.26007  1.0000
  H   H388      1.0  0.82147  0.33128  0.20484  1.0000
  H   H389      1.0  0.96248  0.29206  0.12573  1.0000
  H   H390      1.0  0.71709  0.11859  0.04491  1.0000
  C   C391      1.0  0.00126  0.40761  0.32281  1.0000
  C   C392      1.0  0.76196  0.44025  0.30909  1.0000
  C   C393      1.0  0.80515  0.02311  0.26128  1.0000
  C   C394      1.0  0.01380  0.22908  0.10490  1.0000
  C   C395      1.0  0.74614  0.17990  0.01902  1.0000
  C   C396      1.0  0.00856  0.27806  0.08264  1.0000
  H   H391      1.0  0.00192  0.51504  0.13577  1.0000
  H   H392      1.0  0.76330  0.41689  0.30014  1.0000
  C   C397      1.0  0.73079  0.47634  0.33232  1.0000
  N   N35       1.0  0.99310  0.24618  0.11882  1.0000
  H   H393      1.0  0.79935  0.38373  0.22303  1.0000
  C   C398      1.0  0.54500  0.15132  0.27069  1.0000
  C   C399      1.0  0.52658  0.11980  0.27230  1.0000
  H   H394      1.0  0.57248  0.15368  0.27660  1.0000
  C   C400      1.0  0.75324  0.05137  0.27796  1.0000
  C   C401      1.0  0.80071  0.34909  0.17639  1.0000
  C   C402      1.0  0.74348  0.48339  0.26635  1.0000
  C   C403      1.0  0.77797  0.48682  0.25730  1.0000
  H   H395      1.0  0.75856  0.14705  0.06902  1.0000
  H   H396      1.0  0.80439  0.07638  0.27129  1.0000
  N   N36       1.0  0.78323  0.37530  0.16625  1.0000
  H   H397      1.0  0.72818  0.45978  0.26428  1.0000
  H   H398      1.0  0.84024  0.06870  0.05781  1.0000
  C   C404      1.0  0.54561  0.11859  0.22214  1.0000
  C   C405      1.0  0.78717  0.49595  0.31756  1.0000
  N   N37       1.0  0.75543  0.07843  0.03760  1.0000
  H   H399      1.0  0.52348  0.06569  0.04110  1.0000
  C   C406      1.0  0.79251  0.06970  0.21029  1.0000
  H   H400      1.0  0.78896  0.34838  0.13842  1.0000
  C   C407      1.0  0.00600  0.23907  0.03359  1.0000
  H   H401      1.0  0.79817  0.09078  0.22050  1.0000
  N   N38       1.0  0.73326  0.44603  0.32182  1.0000
  H   H402      1.0  0.74726  0.37329  0.14135  1.0000
  C   C408      1.0  0.53811  0.15076  0.21342  1.0000
  C   C409      1.0  0.52788  0.17978  0.26116  1.0000
  C   C410      1.0  0.99753  0.41204  0.24832  1.0000
  H   H403      1.0  0.70272  0.50673  0.28558  1.0000
  H   H404      1.0  0.82774  0.08907  0.18706  1.0000
  C   C411      1.0  0.72892  0.51005  0.27842  1.0000
  H   H405      1.0  0.79060  0.39464  0.13698  1.0000
  C   C412      1.0  0.52236  0.04178  0.03271  1.0000
  H   H406      1.0  0.96371  0.20822  0.13489  1.0000
  H   H407      1.0  0.81152  0.46085  0.29627  1.0000
  C   C413      1.0  0.88897  0.03098  0.14374  1.0000
  S   S147      1.0  0.67986  0.08048  0.34081  1.0000
  C   C414      1.0  0.78256  0.18026  0.02596  1.0000
  C   C415      1.0  0.76708  0.12336  0.06154  1.0000
  C   C416      1.0  0.78951  0.46496  0.30691  1.0000
  H   H408      1.0  0.81083  0.32636  0.16855  1.0000
  C   C417      1.0  0.54994  0.19677  0.32126  1.0000
  H   H409      1.0  0.99301  0.44181  0.28994  1.0000
  H   H410      1.0  0.75859  0.42558  0.16797  1.0000
  C   C418      1.0  0.78892  0.05265  0.27011  1.0000
  C   C419      1.0  0.97955  0.27872  0.11491  1.0000
  C   C420      1.0  0.77707  0.37267  0.14469  1.0000
  C   C421      1.0  0.80682  0.35169  0.19694  1.0000
  C   C422      1.0  0.77154  0.40442  0.17609  1.0000
  H   H411      1.0  0.76779  0.43093  0.20445  1.0000
  H   H412      1.0  0.72636  0.19803  0.02517  1.0000
  H   H413      1.0  0.80729  0.51611  0.31525  1.0000
  C   C423      1.0  0.77674  0.40765  0.19667  1.0000
  C   C424      1.0  0.00316  0.29704  0.01941  1.0000
  H   H414      1.0  0.99891  0.49599  0.17097  1.0000
  C   C425      1.0  0.79451  0.38110  0.20712  1.0000
  C   C426      1.0  0.01617  0.36482  0.27906  1.0000
  C   C427      1.0  0.97972  0.36842  0.27248  1.0000
  C   C428      1.0  0.54803  0.49912  0.02204  1.0000
  C   C429      1.0  0.74395  0.10730  0.04776  1.0000
  S   S148      1.0  0.89613  0.04250  0.18435  1.0000
  C   C430      1.0  0.75767  0.50175  0.33034  1.0000
  H   H415      1.0  0.81549  0.03998  0.16431  1.0000
  H   H416      1.0  0.95853  0.35297  0.27928  1.0000
  C   C431      1.0  0.98694  0.29509  0.09677  1.0000
  H   H417      1.0  0.70757  0.48116  0.34204  1.0000
  S   S149      1.0  0.79517  0.20987  0.04490  1.0000
  C   C432      1.0  0.78943  0.06437  0.04116  1.0000
  H   H418      1.0  0.54230  0.20406  0.25985  1.0000
  H   H419      1.0  0.79844  0.04131  0.03326  1.0000
  C   C433      1.0  0.80886  0.06888  0.19151  1.0000
  C   C434      1.0  0.70377  0.42066  0.32355  1.0000
  C   C435      1.0  0.81316  0.07964  0.05496  1.0000
  H   H420      1.0  0.97920  0.39893  0.31322  1.0000
  H   H421      1.0  0.67901  0.43029  0.31547  1.0000
  H   H422      1.0  0.57629  0.20426  0.32742  1.0000
  H   H423      1.0  0.97563  0.32065  0.09363  1.0000
  H   H424      1.0  0.69627  0.41679  0.33946  1.0000
  H   H425      1.0  0.82008  0.12153  0.07572  1.0000
  C   C436      1.0  0.53649  0.16348  0.32473  1.0000
  H   H426      1.0  0.55266  0.14562  0.33370  1.0000
  S   S150      1.0  0.58990  0.07688  0.33644  1.0000
  C   C437      1.0  0.76445  0.02312  0.32586  1.0000
  H   H427      1.0  0.01442  0.29033  0.06845  1.0000
  H   H428      1.0  0.95982  0.27378  0.03675  1.0000
  H   H429      1.0  0.71183  0.39497  0.31742  1.0000
  Fe  Fe77      1.0  0.63275  0.51897  0.33743  1.0000
  H   H430      1.0  0.00597  0.48115  0.30239  1.0000
  H   H431      1.0  0.00933  0.21677  0.14432  1.0000
  S   S151      1.0  0.62801  0.46249  0.34623  1.0000
  H   H432      1.0  0.75725  0.04328  0.23069  1.0000
  C   C438      1.0  0.80200  0.04123  0.17870  1.0000
  H   H433      1.0  0.81825  0.03303  0.31417  1.0000
  H   H434      1.0  0.56347  0.47557  0.02498  1.0000
  H   H435      1.0  0.57053  0.11460  0.23076  1.0000
  H   H436      1.0  0.53975  0.24577  0.30671  1.0000
  H   H437      1.0  0.99273  0.36642  0.34405  1.0000
  H   H438      1.0  0.76036  0.04939  0.33128  1.0000
  H   H439      1.0  0.88294  0.02363  0.11199  1.0000
  H   H440      1.0  0.55716  0.17197  0.21517  1.0000
  H   H441      1.0  0.52542  0.06760  0.22801  1.0000
  H   H442      1.0  0.83600  0.15686  0.02297  1.0000
  C   C439      1.0  0.52937  0.22005  0.30977  1.0000
  C   C440      1.0  0.01490  0.45422  0.29896  1.0000
  C   C441      1.0  0.00866  0.38913  0.34034  1.0000
  H   H443      1.0  0.99423  0.50824  0.20515  1.0000
  C   C442      1.0  0.73353  0.02059  0.27634  1.0000
  S   S152      1.0  0.85831  0.26048  0.66815  1.0000
  H   H444      1.0  0.57794  0.35308  0.51240  1.0000
  Fe  Fe78      1.0  0.61605  0.31184  0.46815  1.0000
  S   S153      1.0  0.66220  0.27636  0.47688  1.0000
  S   S154      1.0  0.55628  0.30208  0.47543  1.0000
  Fe  Fe79      1.0  0.66742  0.36167  0.44651  1.0000
  S   S155      1.0  0.71742  0.32914  0.45356  1.0000
  S   S156      1.0  0.67411  0.41540  0.43321  1.0000
  Fe  Fe80      1.0  0.68155  0.28389  0.44537  1.0000
  S   S157      1.0  0.70318  0.23710  0.42827  1.0000
  Fe  Fe81      1.0  0.69350  0.32477  0.48425  1.0000
  S   S158      1.0  0.72177  0.32770  0.51449  1.0000
  S   S159      1.0  0.63332  0.31687  0.43604  1.0000
  S   S160      1.0  0.64543  0.35984  0.47782  1.0000
  C   C443      1.0  0.99717  0.02065  0.50120  1.0000
  H   H445      1.0  0.59937  0.43249  0.44540  1.0000
  Fe  Fe82      1.0  0.88527  0.43676  0.56176  1.0000
  S   S161      1.0  0.94257  0.41619  0.56693  1.0000
  S   S162      1.0  0.85768  0.42624  0.53195  1.0000
  Fe  Fe83      1.0  0.88814  0.48260  0.59883  1.0000
  S   S163      1.0  0.94525  0.46567  0.60642  1.0000
  C   C444      1.0  0.57988  0.50041  0.39096  1.0000
  Fe  Fe84      1.0  0.95711  0.47125  0.57381  1.0000
  C   C445      1.0  0.54254  0.27603  0.49577  1.0000
  Fe  Fe85      1.0  0.92587  0.41209  0.59909  1.0000
  S   S164      1.0  0.94964  0.37044  0.61934  1.0000
  S   S165      1.0  0.90130  0.49249  0.56661  1.0000
  S   S166      1.0  0.86724  0.42845  0.59356  1.0000
  H   H446      1.0  0.93700  0.27098  0.66403  1.0000
  C   C446      1.0  0.52411  0.31917  0.54851  1.0000
  H   H447      1.0  0.59543  0.23670  0.46409  1.0000
  H   H448      1.0  0.60896  0.29247  0.56286  1.0000
  H   H449      1.0  0.54383  0.28716  0.57263  1.0000
  C   C447      1.0  0.88437  0.28898  0.65348  1.0000
  C   C448      1.0  0.86604  0.31260  0.64090  1.0000
  C   C449      1.0  0.88574  0.33709  0.62980  1.0000
  C   C450      1.0  0.92394  0.33794  0.63118  1.0000
  C   C451      1.0  0.94231  0.31357  0.64328  1.0000
  C   C452      1.0  0.92262  0.28917  0.65445  1.0000
  H   H450      1.0  0.83642  0.31233  0.63997  1.0000
  H   H451      1.0  0.87137  0.35566  0.62045  1.0000
  H   H452      1.0  0.97192  0.31406  0.64433  1.0000
  H   H453      1.0  0.64128  0.30538  0.52007  1.0000
  C   C453      1.0  0.88063  0.07584  0.66187  1.0000
  C   C454      1.0  0.90706  0.09379  0.65101  1.0000
  C   C455      1.0  0.91860  0.08126  0.63234  1.0000
  C   C456      1.0  0.90391  0.05069  0.62438  1.0000
  C   C457      1.0  0.84179  0.43718  0.64590  1.0000
  C   C458      1.0  0.86648  0.04489  0.65409  1.0000
  H   H454      1.0  0.91822  0.11755  0.65683  1.0000
  H   H455      1.0  0.93867  0.09556  0.62390  1.0000
  C   C459      1.0  0.55137  0.30317  0.55999  1.0000
  H   H456      1.0  0.97124  0.03487  0.55437  1.0000
  C   C460      1.0  0.58110  0.43492  0.43215  1.0000
  C   C461      1.0  0.56822  0.25911  0.50795  1.0000
  H   H457      1.0  0.63703  0.02352  0.38346  1.0000
  H   H458      1.0  0.59708  0.26048  0.50450  1.0000
  H   H459      1.0  0.57669  0.22893  0.53470  1.0000
  C   C462      1.0  0.75928  0.35553  0.51919  1.0000
  C   C463      1.0  0.77445  0.37592  0.50413  1.0000
  C   C464      1.0  0.80447  0.39747  0.50835  1.0000
  C   C465      1.0  0.81950  0.39904  0.52765  1.0000
  C   C466      1.0  0.80420  0.37881  0.54276  1.0000
  C   C467      1.0  0.77428  0.35711  0.53851  1.0000
  H   H460      1.0  0.76319  0.37497  0.48921  1.0000
  H   H461      1.0  0.81606  0.41301  0.49656  1.0000
  H   H462      1.0  0.81555  0.37971  0.55765  1.0000
  H   H463      1.0  0.76276  0.34138  0.55024  1.0000
  C   C468      1.0  0.64031  0.18515  0.37711  1.0000
  C   C469      1.0  0.67559  0.17380  0.38229  1.0000
  C   C470      1.0  0.69483  0.19042  0.39775  1.0000
  C   C471      1.0  0.67915  0.21864  0.40801  1.0000
  C   C472      1.0  0.64404  0.23021  0.40264  1.0000
  C   C473      1.0  0.62470  0.21346  0.38730  1.0000
  H   H464      1.0  0.68785  0.15197  0.37458  1.0000
  H   H465      1.0  0.72197  0.18130  0.40185  1.0000
  H   H466      1.0  0.63158  0.25174  0.41049  1.0000
  H   H467      1.0  0.59739  0.22235  0.38343  1.0000
  C   C474      1.0  0.64431  0.44827  0.36964  1.0000
  C   C475      1.0  0.63629  0.41457  0.37614  1.0000
  C   C476      1.0  0.64681  0.40337  0.39532  1.0000
  C   C477      1.0  0.66543  0.42590  0.40804  1.0000
  C   C478      1.0  0.67466  0.45908  0.40121  1.0000
  C   C479      1.0  0.66417  0.47026  0.38208  1.0000
  H   H468      1.0  0.62117  0.39732  0.36651  1.0000
  H   H469      1.0  0.63973  0.37767  0.40042  1.0000
  H   H470      1.0  0.68919  0.47657  0.41098  1.0000
  H   H471      1.0  0.67062  0.49621  0.37724  1.0000
  H   H472      1.0  0.80491  0.13662  0.66015  1.0000
  H   H473      1.0  0.99481  0.39532  0.52809  1.0000
  H   H474      1.0  0.55871  0.44924  0.39529  1.0000
  H   H475      1.0  0.82426  0.45476  0.63741  1.0000
  N   N39       1.0  0.98477  0.43877  0.50913  1.0000
  H   H476      1.0  0.90150  0.21159  0.64036  1.0000
  H   H477      1.0  0.93830  0.36646  0.67241  1.0000
  C   C480      1.0  0.87944  0.44281  0.64671  1.0000
  H   H478      1.0  0.01074  0.07627  0.53834  1.0000
  H   H479      1.0  0.00793  0.43681  0.53808  1.0000
  H   H480      1.0  0.65506  0.32217  0.54394  1.0000
  H   H481      1.0  0.89590  0.45483  0.49744  1.0000
  C   C481      1.0  0.63570  0.32594  0.53128  1.0000
  C   C482      1.0  0.63193  0.19661  0.45324  1.0000
  C   C483      1.0  0.00149  0.45780  0.49457  1.0000
  C   C484      1.0  0.94735  0.43774  0.51022  1.0000
  S   S167      1.0  0.91675  0.03795  0.60006  1.0000
  C   C485      1.0  0.82704  0.40886  0.65593  1.0000
  N   N40       1.0  0.88727  0.39238  0.66736  1.0000
  H   H482      1.0  0.65474  0.20396  0.46270  1.0000
  C   C486      1.0  0.87805  0.03232  0.63541  1.0000
  C   C487      1.0  0.94240  0.47490  0.48137  1.0000
  H   H483      1.0  0.89104  0.46476  0.63899  1.0000
  C   C488      1.0  0.57036  0.20599  0.44112  1.0000
  H   H484      1.0  0.93400  0.42311  0.52191  1.0000
  N   N41       1.0  0.60786  0.16039  0.42730  1.0000
  C   C489      1.0  0.57526  0.17825  0.42790  1.0000
  C   C490      1.0  0.63593  0.16910  0.43984  1.0000
  H   H485      1.0  0.56947  0.50262  0.37583  1.0000
  H   H486      1.0  0.55218  0.43478  0.43722  1.0000
  H   H487      1.0  0.64116  0.12682  0.40944  1.0000
  H   H488      1.0  0.84605  0.03084  0.66242  1.0000
  H   H489      1.0  0.93136  0.42408  0.65754  1.0000
  H   H490      1.0  0.66205  0.15546  0.43918  1.0000
  H   H491      1.0  0.86554  0.23069  0.62539  1.0000
  H   H492      1.0  0.89924  0.34385  0.68151  1.0000
  H   H493      1.0  0.59637  0.13481  0.39979  1.0000
  C   C491      1.0  0.98059  0.47593  0.48040  1.0000
  S   S168      1.0  0.01191  0.49444  0.56549  1.0000
  H   H494      1.0  0.60223  0.10672  0.42125  1.0000
  C   C492      1.0  0.61203  0.13065  0.41385  1.0000
  N   N42       1.0  0.58843  0.46660  0.42077  1.0000
  H   H495      1.0  0.83864  0.36478  0.67461  1.0000
  H   H496      1.0  0.79781  0.40407  0.65526  1.0000
  H   H497      1.0  0.90306  0.20781  0.61371  1.0000
  C   C493      1.0  0.00687  0.42085  0.52432  1.0000
  H   H498      1.0  0.80804  0.09150  0.63378  1.0000
  S   S169      1.0  0.61351  0.16339  0.35913  1.0000
  C   C494      1.0  0.90198  0.41991  0.65742  1.0000
  C   C495      1.0  0.99436  0.02547  0.56380  1.0000
  C   C496      1.0  0.55659  0.24119  0.52505  1.0000
  N   N43       1.0  0.59736  0.32464  0.53767  1.0000
  H   H499      1.0  0.84732  0.10068  0.60406  1.0000
  C   C497      1.0  0.58808  0.30604  0.55426  1.0000
  H   H500      1.0  0.88272  0.15471  0.60095  1.0000
  N   N44       1.0  0.86324  0.17600  0.62840  1.0000
  C   C498      1.0  0.84139  0.17124  0.64469  1.0000
  C   C499      1.0  0.86508  0.15131  0.61377  1.0000
  C   C500      1.0  0.82097  0.14097  0.64679  1.0000
  C   C501      1.0  0.84480  0.12081  0.61531  1.0000
  C   C502      1.0  0.82271  0.11565  0.63198  1.0000
  C   C503      1.0  0.88442  0.20800  0.62678  1.0000
  H   H501      1.0  0.84005  0.19075  0.65631  1.0000
  C   C504      1.0  0.57405  0.47018  0.40201  1.0000
  H   H502      1.0  0.55300  0.17131  0.41799  1.0000
  H   H503      1.0  0.64226  0.35147  0.52453  1.0000
  C   C505      1.0  0.59891  0.21513  0.45386  1.0000
  C   C506      1.0  0.57077  0.34002  0.52617  1.0000
  C   C507      1.0  0.92561  0.45567  0.49636  1.0000
  H   H504      1.0  0.58656  0.41161  0.42284  1.0000
  H   H505      1.0  0.99403  0.49170  0.46920  1.0000
  C   C508      1.0  0.85028  0.38676  0.66683  1.0000
  H   H506      1.0  0.92872  0.51937  0.63528  1.0000
  H   H507      1.0  0.53130  0.42334  0.65841  1.0000
  H   H508      1.0  0.97837  0.04064  0.49607  1.0000
  H   H509      1.0  0.54471  0.22050  0.44151  1.0000
  H   H510      1.0  0.99300  0.03877  0.57848  1.0000
  C   C509      1.0  0.60873  0.49263  0.42900  1.0000
  H   H511      1.0  0.62099  0.48943  0.44365  1.0000
  C   C510      1.0  0.53379  0.33773  0.53149  1.0000
  C   C511      1.0  0.91109  0.37011  0.67961  1.0000
  H   H512      1.0  0.92585  0.48935  0.47072  1.0000
  S   S170      1.0  0.86282  0.09243  0.68448  1.0000
  S   S171      1.0  0.92294  0.17909  0.68324  1.0000
  C   C512      1.0  0.52038  0.40621  0.66971  1.0000
  C   C513      1.0  0.02009  0.51151  0.54153  1.0000
  C   C514      1.0  0.54393  0.39672  0.75965  1.0000
  C   C515      1.0  0.91452  0.15912  0.78809  1.0000
  Fe  Fe86      1.0  0.86601  0.19423  0.73189  1.0000
  S   S172      1.0  0.90641  0.23294  0.72046  1.0000
  S   S173      1.0  0.83989  0.20126  0.76235  1.0000
  C   C516      1.0  0.97874  0.17430  0.79504  1.0000
  Fe  Fe87      1.0  0.94285  0.18638  0.71491  1.0000
  H   H513      1.0  0.81698  0.11542  0.99684  1.0000
  C   C517      1.0  0.00956  0.19487  0.79186  1.0000
  S   S174      1.0  0.90378  0.14839  0.72808  1.0000
  Fe  Fe88      1.0  0.61352  0.06787  0.98277  1.0000
  C   C518      1.0  0.01218  0.11125  0.76616  1.0000
  H   H514      1.0  0.98459  0.16642  0.99991  1.0000
  Fe  Fe89      1.0  0.62410  0.10663  0.94353  1.0000
  S   S175      1.0  0.67731  0.07931  0.93656  1.0000
  S   S176      1.0  0.59509  0.15094  0.92759  1.0000
  H   H515      1.0  0.98099  0.15258  0.80527  1.0000
  H   H516      1.0  0.93396  0.20953  0.00238  1.0000
  Fe  Fe90      1.0  0.69059  0.08797  0.96899  1.0000
  S   S177      1.0  0.74863  0.10248  0.97760  1.0000
  S   S178      1.0  0.59404  0.05780  0.95159  1.0000
  S   S179      1.0  0.63968  0.11873  0.97512  1.0000
  Fe  Fe91      1.0  0.67729  0.31476  0.80236  1.0000
  S   S180      1.0  0.63088  0.27985  0.81054  1.0000
  S   S181      1.0  0.70609  0.30631  0.77279  1.0000
  Fe  Fe92      1.0  0.66571  0.36008  0.83958  1.0000
  S   S182      1.0  0.61921  0.32751  0.85072  1.0000
  S   S183      1.0  0.68662  0.41056  0.85269  1.0000
  Fe  Fe93      1.0  0.65435  0.28161  0.84156  1.0000
  S   S184      1.0  0.67179  0.23055  0.85609  1.0000
  Fe  Fe94      1.0  0.60022  0.32860  0.81855  1.0000
  H   H517      1.0  0.92069  0.13644  0.79778  1.0000
  S   S185      1.0  0.70254  0.31440  0.83278  1.0000
  S   S186      1.0  0.64474  0.36353  0.80806  1.0000
  H   H518      1.0  0.90429  0.14911  0.77359  1.0000
  H   H519      1.0  0.55331  0.37853  0.85082  1.0000
  C   C519      1.0  0.59457  0.42851  0.83510  1.0000
  H   H520      1.0  0.64431  0.45199  0.82446  1.0000
  C   C520      1.0  0.76062  0.13269  0.99627  1.0000
  C   C521      1.0  0.99365  0.25518  0.97393  1.0000
  N   N45       1.0  0.53744  0.48791  0.96881  1.0000
  C   C522      1.0  0.61556  0.17195  0.90704  1.0000
  C   C523      1.0  0.60004  0.20300  0.89976  1.0000
  C   C524      1.0  0.61663  0.22117  0.88400  1.0000
  C   C525      1.0  0.64866  0.20814  0.87525  1.0000
  C   C526      1.0  0.66382  0.17680  0.88232  1.0000
  C   C527      1.0  0.64750  0.15887  0.89822  1.0000
  H   H521      1.0  0.57526  0.21324  0.90647  1.0000
  H   H522      1.0  0.60469  0.24524  0.87864  1.0000
  H   H523      1.0  0.68853  0.16649  0.87559  1.0000
  H   H524      1.0  0.65960  0.13493  0.90360  1.0000
  C   C528      1.0  0.65015  0.46091  0.91163  1.0000
  C   C529      1.0  0.67527  0.47737  0.89919  1.0000
  C   C530      1.0  0.68618  0.46155  0.88120  1.0000
  C   C531      1.0  0.67209  0.42923  0.87550  1.0000
  C   C532      1.0  0.64672  0.41290  0.88786  1.0000
  C   C533      1.0  0.63584  0.42870  0.90585  1.0000
  C   C534      1.0  0.59947  0.45848  0.80365  1.0000
  H   H525      1.0  0.70586  0.47431  0.87173  1.0000
  H   H526      1.0  0.63583  0.38794  0.88369  1.0000
  H   H527      1.0  0.61649  0.41575  0.91544  1.0000
  S   S187      1.0  0.57748  0.06971  0.01024  1.0000
  C   C535      1.0  0.55452  0.37573  0.77588  1.0000
  H   H528      1.0  0.97316  0.24913  0.75695  1.0000
  H   H529      1.0  0.56477  0.40766  0.75014  1.0000
  H   H530      1.0  0.58325  0.37063  0.77873  1.0000
  H   H531      1.0  0.52251  0.16796  0.98414  1.0000
  H   H532      1.0  0.97064  0.12926  0.74569  1.0000
  C   C536      1.0  0.80491  0.23290  0.76522  1.0000
  C   C537      1.0  0.78822  0.24849  0.74867  1.0000
  C   C538      1.0  0.75851  0.27156  0.75129  1.0000
  C   C539      1.0  0.74515  0.27915  0.77043  1.0000
  C   C540      1.0  0.76219  0.26397  0.78702  1.0000
  C   C541      1.0  0.79212  0.24108  0.78441  1.0000
  H   H533      1.0  0.79784  0.24244  0.73382  1.0000
  H   H534      1.0  0.74552  0.28330  0.73839  1.0000
  H   H535      1.0  0.75219  0.26971  0.80183  1.0000
  H   H536      1.0  0.80495  0.22921  0.79730  1.0000
  C   C542      1.0  0.52801  0.36202  0.78859  1.0000
  C   C543      1.0  0.95805  0.21530  0.99354  1.0000
  H   H537      1.0  0.99536  0.09068  0.77205  1.0000
  C   C544      1.0  0.98655  0.19105  0.99216  1.0000
  C   C545      1.0  0.56257  0.45168  0.79994  1.0000
  C   C546      1.0  0.52487  0.37852  0.70189  1.0000
  N   N46       1.0  0.69928  0.20219  0.78087  1.0000
  C   C547      1.0  0.69401  0.20155  0.80106  1.0000
  C   C548      1.0  0.72800  0.18437  0.77252  1.0000
  C   C549      1.0  0.71844  0.18360  0.81351  1.0000
  C   C550      1.0  0.75290  0.16600  0.78452  1.0000
  C   C551      1.0  0.74812  0.16580  0.80515  1.0000
  C   C552      1.0  0.67314  0.22072  0.76798  1.0000
  H   H538      1.0  0.67105  0.21521  0.80777  1.0000
  H   H539      1.0  0.73249  0.18516  0.75655  1.0000
  H   H540      1.0  0.71437  0.18383  0.82955  1.0000
  H   H541      1.0  0.77639  0.15302  0.77785  1.0000
  H   H542      1.0  0.76754  0.15214  0.81465  1.0000
  H   H543      1.0  0.65084  0.20313  0.76330  1.0000
  H   H544      1.0  0.66103  0.24348  0.77578  1.0000
  H   H545      1.0  0.68701  0.23136  0.75459  1.0000
  H   H546      1.0  0.60741  0.41935  0.84874  1.0000
  H   H547      1.0  0.55876  0.15331  0.96780  1.0000
  Fe  Fe95      1.0  0.88126  0.14401  0.69699  1.0000
  H   H548      1.0  0.65188  0.19932  0.95467  1.0000
  H   H549      1.0  0.93989  0.26691  0.98572  1.0000
  C   C553      1.0  0.01958  0.15958  0.74328  1.0000
  C   C554      1.0  0.55921  0.45940  0.97216  1.0000
  C   C555      1.0  0.97476  0.22867  0.76804  1.0000
  C   C556      1.0  0.00753  0.22211  0.77818  1.0000
  H   H550      1.0  0.65154  0.24304  0.92740  1.0000
  S   S188      1.0  0.54043  0.33840  0.81030  1.0000
  Fe  Fe96      1.0  0.64870  0.03116  0.94716  1.0000
  H   H551      1.0  0.91903  0.21288  0.76369  1.0000
  C   C557      1.0  0.61554  0.44712  0.82141  1.0000
  C   C558      1.0  0.54068  0.14569  0.98037  1.0000
  N   N47       1.0  0.73233  0.17806  0.93263  1.0000
  C   C559      1.0  0.73233  0.20200  0.91754  1.0000
  C   C560      1.0  0.70419  0.17734  0.94604  1.0000
  C   C561      1.0  0.70358  0.22608  0.91563  1.0000
  C   C562      1.0  0.67479  0.20075  0.94443  1.0000
  C   C563      1.0  0.67462  0.22531  0.92915  1.0000
  C   C564      1.0  0.76243  0.15283  0.93468  1.0000
  H   H552      1.0  0.75430  0.20240  0.90669  1.0000
  H   H553      1.0  0.70430  0.15832  0.95796  1.0000
  H   H554      1.0  0.70309  0.24442  0.90332  1.0000
  H   H555      1.0  0.56472  0.41024  0.98734  1.0000
  S   S189      1.0  0.00275  0.18756  0.72439  1.0000
  H   H556      1.0  0.78299  0.15519  0.92260  1.0000
  H   H557      1.0  0.77661  0.15649  0.94922  1.0000
  H   H558      1.0  0.55885  0.13973  0.99331  1.0000
  S   S190      1.0  0.83938  0.18611  0.70216  1.0000
  C   C565      1.0  0.73507  0.15598  0.00436  1.0000
  H   H559      1.0  0.58663  0.45802  0.96590  1.0000
  H   H560      1.0  0.74601  0.05035  0.01070  1.0000
  H   H561      1.0  0.99677  0.28078  0.96743  1.0000
  C   C566      1.0  0.99804  0.13318  0.75121  1.0000
  C   C567      1.0  0.55191  0.51657  0.95699  1.0000
  N   N48       1.0  0.55864  0.42132  0.83116  1.0000
  S   S191      1.0  0.63586  0.47943  0.93452  1.0000
  H   H562      1.0  0.89220  0.17479  0.79501  1.0000
  H   H563      1.0  0.75151  0.12599  0.93429  1.0000
  H   H564      1.0  0.70692  0.15578  0.99928  1.0000
  N   N49       1.0  0.94676  0.18079  0.78489  1.0000
  S   S192      1.0  0.66608  0.03791  0.97923  1.0000
  H   H565      1.0  0.91499  0.38192  0.69454  1.0000
  C   C568      1.0  0.54238  0.43312  0.81400  1.0000
  C   C569      1.0  0.94440  0.20776  0.77169  1.0000
  H   H566      1.0  0.68653  0.50210  0.90350  1.0000
  H   H567      1.0  0.54981  0.45999  0.78606  1.0000
  C   C570      1.0  0.01826  0.19947  0.98157  1.0000
  C   C571      1.0  0.54650  0.03644  0.01668  1.0000
  H   H568      1.0  0.53078  0.41827  0.85881  1.0000
  C   C572      1.0  0.79703  0.13331  0.00304  1.0000
  C   C573      1.0  0.96143  0.24750  0.98426  1.0000
  H   H569      1.0  0.61566  0.47226  0.79272  1.0000
  H   H570      1.0  0.53958  0.37482  0.71583  1.0000
  C   C574      1.0  0.53742  0.40168  0.84578  1.0000
  Fe  Fe97      1.0  0.88256  0.22185  0.69019  1.0000
  H   H571      1.0  0.55905  0.50758  0.94173  1.0000
  H   H572      1.0  0.52878  0.11886  0.94411  1.0000
  C   C575      1.0  0.54693  0.43226  0.98418  1.0000
  H   H573      1.0  0.98814  0.32098  0.01686  1.0000
  H   H574      1.0  0.71049  0.08024  0.01705  1.0000
  C   C576      1.0  0.80790  0.15676  0.01791  1.0000
  H   H575      1.0  0.56580  0.41277  0.68996  1.0000
  C   C577      1.0  0.53980  0.40015  0.68733  1.0000
  H   H576      1.0  0.79037  0.66489  0.08156  1.0000
  H   H577      1.0  0.01095  0.89047  0.19971  1.0000
  Fe  Fe98      1.0  0.59636  0.57623  0.31183  1.0000
  S   S193      1.0  0.63972  0.61510  0.31940  1.0000
  H   H578      1.0  0.79846  0.56756  0.27448  1.0000
  Fe  Fe99      1.0  0.67921  0.56995  0.31477  1.0000
  S   S194      1.0  0.73330  0.57328  0.29820  1.0000
  H   H579      1.0  0.88786  0.00360  0.14718  1.0000
  C   C578      1.0  0.98747  0.82999  0.16524  1.0000
  N   N50       1.0  0.56683  0.68574  0.34734  1.0000
  Fe  Fe100     1.0  0.85416  0.95127  0.23001  1.0000
  S   S195      1.0  0.90324  0.98564  0.22923  1.0000
  S   S196      1.0  0.80578  0.95328  0.25132  1.0000
  Fe  Fe101     1.0  0.88018  0.90940  0.19377  1.0000
  S   S197      1.0  0.93084  0.94146  0.18969  1.0000
  S   S198      1.0  0.86171  0.86053  0.17796  1.0000
  Fe  Fe102     1.0  0.93630  0.93732  0.22307  1.0000
  S   S199      1.0  0.99400  0.93016  0.23533  1.0000
  Fe  Fe103     1.0  0.89397  0.98736  0.19604  1.0000
  H   H580      1.0  0.56350  0.64240  0.32738  1.0000
  S   S200      1.0  0.88807  0.90244  0.22682  1.0000
  S   S201      1.0  0.84265  0.95565  0.19727  1.0000
  Fe  Fe104     1.0  0.87042  0.70152  0.05666  1.0000
  S   S202      1.0  0.91175  0.65895  0.05263  1.0000
  S   S203      1.0  0.81554  0.70198  0.04049  1.0000
  Fe  Fe105     1.0  0.91874  0.74018  0.08670  1.0000
  S   S204      1.0  0.96278  0.69895  0.08521  1.0000
  S   S205      1.0  0.93500  0.79065  0.10183  1.0000
  Fe  Fe106     1.0  0.95390  0.70092  0.05213  1.0000
  C   C579      1.0  0.99494  0.52322  0.16742  1.0000
  Fe  Fe107     1.0  0.91677  0.66072  0.08600  1.0000
  S   S206      1.0  0.91869  0.60642  0.09901  1.0000
  S   S207      1.0  0.91221  0.74386  0.05337  1.0000
  S   S208      1.0  0.87296  0.70162  0.09027  1.0000
  C   C580      1.0  0.82329  0.61836  0.08396  1.0000
  H   H581      1.0  0.97794  0.61936  0.15419  1.0000
  C   C581      1.0  0.76218  0.66568  0.02099  1.0000
  H   H582      1.0  0.93145  0.78935  0.21569  1.0000
  H   H583      1.0  0.99154  0.57718  0.12726  1.0000
  C   C582      1.0  0.88088  0.84262  0.15604  1.0000
  C   C583      1.0  0.90821  0.85956  0.14531  1.0000
  C   C584      1.0  0.92407  0.84345  0.12854  1.0000
  C   C585      1.0  0.91274  0.81042  0.12234  1.0000
  C   C586      1.0  0.88515  0.79365  0.13295  1.0000
  C   C587      1.0  0.86930  0.80974  0.14972  1.0000
  H   H584      1.0  0.91728  0.88490  0.15001  1.0000
  H   H585      1.0  0.94531  0.85666  0.12035  1.0000
  H   H586      1.0  0.87616  0.76826  0.12830  1.0000
  H   H587      1.0  0.84805  0.79654  0.15791  1.0000
  C   C588      1.0  0.89341  0.57722  0.16358  1.0000
  C   C589      1.0  0.89391  0.61231  0.15794  1.0000
  C   C590      1.0  0.90028  0.62179  0.13799  1.0000
  C   C591      1.0  0.90635  0.59612  0.12365  1.0000
  C   C592      1.0  0.90470  0.56106  0.12918  1.0000
  C   C593      1.0  0.01178  0.92745  0.30071  1.0000
  H   H588      1.0  0.89011  0.63222  0.16913  1.0000
  H   H589      1.0  0.90146  0.64887  0.13384  1.0000
  C   C594      1.0  0.78291  0.54414  0.27219  1.0000
  C   C595      1.0  0.76435  0.62094  0.06763  1.0000
  H   H590      1.0  0.61504  0.75292  0.32867  1.0000
  H   H591      1.0  0.95722  0.87404  0.25678  1.0000
  H   H592      1.0  0.55290  0.70656  0.27309  1.0000
  C   C596      1.0  0.81816  0.63368  0.02767  1.0000
  C   C597      1.0  0.78564  0.99211  0.26020  1.0000
  H   H593      1.0  0.70610  0.01918  0.28223  1.0000
  C   C598      1.0  0.01001  0.95323  0.28605  1.0000
  C   C599      1.0  0.73753  0.56942  0.05202  1.0000
  C   C600      1.0  0.89821  0.55160  0.14908  1.0000
  C   C601      1.0  0.99345  0.83937  0.04035  1.0000
  H   H594      1.0  0.96086  0.86171  0.21780  1.0000
  H   H595      1.0  0.94431  0.79317  0.16889  1.0000
  S   S209      1.0  0.58892  0.55851  0.34336  1.0000
  H   H596      1.0  0.99150  0.77294  0.07342  1.0000
  C   C602      1.0  0.98145  0.58088  0.17759  1.0000
  H   H597      1.0  0.57653  0.65306  0.28979  1.0000
  N   N51       1.0  0.76748  0.58663  0.06264  1.0000
  H   H598      1.0  0.95527  0.53678  0.20776  1.0000
  S   S210      1.0  0.67832  0.55363  0.34706  1.0000
  C   C603      1.0  0.73651  0.99873  0.32758  1.0000
  H   H599      1.0  0.68572  0.95239  0.31370  1.0000
  C   C604      1.0  0.71043  0.94165  0.32137  1.0000
  H   H600      1.0  0.74848  0.55036  0.04105  1.0000
  S   S211      1.0  0.64073  0.98425  0.34622  1.0000
  C   C605      1.0  0.99131  0.56870  0.14272  1.0000
  C   C606      1.0  0.98371  0.59245  0.15785  1.0000
  S   S212      1.0  0.63598  0.53283  0.30499  1.0000
  H   H601      1.0  0.90015  0.79646  0.19497  1.0000
  S   S213      1.0  0.54445  0.58396  0.29362  1.0000
  H   H602      1.0  0.59192  0.65602  0.23449  1.0000
  C   C607      1.0  0.79234  0.63739  0.07820  1.0000
  C   C608      1.0  0.98628  0.87279  0.25998  1.0000
  N   N52       1.0  0.98743  0.54673  0.18217  1.0000
  C   C609      1.0  0.91987  0.80904  0.20532  1.0000
  C   C610      1.0  0.74877  0.54046  0.28159  1.0000
  C   C611      1.0  0.99661  0.86897  0.19286  1.0000
  H   H603      1.0  0.84512  0.63064  0.09227  1.0000
  H   H604      1.0  0.97359  0.59915  0.18914  1.0000
  N   N53       1.0  0.74075  0.96616  0.31982  1.0000
  N   N54       1.0  0.76351  0.01525  0.20348  1.0000
  H   H605      1.0  0.52120  0.65519  0.33903  1.0000
  C   C612      1.0  0.74965  0.99115  0.26751  1.0000
  H   H606      1.0  0.80029  0.54060  0.06433  1.0000
  H   H607      1.0  0.98174  0.82976  0.28046  1.0000
  C   C613      1.0  0.01001  0.89642  0.25104  1.0000
  H   H608      1.0  0.77574  0.93142  0.30369  1.0000
  H   H609      1.0  0.53656  0.67688  0.21615  1.0000
  C   C614      1.0  0.56908  0.60583  0.24075  1.0000
  H   H610      1.0  0.75506  0.52632  0.33810  1.0000
  C   C615      1.0  0.59970  0.73763  0.33929  1.0000
  S   S214      1.0  0.00521  0.69916  0.03310  1.0000
  C   C616      1.0  0.58524  0.70552  0.33377  1.0000
  C   C617      1.0  0.80124  0.98053  0.30855  1.0000
  H   H611      1.0  0.82397  0.52060  0.25318  1.0000
  H   H612      1.0  0.85051  0.56868  0.08328  1.0000
  C   C618      1.0  0.77262  0.95685  0.31040  1.0000
  C   C619      1.0  0.96811  0.85265  0.20302  1.0000
  H   H613      1.0  0.89781  0.52452  0.15327  1.0000
  C   C620      1.0  0.79782  0.56780  0.06823  1.0000
  C   C621      1.0  0.53769  0.65073  0.22214  1.0000
  C   C622      1.0  0.99688  0.53382  0.14749  1.0000
  C   C623      1.0  0.53605  0.68366  0.27373  1.0000
  H   H614      1.0  0.72434  0.99242  0.22318  1.0000
  C   C624      1.0  0.56866  0.63905  0.23248  1.0000
  H   H615      1.0  0.59258  0.59679  0.24933  1.0000
  H   H616      1.0  0.90934  0.54109  0.11813  1.0000
  C   C625      1.0  0.00612  0.85769  0.17380  1.0000
  H   H617      1.0  0.73440  0.96725  0.26675  1.0000
  N   N55       1.0  0.94941  0.82601  0.19434  1.0000
  H   H618      1.0  0.98768  0.91199  0.30356  1.0000
  C   C626      1.0  0.54935  0.65352  0.28333  1.0000
  S   S215      1.0  0.89015  0.56624  0.18900  1.0000
  C   C627      1.0  0.82622  0.58340  0.07893  1.0000
  C   C628      1.0  0.00019  0.84789  0.27349  1.0000
  H   H619      1.0  0.90353  0.82841  0.21386  1.0000
  H   H620      1.0  0.74056  0.63606  0.06303  1.0000
  H   H621      1.0  0.71110  0.00621  0.33481  1.0000
  C   C629      1.0  0.79698  0.01391  0.31626  1.0000
  H   H622      1.0  0.82583  0.97349  0.30035  1.0000
  H   H623      1.0  0.00087  0.55225  0.21288  1.0000
  Fe  Fe108     1.0  0.63474  0.59481  0.35081  1.0000
  H   H624      1.0  0.84542  0.63225  0.03395  1.0000
  C   C630      1.0  0.95917  0.81420  0.17585  1.0000
  H   H625      1.0  0.71956  0.55587  0.06277  1.0000
  H   H626      1.0  0.98499  0.95746  0.27753  1.0000
  C   C631      1.0  0.79773  0.66446  0.02906  1.0000
  C   C632      1.0  0.74214  0.98553  0.21032  1.0000
  H   H627      1.0  0.99421  0.82122  0.15031  1.0000
  H   H628      1.0  0.77525  0.99232  0.17523  1.0000
  H   H629      1.0  0.97650  0.86049  0.03471  1.0000
  C   C633      1.0  0.98440  0.53539  0.20298  1.0000
  H   H630      1.0  0.70334  0.93736  0.33730  1.0000
  C   C634      1.0  0.00210  0.78991  0.06195  1.0000
  H   H631      1.0  0.72424  0.97567  0.19820  1.0000
  H   H632      1.0  0.72065  0.58827  0.04332  1.0000
  H   H633      1.0  0.71711  0.91611  0.31459  1.0000
  H   H634      1.0  0.76108  0.96434  0.21518  1.0000
  C   C635      1.0  0.77924  0.01439  0.18499  1.0000
  H   H635      1.0  0.95302  0.82157  0.06142  1.0000
  H   H636      1.0  0.58917  0.69640  0.31863  1.0000
  C   C636      1.0  0.98018  0.81748  0.05519  1.0000
  C   C637      1.0  0.53819  0.58486  0.23875  1.0000
  H   H637      1.0  0.53834  0.55957  0.24584  1.0000
  C   C638      1.0  0.55122  0.65239  0.34141  1.0000
  C   C639      1.0  0.52795  0.62362  0.28374  1.0000
  H   H638      1.0  0.74608  0.68933  0.02211  1.0000
  S   S216      1.0  0.94223  0.78909  0.68265  1.0000
  C   C640      1.0  0.95379  0.56355  0.59491  1.0000
  Fe  Fe109     1.0  0.60000  0.81979  0.46588  1.0000
  S   S217      1.0  0.64817  0.78308  0.46274  1.0000
  C   C641      1.0  0.52938  0.70301  0.49074  1.0000
  Fe  Fe110     1.0  0.63963  0.87914  0.44480  1.0000
  S   S218      1.0  0.69038  0.84704  0.44018  1.0000
  S   S219      1.0  0.63827  0.93642  0.43692  1.0000
  Fe  Fe111     1.0  0.65236  0.80392  0.43147  1.0000
  S   S220      1.0  0.66645  0.77582  0.40258  1.0000
  Fe  Fe112     1.0  0.68224  0.82933  0.47169  1.0000
  S   S221      1.0  0.73216  0.82443  0.49203  1.0000
  S   S222      1.0  0.60196  0.83768  0.43383  1.0000
  S   S223      1.0  0.63378  0.86432  0.47713  1.0000
  H   H639      1.0  0.96347  0.52291  0.53489  1.0000
  H   H640      1.0  0.54768  0.68151  0.37725  1.0000
  Fe  Fe113     1.0  0.85728  0.94801  0.55447  1.0000
  S   S224      1.0  0.89513  0.90197  0.55445  1.0000
  S   S225      1.0  0.80573  0.95279  0.53546  1.0000
  Fe  Fe114     1.0  0.90277  0.98570  0.58649  1.0000
  S   S226      1.0  0.94279  0.94112  0.58917  1.0000
  H   H641      1.0  0.82409  0.97029  0.48934  1.0000
  Fe  Fe115     1.0  0.94090  0.94080  0.55559  1.0000
  C   C642      1.0  0.60046  0.52711  0.39924  1.0000
  Fe  Fe116     1.0  0.89316  0.90675  0.58794  1.0000
  S   S227      1.0  0.87518  0.85751  0.60388  1.0000
  S   S228      1.0  0.90309  0.98654  0.55296  1.0000
  S   S229      1.0  0.85304  0.95166  0.58784  1.0000
  C   C643      1.0  0.82961  0.91775  0.47877  1.0000
  C   C644      1.0  0.53355  0.79080  0.50157  1.0000
  C   C645      1.0  0.00879  0.96915  0.52129  1.0000
  H   H642      1.0  0.95664  0.99551  0.51952  1.0000
  H   H643      1.0  0.64275  0.91729  0.36448  1.0000
  C   C646      1.0  0.92389  0.80720  0.66042  1.0000
  C   C647      1.0  0.89364  0.79273  0.65079  1.0000
  C   C648      1.0  0.87915  0.80851  0.63349  1.0000
  C   C649      1.0  0.89465  0.83888  0.62568  1.0000
  C   C650      1.0  0.92481  0.85341  0.63536  1.0000
  C   C651      1.0  0.93933  0.83761  0.65266  1.0000
  H   H644      1.0  0.88142  0.76943  0.65664  1.0000
  H   H645      1.0  0.85579  0.79711  0.62612  1.0000
  H   H646      1.0  0.93700  0.87675  0.62951  1.0000
  H   H647      1.0  0.96269  0.84903  0.66004  1.0000
  C   C652      1.0  0.90956  0.58759  0.66605  1.0000
  C   C653      1.0  0.87334  0.59413  0.66016  1.0000
  C   C654      1.0  0.85700  0.57341  0.64537  1.0000
  C   C655      1.0  0.87681  0.54631  0.63627  1.0000
  C   C656      1.0  0.91300  0.53985  0.64222  1.0000
  C   C657      1.0  0.92918  0.56027  0.65711  1.0000
  H   H648      1.0  0.89693  0.57040  0.58680  1.0000
  H   H649      1.0  0.60576  0.55046  0.39070  1.0000
  H   H650      1.0  0.76383  0.87473  0.45327  1.0000
  H   H651      1.0  0.95725  0.55514  0.66154  1.0000
  C   C658      1.0  0.91435  0.60810  0.60861  1.0000
  C   C659      1.0  0.56123  0.77787  0.51405  1.0000
  C   C660      1.0  0.56162  0.69747  0.36638  1.0000
  H   H652      1.0  0.58962  0.77973  0.50955  1.0000
  H   H653      1.0  0.95823  0.54161  0.58506  1.0000
  C   C661      1.0  0.75200  0.86037  0.50410  1.0000
  C   C662      1.0  0.73369  0.89229  0.50545  1.0000
  C   C663      1.0  0.75039  0.92030  0.51525  1.0000
  C   C664      1.0  0.78541  0.91661  0.52383  1.0000
  C   C665      1.0  0.80361  0.88461  0.52257  1.0000
  C   C666      1.0  0.78696  0.85663  0.51273  1.0000
  H   H654      1.0  0.70658  0.89531  0.49908  1.0000
  H   H655      1.0  0.73609  0.94496  0.51620  1.0000
  H   H656      1.0  0.83064  0.88150  0.52900  1.0000
  H   H657      1.0  0.80128  0.83200  0.51172  1.0000
  C   C667      1.0  0.63738  0.66363  0.38676  1.0000
  C   C668      1.0  0.65885  0.68347  0.37394  1.0000
  C   C669      1.0  0.66862  0.71742  0.37936  1.0000
  C   C670      1.0  0.65681  0.73187  0.39751  1.0000
  C   C671      1.0  0.63590  0.71177  0.41048  1.0000
  C   C672      1.0  0.62624  0.67777  0.40511  1.0000
  C   C673      1.0  0.97606  0.60344  0.61975  1.0000
  H   H658      1.0  0.68489  0.73283  0.36928  1.0000
  H   H659      1.0  0.62673  0.72264  0.42450  1.0000
  H   H660      1.0  0.60968  0.66253  0.41512  1.0000
  C   C674      1.0  0.63996  0.97178  0.37157  1.0000
  C   C675      1.0  0.64150  0.93630  0.37630  1.0000
  C   C676      1.0  0.64100  0.92516  0.39627  1.0000
  C   C677      1.0  0.63896  0.94947  0.41167  1.0000
  C   C678      1.0  0.63772  0.98499  0.40696  1.0000
  C   C679      1.0  0.63820  0.99616  0.38696  1.0000
  C   C680      1.0  0.55202  0.76122  0.53202  1.0000
  H   H661      1.0  0.64191  0.89775  0.39973  1.0000
  H   H662      1.0  0.57354  0.75057  0.54139  1.0000
  H   H663      1.0  0.82895  0.57856  0.64087  1.0000
  H   H664      1.0  0.98993  0.99728  0.56617  1.0000
  C   C681      1.0  0.99898  0.53810  0.51072  1.0000
  H   H665      1.0  0.63173  0.54363  0.42473  1.0000
  H   H666      1.0  0.53572  0.67818  0.48310  1.0000
  S   S230      1.0  0.99490  0.93735  0.53871  1.0000
  H   H667      1.0  0.88746  0.62028  0.60939  1.0000
  C   C682      1.0  0.57530  0.72964  0.37232  1.0000
  H   H668      1.0  0.72127  0.92143  0.43881  1.0000
  H   H669      1.0  0.90810  0.65086  0.63905  1.0000
  H   H670      1.0  0.63613  0.00390  0.41883  1.0000
  H   H671      1.0  0.70320  0.91883  0.46375  1.0000
  N   N56       1.0  0.94235  0.61932  0.62051  1.0000
  H   H672      1.0  0.95466  0.64821  0.64686  1.0000
  H   H673      1.0  0.97667  0.54784  0.50156  1.0000
  C   C683      1.0  0.61505  0.52326  0.41837  1.0000
  S   S231      1.0  0.54305  0.80634  0.47736  1.0000
  H   H674      1.0  0.85795  0.61508  0.66699  1.0000
  C   C684      1.0  0.98479  0.99513  0.51455  1.0000
  H   H675      1.0  0.94274  0.67379  0.62513  1.0000
  H   H676      1.0  0.54385  0.72434  0.48291  1.0000
  N   N57       1.0  0.78771  0.84327  0.56570  1.0000
  C   C685      1.0  0.75668  0.83299  0.55590  1.0000
  C   C686      1.0  0.78978  0.87584  0.57365  1.0000
  C   C687      1.0  0.72710  0.85597  0.55338  1.0000
  C   C688      1.0  0.76078  0.89949  0.57137  1.0000
  C   C689      1.0  0.72932  0.88947  0.56110  1.0000
  C   C690      1.0  0.81894  0.81939  0.56802  1.0000
  H   H677      1.0  0.75506  0.80736  0.54934  1.0000
  H   H678      1.0  0.81432  0.88389  0.58146  1.0000
  H   H679      1.0  0.70322  0.84820  0.54484  1.0000
  H   H680      1.0  0.76330  0.92578  0.57695  1.0000
  H   H681      1.0  0.70714  0.90794  0.55865  1.0000
  H   H682      1.0  0.84496  0.83278  0.56434  1.0000
  H   H683      1.0  0.82080  0.81038  0.58374  1.0000
  H   H684      1.0  0.81682  0.79655  0.55804  1.0000
  H   H685      1.0  0.66762  0.67284  0.35980  1.0000
  H   H686      1.0  0.57217  0.73847  0.38759  1.0000
  H   H687      1.0  0.54058  0.70212  0.50617  1.0000
  C   C691      1.0  0.91958  0.57997  0.59572  1.0000
  S   S232      1.0  0.62187  0.62196  0.38003  1.0000
  N   N58       1.0  0.76041  0.92778  0.46215  1.0000
  C   C692      1.0  0.77757  0.89623  0.46045  1.0000
  C   C693      1.0  0.77685  0.95428  0.47225  1.0000
  C   C694      1.0  0.81249  0.89079  0.46862  1.0000
  C   C695      1.0  0.81171  0.94970  0.48066  1.0000
  C   C696      1.0  0.99142  0.52390  0.52956  1.0000
  C   C697      1.0  0.72330  0.93230  0.45411  1.0000
  H   H688      1.0  0.99823  0.61231  0.62920  1.0000
  H   H689      1.0  0.76265  0.97883  0.47435  1.0000
  H   H690      1.0  0.82546  0.86541  0.46772  1.0000
  C   C698      1.0  0.98224  0.57525  0.60700  1.0000
  H   H691      1.0  0.53336  0.81136  0.60545  1.0000
  C   C699      1.0  0.93674  0.64959  0.63342  1.0000
  H   H692      1.0  0.86655  0.00877  0.62941  1.0000
  H   H693      1.0  0.71488  0.96002  0.45310  1.0000
  H   H694      1.0  0.85609  0.91355  0.48584  1.0000
  H   H695      1.0  0.52414  0.80114  0.57971  1.0000
  H   H696      1.0  0.00879  0.56231  0.60653  1.0000
  S   S233      1.0  0.93232  0.61342  0.68382  1.0000
  H   H697      1.0  0.60669  0.77403  0.36346  1.0000
  C   C700      1.0  0.59470  0.74968  0.35872  1.0000
  S   S234      1.0  0.85598  0.52189  0.61711  1.0000
  H   H698      1.0  0.55653  0.63247  0.35309  1.0000
  C   C701      1.0  0.85826  0.82181  0.70363  1.0000
  H   H699      1.0  0.69984  0.71800  0.81817  1.0000
  Fe  Fe117     1.0  0.85591  0.70956  0.72029  1.0000
  S   S235      1.0  0.89906  0.74694  0.72986  1.0000
  S   S236      1.0  0.79597  0.71991  0.72770  1.0000
  H   H700      1.0  0.54895  0.94446  0.77940  1.0000
  Fe  Fe118     1.0  0.93302  0.69957  0.73719  1.0000
  S   S237      1.0  0.96184  0.69442  0.76711  1.0000
  H   H701      1.0  0.62118  0.87581  0.75774  1.0000
  S   S238      1.0  0.88809  0.66229  0.72982  1.0000
  Fe  Fe119     1.0  0.61699  0.58228  0.97460  1.0000
  H   H702      1.0  0.77790  0.79623  0.72415  1.0000
  S   S239      1.0  0.56250  0.58883  0.99079  1.0000
  Fe  Fe120     1.0  0.66855  0.60976  0.94207  1.0000
  S   S240      1.0  0.70577  0.56302  0.94495  1.0000
  S   S241      1.0  0.69296  0.65001  0.92130  1.0000
  C   C702      1.0  0.82278  0.80856  0.70469  1.0000
  H   H703      1.0  0.94443  0.61067  0.79893  1.0000
  Fe  Fe121     1.0  0.69980  0.57189  0.97791  1.0000
  S   S242      1.0  0.75056  0.56894  0.99763  1.0000
  S   S243      1.0  0.61733  0.57774  0.94106  1.0000
  S   S244      1.0  0.66452  0.61952  0.97505  1.0000
  Fe  Fe122     1.0  0.69228  0.80866  0.81864  1.0000
  S   S245      1.0  0.64180  0.77582  0.81814  1.0000
  S   S246      1.0  0.74874  0.78726  0.81067  1.0000
  Fe  Fe123     1.0  0.65145  0.87084  0.83654  1.0000
  S   S247      1.0  0.59806  0.84251  0.83722  1.0000
  S   S248      1.0  0.64969  0.92772  0.84516  1.0000
  Fe  Fe124     1.0  0.63116  0.79727  0.84869  1.0000
  S   S249      1.0  0.60524  0.76610  0.87350  1.0000
  Fe  Fe125     1.0  0.61309  0.82380  0.80679  1.0000
  S   S250      1.0  0.57060  0.81880  0.78236  1.0000
  S   S251      1.0  0.68363  0.82697  0.85036  1.0000
  S   S252      1.0  0.66445  0.85526  0.80488  1.0000
  C   C703      1.0  0.95944  0.59754  0.78718  1.0000
  S   S253      1.0  0.65227  0.53545  0.97998  1.0000
  H   H704      1.0  0.97605  0.80264  0.99305  1.0000
  C   C704      1.0  0.95917  0.59476  0.73148  1.0000
  H   H705      1.0  0.72010  0.63808  0.00503  1.0000
  C   C705      1.0  0.54417  0.55594  0.00633  1.0000
  H   H706      1.0  0.83047  0.60529  0.94988  1.0000
  C   C706      1.0  0.66816  0.68407  0.90976  1.0000
  C   C707      1.0  0.68735  0.70831  0.89823  1.0000
  C   C708      1.0  0.66844  0.73395  0.88726  1.0000
  C   C709      1.0  0.63018  0.73561  0.88786  1.0000
  C   C710      1.0  0.61106  0.71209  0.89989  1.0000
  C   C711      1.0  0.62996  0.68627  0.91075  1.0000
  H   H707      1.0  0.71694  0.70681  0.89747  1.0000
  H   H708      1.0  0.68343  0.75220  0.87822  1.0000
  H   H709      1.0  0.58143  0.71340  0.90050  1.0000
  H   H710      1.0  0.61493  0.66774  0.91959  1.0000
  C   C712      1.0  0.65855  0.96502  0.90993  1.0000
  C   C713      1.0  0.64566  0.98735  0.89500  1.0000
  C   C714      1.0  0.64417  0.97590  0.87509  1.0000
  C   C715      1.0  0.65509  0.94199  0.87001  1.0000
  C   C716      1.0  0.66870  0.91994  0.88487  1.0000
  C   C717      1.0  0.67080  0.93159  0.90471  1.0000
  C   C718      1.0  0.54477  0.00541  0.00596  1.0000
  H   H711      1.0  0.63377  0.99315  0.86362  1.0000
  H   H712      1.0  0.67753  0.89391  0.88110  1.0000
  H   H713      1.0  0.68114  0.91429  0.91616  1.0000
  C   C719      1.0  0.54641  0.85655  0.77524  1.0000
  H   H714      1.0  0.56318  0.00101  0.99358  1.0000
  H   H715      1.0  0.80933  0.79883  0.69141  1.0000
  C   C720      1.0  0.76916  0.70539  0.97415  1.0000
  H   H716      1.0  0.92948  0.59003  0.72905  1.0000
  H   H717      1.0  0.58595  0.93204  0.91767  1.0000
  H   H718      1.0  0.62180  0.80884  0.90988  1.0000
  C   C721      1.0  0.78294  0.73742  0.75111  1.0000
  C   C722      1.0  0.80859  0.74272  0.76630  1.0000
  C   C723      1.0  0.79760  0.75792  0.78444  1.0000
  C   C724      1.0  0.76097  0.76819  0.78756  1.0000
  C   C725      1.0  0.73527  0.76291  0.77237  1.0000
  C   C726      1.0  0.74623  0.74749  0.75425  1.0000
  H   H719      1.0  0.83692  0.73510  0.76409  1.0000
  H   H720      1.0  0.81765  0.76184  0.79612  1.0000
  H   H721      1.0  0.70698  0.77059  0.77459  1.0000
  H   H722      1.0  0.72621  0.74345  0.74258  1.0000
  H   H723      1.0  0.87342  0.83846  0.75208  1.0000
  H   H724      1.0  0.92020  0.85494  0.70406  1.0000
  C   C727      1.0  0.80325  0.69552  0.98189  1.0000
  C   C728      1.0  0.55716  0.88920  0.78198  1.0000
  H   H725      1.0  0.57510  0.93563  0.88279  1.0000
  Fe  Fe126     1.0  0.92032  0.74143  0.69853  1.0000
  C   C729      1.0  0.98998  0.57691  0.79172  1.0000
  H   H726      1.0  0.59497  0.92072  0.73439  1.0000
  C   C730      1.0  0.57183  0.90712  0.88122  1.0000
  H   H727      1.0  0.72282  0.68930  0.95640  1.0000
  C   C731      1.0  0.94956  0.60276  0.76723  1.0000
  H   H728      1.0  0.57702  0.52646  0.96427  1.0000
  H   H729      1.0  0.57871  0.81241  0.72639  1.0000
  H   H730      1.0  0.63616  0.01314  0.89884  1.0000
  H   H731      1.0  0.63283  0.83895  0.94220  1.0000
  C   C732      1.0  0.99686  0.78378  0.99721  1.0000
  S   S254      1.0  0.65592  0.97616  0.93545  1.0000
  Fe  Fe127     1.0  0.65422  0.53166  0.94653  1.0000
  C   C733      1.0  0.00342  0.67105  0.77031  1.0000
  N   N59       1.0  0.58829  0.88840  0.89809  1.0000
  C   C734      1.0  0.85904  0.83086  0.73863  1.0000
  N   N60       1.0  0.87583  0.83298  0.72045  1.0000
  C   C735      1.0  0.61985  0.85269  0.92991  1.0000
  H   H732      1.0  0.81925  0.58084  0.01712  1.0000
  C   C736      1.0  0.62190  0.85871  0.74439  1.0000
  H   H733      1.0  0.78968  0.58565  0.96002  1.0000
  H   H734      1.0  0.53235  0.53877  0.95591  1.0000
  C   C737      1.0  0.76803  0.60606  0.00964  1.0000
  C   C738      1.0  0.57144  0.83909  0.72292  1.0000
  H   H735      1.0  0.82722  0.59432  0.97613  1.0000
  N   N61       1.0  0.59028  0.86585  0.73141  1.0000
  S   S255      1.0  0.95833  0.69745  0.70688  1.0000
  H   H736      1.0  0.57935  0.89137  0.79265  1.0000
  C   C739      1.0  0.91374  0.84507  0.71924  1.0000
  C   C740      1.0  0.59307  0.90481  0.91598  1.0000
  H   H737      1.0  0.01285  0.66216  0.73909  1.0000
  H   H738      1.0  0.84305  0.65445  0.98452  1.0000
  N   N62       1.0  0.79701  0.63920  0.96700  1.0000
  C   C741      1.0  0.76389  0.64890  0.95905  1.0000
  C   C742      1.0  0.81692  0.66216  0.97807  1.0000
  C   C743      1.0  0.74938  0.68203  0.96256  1.0000
  C   C744      1.0  0.60933  0.88737  0.93207  1.0000
  C   C745      1.0  0.53997  0.91922  0.77444  1.0000
  C   C746      1.0  0.81197  0.60449  0.96297  1.0000
  H   H739      1.0  0.74826  0.63088  0.95011  1.0000
  Fe  Fe128     1.0  0.91136  0.66267  0.69877  1.0000
  H   H740      1.0  0.81015  0.81616  0.75465  1.0000
  H   H741      1.0  0.61464  0.90112  0.94589  1.0000
  H   H742      1.0  0.81845  0.71315  0.99138  1.0000
  C   C747      1.0  0.54179  0.84574  0.71012  1.0000
  C   C748      1.0  0.59787  0.85421  0.89597  1.0000
  H   H743      1.0  0.64779  0.86294  0.73614  1.0000
  N   N63       1.0  0.69433  0.68815  0.84478  1.0000
  C   C749      1.0  0.71437  0.66446  0.85554  1.0000
  C   C750      1.0  0.65686  0.68842  0.84576  1.0000
  C   C751      1.0  0.69684  0.63986  0.86745  1.0000
  C   C752      1.0  0.63846  0.66423  0.85753  1.0000
  C   C753      1.0  0.65865  0.63980  0.86841  1.0000
  C   C754      1.0  0.71293  0.71481  0.83305  1.0000
  H   H744      1.0  0.74408  0.66490  0.85530  1.0000
  H   H745      1.0  0.64094  0.70802  0.83792  1.0000
  H   H746      1.0  0.71269  0.62183  0.87653  1.0000
  H   H747      1.0  0.60882  0.66537  0.85880  1.0000
  H   H748      1.0  0.64485  0.62178  0.87824  1.0000
  H   H749      1.0  0.71176  0.74010  0.84099  1.0000
  H   H750      1.0  0.74225  0.70829  0.83032  1.0000
  C   C755      1.0  0.58057  0.89949  0.72736  1.0000
  N   N64       1.0  0.96941  0.58767  0.75224  1.0000
  H   H751      1.0  0.92677  0.62009  0.76379  1.0000
  C   C756      1.0  0.82334  0.81822  0.74020  1.0000
  C   C757      1.0  0.99955  0.56757  0.75655  1.0000
  H   H752      1.0  0.59350  0.84095  0.88192  1.0000
  S   S256      1.0  0.87504  0.70670  0.68820  1.0000
  C   C758      1.0  0.98812  0.75699  0.01053  1.0000
  H   H753      1.0  0.93292  0.82315  0.72246  1.0000
  C   C759      1.0  0.01479  0.73251  0.01595  1.0000
  H   H754      1.0  0.75794  0.73095  0.97731  1.0000
  H   H755      1.0  0.97449  0.57818  0.72076  1.0000
  C   C760      1.0  0.61388  0.83587  0.91179  1.0000
  H   H756      1.0  0.62174  0.83164  0.75013  1.0000
  H   H757      1.0  0.87181  0.82266  0.68929  1.0000
  H   H758      1.0  0.96489  0.62225  0.72775  1.0000
  H   H759      1.0  0.58584  0.89995  0.86709  1.0000
  C   C761      1.0  0.55113  0.90705  0.71462  1.0000
  H   H760      1.0  0.54230  0.90089  0.87996  1.0000
  C   C762      1.0  0.80517  0.80707  0.72308  1.0000
  H   H761      1.0  0.54277  0.93377  0.71198  1.0000
  C   C763      1.0  0.74744  0.63669  0.01122  1.0000
  C   C764      1.0  0.53167  0.87996  0.70596  1.0000
  H   H762      1.0  0.91879  0.86642  0.72996  1.0000
  H   H763      1.0  0.96072  0.75524  0.01652  1.0000
  H   H764      1.0  0.52631  0.82459  0.70369  1.0000
  C   C765      1.0  0.01020  0.56179  0.77634  1.0000
  H   H765      1.0  0.01629  0.55681  0.74471  1.0000
  H   H766      1.0  0.59170  0.52257  0.00538  1.0000
  C   C766      1.0  0.56406  0.52572  0.01077  1.0000
  H   H767      1.0  0.99885  0.57370  0.80707  1.0000
  C   C767      1.0  0.80327  0.60456  0.01809  1.0000
  H   H768      1.0  0.00234  0.67589  0.80231  1.0000
  C   C768      1.0  0.01669  0.66485  0.78970  1.0000
