data_image0
_chemical_formula_structural       FeS2FeS2FeSFeS3FeS2FeS2FeSFeS3FeS2FeSCFeCFeS3C2H3C6H4C3HC2H4C4HNH3C5H2C6H6CNCHC5SC2HC2HCNC2H2C2HCH5CHSC2H2CHCHC2H3CH2CHNHC4H3CH5CH2CHNCHC2SH3C4H3CHSHFeSHFeHFeS3FeSHFeS2FeSFeS3FeS2FeS2Fe2CS2CNH3CH2CHC6H3C6H5FeCH2C11H3SCH4NCHC2H2C3HCH2CHCHN2H3C4HCHCHC2H5CH4C2HC5SHC2H4CH2SCH2NH2CHC3SHFeSHFeS2FeSFeS3FeS2FeS2FeSFeHSCHFeS2FeS2FeSFeS3H2C2HCH2NHNC5HCH2C8H4CH4CH2CNC6H4CHC4NHCH5SC3H2CHCH3CHCH2C2HC2NSCH2C3SCH2CHC4NC6HC3H7CH6CHSH2C4H4CFeS2FeS2Fe2S3FeS2FeS2FeSFeS3FeS2FeS2FeSFeHS2H3CNHCH2C4HNHCHCH2CHCH2C6H7CHC6H4CHC4HC2HNCNHCH2CH2CH2CH3CH2CSH2CH3C2H3CHC3H2C3HC3FeS2FeS2FeSFeS3FeS2FeSCFeSFeS3FeS2FeS2Fe2S3C3H2C2NCHC6H4C2HCHNC2H2C2HC6H4CHCH4C2HC2HC2H7CH2C2H3C3H2C2HCHC4NC3H4CHNHC2H2C4HC2NHC3NH3CH2C2HC2HCHSH2CHC3HCH2CHCH4CNH2CH2CH2CHCH2CHFeSHFeS2FeSFeS3FeC2FeS2FeSFeHS2C2FeS2FeS2FeSFeS3HCNC4HCH2C7H4C3NC2HCHC2HNH4C6H5C2HCH2CHCNHC3H4CHCSHCH2CNSC3HC2H3C5H2NCHC2HC5H12C3H3CNHCH2CHC2SCHSHC3HC4H2CHC3HCHCHCHNHCH3CHSH7FeS2FeS2FeSFeCS2FeS2FeSCFeSFeCSHFeS2FeS2Fe2S3CH4CH2C3H2CHNCHNC6H4C6H4C2H2C3H7CH2CHCHC2HC2H2CH2C2H3CH4NC2HSH3C3H4CHCH3SC3SC2HCHCNHC5HC3HNSH2CH2C2H2CHCH2FeS2FeS2FeSFeS2FeS2FeS2FeSFeS3FeS2FeS2FeSHNSHCH2CHC4HC3HC4H2CHCH2C6H5C4H4C2H3C7H4SH4C2H3CSCH2CH2CH3CHSCNC5H4NCHCH2CHC2HNH4CHNC4NCH2CH2CHCHCH2CNHC3H2SCHC4HCHC2HCH2CH2CHC3H3CHCH2CNCHCHC2HCH2C2HFe2S2FeS2FeSFeS3FeS2FeS2FeSFeS3CH2FeS2FeSC2S2HCNC2HC2HCH2FeCH2C8H4C2HC7H12CHSNCHCHCH4SHCH3SCHCH2C3H2C2HNC4HCNHC3HFeHCHC2NC2HC4SCHC2H3CHC2H4CHC2NHSH9CH3CHCH2FeSHFeS2FeSFeS3FeS2FeS2FeSFeS2FeS2FeS2FeSFeS3CH3C3HC4H2CH2C8H4C6H6C2HCH2CH2CH2NHCHCH2C2H2CNHCNSC4H2C6HSHCH2CHSCHCH4CHCH2CH4CHC4H3C3SCSH2CHCH2CHCH3CH2C3NCHCHNC3H3CHNHCHCH3CFeSCFeS2FeHFeSHSHSHFeS2FeCFeNS2FeS2FeS2FeSFeCS2C2H3C3HCH2C6H5CH6C4H2CHC6NH4C2HCSCH2C3H3CN2C3H2C2H5C4H2C3HSC2HCH2SC4SHCH4CH4CFeH2C5H3C2H2CH2C4HSH2FeS2FeS2FeCFeS3FeS2FeS2FeSFeS3FeS2FeS2FeSFeS3CHCH2C4HCNC3HC6H4CHCHC7H4CHCH6C2H2CHCH2CHC2H2CHCHC2HCH3NH2CHC3HC2HCHCH3NC3NC2H4C2H2C3H2NHC4HC2SHCH3C3NHCH2CH2CHC2HC3H2CHCH5CFeS2FeS2FeSFeS3FeS2FeS2FeSFeS3FeS2FeSCFeSFeS3NC3HCHCHC4HCHNCH3CHCH2C6H4C3H3CHC7H4C2H6C3H2C3HNHNHNCHCHC2H2SHCHC2HC2H2CHCH3CH5NC6H5CHCHC3H2C2H3C2H3CHCH2C3HCNHC3NH2CHC2H3C2HFeSHFeS2FeHFeS3FeS2FeS2FeSFeS3FeSCFeS2FeSFeS3C2HCH4NH2C2H2CHC6H6C6H6C3HC2HC3HNH3C2H2C2HCHCH2C3H2CHCH2NHCNCNC2HC3HC2HNCH3CHC3HC3HC3HNHCHCH4SHCHCHC3H2FeSCFeS2FeSFeS3FeS2FeS2FeSFeS3CFeS2FeSHFeHFeS3C2SCH2C6H4C2HCHCH2CHC2H2C6HCH2C6H5CHCHC2HC2HCHNHC2HCH2C2HC2HCH2CHN2H2CHSC2H2NC4H4NC2H4CHCHSC4H5CHCHC4H3CH5CH4CH3CHC2H2C3HSNHCFeSFeS2FeSFeS3FeSCFeS2FeSFeS3FeS2FeS2FeSFeCS2C6H4NCH2CHC6H4CHCH3CHNH2C7H5CNC3H2C2HCH2NC2H2C2H3C2H2SHC5H3C2H2CH2CH2CH3CH5CHSHCHC2HC5HC2NH4
_chemical_formula_sum              "Fe192 S384 C1152 H1152 N96"
_cell_length_a       51.4834
_cell_length_b       51.8939
_cell_length_c       51.5845
_cell_angle_alpha    83.092
_cell_angle_beta     82.7857
_cell_angle_gamma    82.7258

_space_group_name_H-M_alt    "P 1"
_space_group_IT_number       1

loop_
  _space_group_symop_operation_xyz
  'x, y, z'

loop_
  _atom_site_type_symbol
  _atom_site_label
  _atom_site_symmetry_multiplicity
  _atom_site_fract_x
  _atom_site_fract_y
  _atom_site_fract_z
  _atom_site_occupancy
  Fe  Fe1       1.0  0.17927  0.12412  0.35286  1.0000
  S   S1        1.0  0.17530  0.16509  0.36278  1.0000
  S   S2        1.0  0.21976  0.10045  0.35342  1.0000
  Fe  Fe2       1.0  0.11857  0.12571  0.35231  1.0000
  S   S3        1.0  0.11072  0.16705  0.36244  1.0000
  S   S4        1.0  0.08712  0.10109  0.34449  1.0000
  Fe  Fe3       1.0  0.14607  0.17381  0.33343  1.0000
  S   S5        1.0  0.14829  0.21088  0.30643  1.0000
  Fe  Fe4       1.0  0.14072  0.15439  0.39083  1.0000
  S   S6        1.0  0.13809  0.16923  0.43019  1.0000
  S   S7        1.0  0.15239  0.13334  0.32081  1.0000
  S   S8        1.0  0.14619  0.11236  0.38325  1.0000
  Fe  Fe5       1.0  0.13292  0.38310  0.37987  1.0000
  S   S9        1.0  0.11942  0.34341  0.38243  1.0000
  S   S10       1.0  0.12234  0.40305  0.41774  1.0000
  Fe  Fe6       1.0  0.15359  0.38167  0.32047  1.0000
  S   S11       1.0  0.14213  0.34152  0.32022  1.0000
  S   S12       1.0  0.17520  0.39993  0.28238  1.0000
  Fe  Fe7       1.0  0.10472  0.35640  0.34352  1.0000
  S   S13       1.0  0.06662  0.34531  0.33343  1.0000
  Fe  Fe8       1.0  0.15804  0.33273  0.35911  1.0000
  S   S14       1.0  0.17982  0.29432  0.37250  1.0000
  S   S15       1.0  0.11490  0.39738  0.34194  1.0000
  S   S16       1.0  0.17281  0.37162  0.35833  1.0000
  Fe  Fe9       1.0  0.17731  0.40462  0.12541  1.0000
  S   S17       1.0  0.21960  0.41097  0.12530  1.0000
  S   S18       1.0  0.14992  0.39915  0.16392  1.0000
  Fe  Fe10      1.0  0.18148  0.40990  0.06392  1.0000
  S   S19       1.0  0.22395  0.41627  0.06046  1.0000
  C   C1        1.0  0.15707  0.30943  0.43566  1.0000
  Fe  Fe11      1.0  0.22741  0.38423  0.09339  1.0000
  C   C2        1.0  0.23401  0.22676  0.36370  1.0000
  Fe  Fe12      1.0  0.21211  0.44223  0.09242  1.0000
  S   S20       1.0  0.22923  0.48041  0.08739  1.0000
  S   S21       1.0  0.18550  0.37544  0.09509  1.0000
  S   S22       1.0  0.16912  0.43841  0.09436  1.0000
  C   C3        1.0  0.26114  0.22304  0.35637  1.0000
  C   C4        1.0  0.13794  0.31618  0.50735  1.0000
  H   H1        1.0  0.19999  0.46767  0.13802  1.0000
  H   H2        1.0  0.02354  0.39195  0.40704  1.0000
  H   H3        1.0  0.26926  0.38386  0.13246  1.0000
  C   C5        1.0  0.16855  0.39694  0.24980  1.0000
  C   C6        1.0  0.18853  0.40020  0.22874  1.0000
  C   C7        1.0  0.18335  0.40057  0.20241  1.0000
  C   C8        1.0  0.15797  0.39795  0.19675  1.0000
  C   C9        1.0  0.13803  0.39468  0.21781  1.0000
  C   C10       1.0  0.14327  0.39404  0.24414  1.0000
  H   H4        1.0  0.20817  0.40253  0.23277  1.0000
  H   H5        1.0  0.19894  0.40308  0.18651  1.0000
  H   H6        1.0  0.11826  0.39299  0.21365  1.0000
  H   H7        1.0  0.12755  0.39212  0.26003  1.0000
  C   C11       1.0  0.13474  0.39434  0.44875  1.0000
  C   C12       1.0  0.11976  0.40297  0.47151  1.0000
  C   C13       1.0  0.12874  0.39649  0.49651  1.0000
  H   H8        1.0  0.11197  0.34037  0.44071  1.0000
  C   C14       1.0  0.16836  0.37344  0.47622  1.0000
  C   C15       1.0  0.15912  0.37945  0.45130  1.0000
  H   H9        1.0  0.10098  0.41466  0.46978  1.0000
  H   H10       1.0  0.22467  0.14616  0.39414  1.0000
  H   H11       1.0  0.18739  0.36223  0.47783  1.0000
  H   H12       1.0  0.17108  0.37303  0.43398  1.0000
  C   C16       1.0  0.04467  0.16434  0.30519  1.0000
  C   C17       1.0  0.19757  0.46427  0.25473  1.0000
  C   C18       1.0  0.25026  0.11403  0.34786  1.0000
  C   C19       1.0  0.25260  0.13934  0.33563  1.0000
  H   H13       1.0  0.23538  0.15138  0.32915  1.0000
  N   N1        1.0  0.11285  0.29271  0.28315  1.0000
  H   H14       1.0  0.14522  0.13052  0.50082  1.0000
  H   H15       1.0  0.14832  0.27138  0.22845  1.0000
  H   H16       1.0  0.10930  0.16288  0.48593  1.0000
  C   C20       1.0  0.12661  0.27574  0.26662  1.0000
  C   C21       1.0  0.05293  0.14074  0.29465  1.0000
  C   C22       1.0  0.16287  0.15331  0.44857  1.0000
  C   C23       1.0  0.17159  0.12681  0.44704  1.0000
  C   C24       1.0  0.17330  0.16707  0.46576  1.0000
  H   H17       1.0  0.16341  0.11606  0.43394  1.0000
  H   H18       1.0  0.16686  0.18765  0.46676  1.0000
  C   C25       1.0  0.15719  0.23410  0.32471  1.0000
  C   C26       1.0  0.15220  0.23119  0.35215  1.0000
  C   C27       1.0  0.15947  0.24957  0.36685  1.0000
  C   C28       1.0  0.17113  0.27124  0.35410  1.0000
  C   C29       1.0  0.17582  0.27442  0.32666  1.0000
  C   C30       1.0  0.16915  0.25566  0.31198  1.0000
  H   H19       1.0  0.14236  0.21497  0.36211  1.0000
  H   H20       1.0  0.15553  0.24725  0.38806  1.0000
  H   H21       1.0  0.18508  0.29108  0.31680  1.0000
  H   H22       1.0  0.17364  0.25770  0.29085  1.0000
  H   H23       1.0  0.04046  0.10675  0.28181  1.0000
  H   H24       1.0  0.19804  0.44324  0.25836  1.0000
  C   C31       1.0  0.26918  0.06504  0.44806  1.0000
  N   N2        1.0  0.17835  0.47871  0.24143  1.0000
  C   C32       1.0  0.12667  0.13256  0.51311  1.0000
  H   H25       1.0  0.12989  0.25503  0.27307  1.0000
  C   C33       1.0  0.11909  0.33297  0.45942  1.0000
  C   C34       1.0  0.19782  0.50192  0.15846  1.0000
  C   C35       1.0  0.18950  0.11372  0.46391  1.0000
  C   C36       1.0  0.22089  0.49763  0.11495  1.0000
  C   C37       1.0  0.03978  0.35502  0.35595  1.0000
  S   S23       1.0  0.26385  0.35553  0.08918  1.0000
  C   C38       1.0  0.17810  0.50523  0.23643  1.0000
  C   C39       1.0  0.13708  0.28488  0.24130  1.0000
  H   H26       1.0  0.23207  0.46475  0.27441  1.0000
  C   C40       1.0  0.10471  0.34091  0.48251  1.0000
  C   C41       1.0  0.21697  0.47637  0.26379  1.0000
  H   H27       1.0  0.06628  0.16778  0.51415  1.0000
  C   C42       1.0  0.23225  0.03884  0.38846  1.0000
  N   N3        1.0  0.24423  0.04756  0.40975  1.0000
  C   C43       1.0  0.10630  0.15085  0.50459  1.0000
  C   C44       1.0  0.10334  0.28327  0.31020  1.0000
  H   H28       1.0  0.14356  0.49193  0.11868  1.0000
  H   H29       1.0  0.24428  0.04348  0.36939  1.0000
  C   C45       1.0  0.04292  0.37073  0.37527  1.0000
  C   C46       1.0  0.05230  0.10024  0.34890  1.0000
  H   H30       1.0  0.11688  0.40321  0.51376  1.0000
  C   C47       1.0  0.24927  0.08128  0.43629  1.0000
  H   H31       1.0  0.18586  0.49390  0.17553  1.0000
  H   H32       1.0  0.20211  0.16983  0.41068  1.0000
  H   H33       1.0  0.22172  0.08509  0.40769  1.0000
  H   H34       1.0  0.16323  0.32703  0.42304  1.0000
  H   H35       1.0  0.19974  0.16496  0.49528  1.0000
  C   C48       1.0  0.15859  0.46541  0.23174  1.0000
  H   H36       1.0  0.19168  0.42522  0.51127  1.0000
  S   S24       1.0  0.21742  0.11038  0.50620  1.0000
  C   C49       1.0  0.19173  0.15417  0.48206  1.0000
  C   C50       1.0  0.03421  0.12567  0.28890  1.0000
  H   H37       1.0  0.08676  0.35425  0.48157  1.0000
  H   H38       1.0  0.23268  0.15823  0.42350  1.0000
  C   C51       1.0  0.10886  0.31882  0.27494  1.0000
  H   H39       1.0  0.14465  0.29953  0.42469  1.0000
  C   C52       1.0  0.11887  0.32858  0.24971  1.0000
  H   H40       1.0  0.24346  0.10079  0.44207  1.0000
  C   C53       1.0  0.13322  0.31152  0.23286  1.0000
  C   C54       1.0  0.15319  0.38177  0.49900  1.0000
  H   H41       1.0  0.09813  0.33233  0.28801  1.0000
  H   H42       1.0  0.07376  0.13358  0.29203  1.0000
  H   H43       1.0  0.11572  0.34930  0.24339  1.0000
  C   C55       1.0  0.04301  0.07880  0.34049  1.0000
  H   H44       1.0  0.14140  0.31902  0.21336  1.0000
  H   H45       1.0  0.15050  0.45104  0.24750  1.0000
  C   C56       1.0  0.23698  0.07222  0.41697  1.0000
  H   H46       1.0  0.04069  0.13680  0.36539  1.0000
  N   N4        1.0  0.23623  0.18441  0.38854  1.0000
  H   H47       1.0  0.05914  0.17572  0.31045  1.0000
  C   C57       1.0  0.22177  0.20708  0.37981  1.0000
  C   C58       1.0  0.03381  0.12016  0.35871  1.0000
  C   C59       1.0  0.08220  0.15350  0.52031  1.0000
  C   C60       1.0  0.15177  0.30849  0.48389  1.0000
  H   H48       1.0  0.22248  0.24471  0.35683  1.0000
  H   H49       1.0  0.21195  0.04876  0.38702  1.0000
  H   H50       1.0  0.20060  0.21005  0.38512  1.0000
  C   C61       1.0  0.22333  0.16361  0.40504  1.0000
  H   H51       1.0  0.17339  0.50019  0.07788  1.0000
  H   H52       1.0  0.14176  0.47927  0.22540  1.0000
  H   H53       1.0  0.11611  0.28880  0.32401  1.0000
  H   H54       1.0  0.10360  0.26165  0.31301  1.0000
  H   H55       1.0  0.08281  0.29206  0.31558  1.0000
  C   C62       1.0  0.11427  0.33248  0.50659  1.0000
  H   H56       1.0  0.17028  0.29600  0.48472  1.0000
  H   H57       1.0  0.17511  0.29581  0.43888  1.0000
  C   C63       1.0  0.19908  0.12732  0.48187  1.0000
  H   H58       1.0  0.26829  0.43574  0.08200  1.0000
  N   N5        1.0  0.14228  0.31694  0.46031  1.0000
  C   C64       1.0  0.14904  0.51144  0.11253  1.0000
  H   H59       1.0  0.19481  0.09287  0.46399  1.0000
  C   C65       1.0  0.26375  0.03151  0.42123  1.0000
  C   C66       1.0  0.20584  0.48706  0.13726  1.0000
  S   S25       1.0  0.16211  0.41672  0.02558  1.0000
  H   H60       1.0  0.16773  0.45488  0.21473  1.0000
  H   H61       1.0  0.05694  0.06326  0.33300  1.0000
  H   H62       1.0  0.06210  0.37649  0.37681  1.0000
  C   C67       1.0  0.26285  0.18065  0.38152  1.0000
  C   C68       1.0  0.21679  0.50342  0.25887  1.0000
  C   C69       1.0  0.16595  0.51623  0.08947  1.0000
  C   C70       1.0  0.02109  0.37943  0.39241  1.0000
  H   H63       1.0  0.23188  0.51309  0.26548  1.0000
  H   H64       1.0  0.16334  0.51674  0.22528  1.0000
  H   H65       1.0  0.18265  0.45776  0.52048  1.0000
  C   C71       1.0  0.19726  0.51797  0.24510  1.0000
  H   H66       1.0  0.02537  0.37977  0.69049  1.0000
  S   S26       1.0  0.20534  0.11405  0.58195  1.0000
  H   H67       1.0  0.15625  0.36513  0.01276  1.0000
  Fe  Fe13      1.0  0.20044  0.18716  0.55930  1.0000
  S   S27       1.0  0.19576  0.17168  0.60206  1.0000
  H   H68       1.0  0.11435  0.40395  0.98217  1.0000
  Fe  Fe14      1.0  0.23130  0.14330  0.59055  1.0000
  H   H69       1.0  0.02235  0.32807  0.65815  1.0000
  Fe  Fe15      1.0  0.17026  0.14437  0.58900  1.0000
  S   S28       1.0  0.13067  0.13127  0.60781  1.0000
  S   S29       1.0  0.23740  0.16095  0.54880  1.0000
  S   S30       1.0  0.17298  0.16186  0.54714  1.0000
  Fe  Fe16      1.0  0.14347  0.37485  0.57099  1.0000
  S   S31       1.0  0.10754  0.35383  0.58014  1.0000
  H   H70       1.0  0.09674  0.10734  0.57040  1.0000
  Fe  Fe17      1.0  0.14224  0.38592  0.62960  1.0000
  S   S32       1.0  0.10622  0.36555  0.64219  1.0000
  S   S33       1.0  0.15978  0.40696  0.65872  1.0000
  Fe  Fe18      1.0  0.12584  0.33557  0.61603  1.0000
  S   S34       1.0  0.12497  0.29269  0.62725  1.0000
  Fe  Fe19      1.0  0.09164  0.38592  0.60505  1.0000
  S   S35       1.0  0.05047  0.40576  0.60373  1.0000
  S   S36       1.0  0.16328  0.35428  0.60581  1.0000
  S   S37       1.0  0.12626  0.40879  0.59363  1.0000
  Fe  Fe20      1.0  0.17781  0.39192  0.81432  1.0000
  S   S38       1.0  0.20347  0.42455  0.80567  1.0000
  S   S39       1.0  0.16228  0.37251  0.78239  1.0000
  Fe  Fe21      1.0  0.17947  0.39046  0.87514  1.0000
  S   S40       1.0  0.20458  0.42302  0.86997  1.0000
  S   S41       1.0  0.16882  0.37108  0.91670  1.0000
  Fe  Fe22      1.0  0.17846  0.44167  0.83964  1.0000
  Fe  Fe23      1.0  0.22706  0.40254  0.83687  1.0000
  C   C72       1.0  0.20571  0.40602  0.55680  1.0000
  S   S42       1.0  0.15114  0.41044  0.84700  1.0000
  S   S43       1.0  0.20345  0.36842  0.84343  1.0000
  C   C73       1.0  0.21021  0.50650  0.88376  1.0000
  N   N6        1.0  0.12319  0.43170  0.94922  1.0000
  H   H71       1.0  0.15933  0.43367  0.52724  1.0000
  H   H72       1.0  0.15976  0.48979  0.91611  1.0000
  H   H73       1.0  0.18681  0.28466  0.54793  1.0000
  C   C74       1.0  0.14481  0.09835  0.54517  1.0000
  H   H74       1.0  0.11510  0.39217  0.95096  1.0000
  H   H75       1.0  0.25389  0.35043  0.85711  1.0000
  C   C75       1.0  0.18039  0.43683  0.52662  1.0000
  H   H76       1.0  0.07667  0.45759  0.66178  1.0000
  C   C76       1.0  0.16464  0.37609  0.99519  1.0000
  C   C77       1.0  0.16523  0.36671  0.97057  1.0000
  C   C78       1.0  0.17360  0.38170  0.94720  1.0000
  C   C79       1.0  0.18335  0.40539  0.94890  1.0000
  C   C80       1.0  0.18274  0.41481  0.97362  1.0000
  C   C81       1.0  0.06756  0.18579  0.59332  1.0000
  H   H77       1.0  0.15773  0.34832  0.96959  1.0000
  H   H78       1.0  0.18991  0.41722  0.93115  1.0000
  H   H79       1.0  0.18854  0.43397  0.97455  1.0000
  C   C82       1.0  0.16125  0.39657  0.69290  1.0000
  C   C83       1.0  0.17089  0.41275  0.70867  1.0000
  C   C84       1.0  0.17153  0.40570  0.73596  1.0000
  C   C85       1.0  0.16247  0.38232  0.74793  1.0000
  C   C86       1.0  0.15283  0.36615  0.73211  1.0000
  C   C87       1.0  0.15223  0.37317  0.70483  1.0000
  H   H80       1.0  0.17782  0.43096  0.69980  1.0000
  H   H81       1.0  0.17893  0.41842  0.74778  1.0000
  H   H82       1.0  0.14584  0.34799  0.74107  1.0000
  H   H83       1.0  0.14476  0.36045  0.69308  1.0000
  H   H84       1.0  0.14744  0.48498  0.96445  1.0000
  Fe  Fe24      1.0  0.20955  0.13383  0.54087  1.0000
  C   C88       1.0  0.05036  0.14580  0.61259  1.0000
  H   H85       1.0  0.24320  0.23338  0.57894  1.0000
  H   H86       1.0  0.21601  0.33587  0.92787  1.0000
  C   C89       1.0  0.25501  0.32335  0.93908  1.0000
  C   C90       1.0  0.08395  0.43826  0.65485  1.0000
  C   C91       1.0  0.09825  0.14764  0.60528  1.0000
  C   C92       1.0  0.09950  0.11950  0.55185  1.0000
  C   C93       1.0  0.20393  0.41235  0.60259  1.0000
  C   C94       1.0  0.17460  0.24750  0.56481  1.0000
  C   C95       1.0  0.15798  0.23461  0.58428  1.0000
  C   C96       1.0  0.14183  0.24872  0.60289  1.0000
  C   C97       1.0  0.14216  0.27572  0.60187  1.0000
  C   C98       1.0  0.15762  0.28879  0.58144  1.0000
  C   C99       1.0  0.17394  0.27466  0.56297  1.0000
  H   H87       1.0  0.15779  0.21373  0.58527  1.0000
  H   H88       1.0  0.12943  0.23863  0.61832  1.0000
  H   H89       1.0  0.15767  0.30967  0.58027  1.0000
  S   S44       1.0  0.16608  0.37406  0.52986  1.0000
  C   C100      1.0  0.18277  0.24206  0.65228  1.0000
  H   H90       1.0  0.03387  0.13506  0.62026  1.0000
  H   H91       1.0  0.21095  0.47554  0.85940  1.0000
  H   H92       1.0  0.12420  0.44756  0.98537  1.0000
  H   H93       1.0  0.07643  0.43715  0.63574  1.0000
  N   N7        1.0  0.18936  0.42870  0.55257  1.0000
  C   C101      1.0  0.04367  0.38765  0.69188  1.0000
  H   H94       1.0  0.25606  0.09683  0.54614  1.0000
  C   C102      1.0  0.12894  0.44989  0.96416  1.0000
  C   C103      1.0  0.05926  0.37755  0.71183  1.0000
  H   H95       1.0  0.12529  0.41985  0.91069  1.0000
  H   H96       1.0  0.18531  0.24256  0.67327  1.0000
  C   C104      1.0  0.10927  0.40970  0.96177  1.0000
  C   C105      1.0  0.17267  0.40056  0.99689  1.0000
  C   C106      1.0  0.18020  0.44341  0.57282  1.0000
  H   H97       1.0  0.05320  0.36171  0.72612  1.0000
  C   C107      1.0  0.14921  0.47366  0.92536  1.0000
  H   H98       1.0  0.02085  0.27437  0.66531  1.0000
  H   H99       1.0  0.26439  0.02422  0.59593  1.0000
  C   C108      1.0  0.21320  0.39749  0.58184  1.0000
  H   H100      1.0  0.16434  0.10398  0.53615  1.0000
  C   C109      1.0  0.23701  0.22608  0.59910  1.0000
  H   H101      1.0  0.03964  0.41578  0.65815  1.0000
  N   N8        1.0  0.20653  0.22923  0.63823  1.0000
  N   N9        1.0  0.07535  0.41737  0.67457  1.0000
  H   H102      1.0  0.07963  0.11387  0.62309  1.0000
  H   H103      1.0  0.05533  0.35358  0.63100  1.0000
  H   H104      1.0  0.09487  0.38050  0.72890  1.0000
  C   C110      1.0  0.03482  0.36146  0.63287  1.0000
  C   C111      1.0  0.12965  0.43436  0.92254  1.0000
  C   C112      1.0  0.09033  0.40817  0.69454  1.0000
  C   C113      1.0  0.21517  0.23889  0.61321  1.0000
  H   H105      1.0  0.22637  0.38051  0.91060  1.0000
  C   C114      1.0  0.18740  0.43550  0.59810  1.0000
  H   H106      1.0  0.14574  0.31001  0.52596  1.0000
  C   C115      1.0  0.07640  0.13388  0.61437  1.0000
  H   H107      1.0  0.20494  0.25641  0.60384  1.0000
  C   C116      1.0  0.04571  0.17198  0.60233  1.0000
  C   C117      1.0  0.21916  0.20679  0.64980  1.0000
  H   H108      1.0  0.16682  0.46110  0.56961  1.0000
  H   H109      1.0  0.22560  0.37917  0.58524  1.0000
  H   H110      1.0  0.23827  0.05570  0.56601  1.0000
  H   H111      1.0  0.17967  0.44680  0.61434  1.0000
  H   H112      1.0  0.16563  0.23142  0.65102  1.0000
  C   C118      1.0  0.08264  0.38801  0.71336  1.0000
  H   H113      1.0  0.14824  0.45714  0.88915  1.0000
  H   H114      1.0  0.08767  0.41508  0.96227  1.0000
  H   H115      1.0  0.06002  0.13956  0.55645  1.0000
  H   H116      1.0  0.17804  0.26264  0.64376  1.0000
  C   C119      1.0  0.14221  0.47102  0.95248  1.0000
  C   C120      1.0  0.05193  0.40790  0.67349  1.0000
  H   H117      1.0  0.10372  0.33908  0.52459  1.0000
  C   C121      1.0  0.02696  0.38616  0.62041  1.0000
  C   C122      1.0  0.17513  0.50173  0.85802  1.0000
  C   C123      1.0  0.19974  0.49279  0.86647  1.0000
  C   C124      1.0  0.07866  0.13762  0.54402  1.0000
  C   C125      1.0  0.24133  0.36652  0.91901  1.0000
  S   S45       1.0  0.19837  0.22969  0.54473  1.0000
  H   H118      1.0  0.10851  0.41622  0.69583  1.0000
  C   C126      1.0  0.14280  0.45532  0.91024  1.0000
  C   C127      1.0  0.23554  0.34138  0.92866  1.0000
  H   H119      1.0  0.20905  0.40570  0.62229  1.0000
  H   H120      1.0  0.11015  0.18456  0.58735  1.0000
  H   H121      1.0  0.10584  0.43648  0.65103  1.0000
  H   H122      1.0  0.22910  0.49929  0.89053  1.0000
  C   C128      1.0  0.09365  0.17361  0.59434  1.0000
  H   H123      1.0  0.06431  0.20618  0.58582  1.0000
  H   H124      1.0  0.21252  0.39400  0.54093  1.0000
  S   S46       1.0  0.16076  0.48371  0.83817  1.0000
  C   C129      1.0  0.25025  0.20342  0.61090  1.0000
  H   H125      1.0  0.14244  0.07886  0.53959  1.0000
  H   H126      1.0  0.21190  0.19868  0.66935  1.0000
  N   N10       1.0  0.12329  0.11758  0.53669  1.0000
  H   H127      1.0  0.25080  0.30365  0.94636  1.0000
  H   H128      1.0  0.14501  0.09702  0.56684  1.0000
  C   C130      1.0  0.25729  0.05990  0.57038  1.0000
  H   H129      1.0  0.26702  0.19306  0.60012  1.0000
  C   C131      1.0  0.26661  0.37333  0.91993  1.0000
  C   C132      1.0  0.24137  0.19372  0.63644  1.0000
  C   C133      1.0  0.26723  0.08303  0.55926  1.0000
  S   S47       1.0  0.26654  0.13149  0.61438  1.0000
  H   H130      1.0  0.25123  0.17575  0.64550  1.0000
  Fe  Fe25      1.0  0.07521  0.67833  0.41217  1.0000
  S   S48       1.0  0.09721  0.63828  0.41669  1.0000
  H   H131      1.0  0.19239  0.95589  0.44678  1.0000
  Fe  Fe26      1.0  0.12468  0.70441  0.40117  1.0000
  S   S49       1.0  0.15109  0.66653  0.40576  1.0000
  S   S50       1.0  0.14070  0.74328  0.39266  1.0000
  Fe  Fe27      1.0  0.12381  0.65234  0.38089  1.0000
  S   S51       1.0  0.14011  0.62800  0.34706  1.0000
  Fe  Fe28      1.0  0.12226  0.65607  0.44112  1.0000
  S   S52       1.0  0.12916  0.63374  0.48111  1.0000
  S   S53       1.0  0.09925  0.69084  0.37445  1.0000
  S   S54       1.0  0.09851  0.69524  0.43836  1.0000
  Fe  Fe29      1.0  0.05744  0.89657  0.41057  1.0000
  S   S55       1.0  0.06154  0.93676  0.39026  1.0000
  S   S56       1.0  0.04668  0.88912  0.45415  1.0000
  Fe  Fe30      1.0  0.06634  0.87200  0.35985  1.0000
  S   S57       1.0  0.07115  0.91012  0.33532  1.0000
  S   S58       1.0  0.06376  0.83473  0.34291  1.0000
  Fe  Fe31      1.0  0.09649  0.91720  0.36591  1.0000
  S   S59       1.0  0.13383  0.93810  0.35655  1.0000
  Fe  Fe32      1.0  0.03596  0.92575  0.36187  1.0000
  H   H132      1.0  0.26123  0.62582  0.16791  1.0000
  S   S60       1.0  0.09392  0.87762  0.38865  1.0000
  C   C134      1.0  0.21015  0.68481  0.03049  1.0000
  H   H133      1.0  0.19628  0.67698  0.09683  1.0000
  Fe  Fe33      1.0  0.16156  0.64025  0.18903  1.0000
  S   S61       1.0  0.20315  0.62059  0.18813  1.0000
  S   S62       1.0  0.14096  0.66193  0.22358  1.0000
  Fe  Fe34      1.0  0.15701  0.62740  0.13203  1.0000
  S   S63       1.0  0.19761  0.60663  0.12802  1.0000
  S   S64       1.0  0.13151  0.62811  0.09884  1.0000
  Fe  Fe35      1.0  0.18765  0.58942  0.16953  1.0000
  S   S65       1.0  0.19282  0.54643  0.18293  1.0000
  Fe  Fe36      1.0  0.20882  0.63992  0.14660  1.0000
  S   S66       1.0  0.24203  0.66095  0.12465  1.0000
  S   S67       1.0  0.14574  0.60783  0.17265  1.0000
  S   S68       1.0  0.16834  0.66207  0.14846  1.0000
  H   H134      1.0  0.24029  0.53080  0.09695  1.0000
  H   H135      1.0  0.18284  0.62493  0.06511  1.0000
  C   C135      1.0  0.16422  0.56078  0.09665  1.0000
  C   C136      1.0  0.18681  0.94324  0.35182  1.0000
  H   H136      1.0  0.15520  0.94795  0.40382  1.0000
  C   C137      1.0  0.22022  0.53759  0.13515  1.0000
  H   H137      1.0  0.10026  0.63198  0.05667  1.0000
  H   H138      1.0  0.19450  0.96010  0.28086  1.0000
  N   N11       1.0  0.18219  0.68274  0.29783  1.0000
  H   H139      1.0  0.22643  0.55677  0.13453  1.0000
  N   N12       1.0  0.17379  0.54055  0.08215  1.0000
  C   C138      1.0  0.05960  0.65620  0.50974  1.0000
  C   C139      1.0  0.07284  0.89440  0.47085  1.0000
  C   C140      1.0  0.09719  0.89878  0.45684  1.0000
  C   C141      1.0  0.11814  0.90282  0.47013  1.0000
  C   C142      1.0  0.11460  0.90364  0.49736  1.0000
  H   H140      1.0  0.19717  0.64247  0.29866  1.0000
  C   C143      1.0  0.06939  0.89445  0.49823  1.0000
  H   H141      1.0  0.10004  0.89883  0.43576  1.0000
  H   H142      1.0  0.13717  0.90515  0.45926  1.0000
  C   C144      1.0  0.20323  0.88992  0.35959  1.0000
  C   C145      1.0  0.13340  0.67354  0.51173  1.0000
  C   C146      1.0  0.13794  0.63676  0.31286  1.0000
  C   C147      1.0  0.15075  0.61970  0.29480  1.0000
  C   C148      1.0  0.15131  0.62672  0.26742  1.0000
  C   C149      1.0  0.13884  0.65089  0.25776  1.0000
  C   C150      1.0  0.12524  0.66754  0.27584  1.0000
  C   C151      1.0  0.12486  0.66061  0.30320  1.0000
  H   H143      1.0  0.16077  0.60112  0.30202  1.0000
  H   H144      1.0  0.16172  0.61363  0.25380  1.0000
  H   H145      1.0  0.11532  0.68617  0.26861  1.0000
  H   H146      1.0  0.11477  0.67390  0.31676  1.0000
  C   C152      1.0  0.15548  0.72416  0.29305  1.0000
  H   H147      1.0  0.03273  0.67878  0.48456  1.0000
  H   H148      1.0  0.18615  0.92736  0.43257  1.0000
  H   H149      1.0  0.20470  0.52717  0.05361  1.0000
  H   H150      1.0  0.10985  0.96795  0.39820  1.0000
  C   C153      1.0  0.05400  0.75774  0.42092  1.0000
  H   H151      1.0  0.17282  0.70262  0.26089  1.0000
  H   H152      1.0  0.02167  0.81450  0.39541  1.0000
  C   C154      1.0  0.17914  0.68301  0.32454  1.0000
  N   N13       1.0  0.15201  0.95310  0.44456  1.0000
  C   C155      1.0  0.12077  0.76824  0.37604  1.0000
  C   C156      1.0  0.12735  0.79387  0.37311  1.0000
  C   C157      1.0  0.11037  0.81441  0.36203  1.0000
  C   C158      1.0  0.08703  0.80925  0.35343  1.0000
  C   C159      1.0  0.08121  0.78349  0.35501  1.0000
  C   C160      1.0  0.09786  0.76309  0.36662  1.0000
  H   H153      1.0  0.14526  0.79796  0.38000  1.0000
  H   H154      1.0  0.11541  0.83418  0.36006  1.0000
  H   H155      1.0  0.06321  0.77942  0.34830  1.0000
  H   H156      1.0  0.09243  0.74359  0.36885  1.0000
  C   C161      1.0  0.14077  0.62826  0.06439  1.0000
  H   H157      1.0  0.20476  0.56016  0.06019  1.0000
  C   C162      1.0  0.25927  0.93865  0.26568  1.0000
  C   C163      1.0  0.03620  0.80132  0.40542  1.0000
  C   C164      1.0  0.16701  0.62726  0.05279  1.0000
  C   C165      1.0  0.13649  0.69748  0.03590  1.0000
  N   N14       1.0  0.16340  0.69109  0.04310  1.0000
  H   H158      1.0  0.04374  0.70157  0.36747  1.0000
  C   C166      1.0  0.19896  0.66124  0.28601  1.0000
  H   H159      1.0  0.18787  0.66676  0.33711  1.0000
  H   H160      1.0  0.19721  0.53898  0.24057  1.0000
  H   H161      1.0  0.20948  0.86916  0.36248  1.0000
  H   H162      1.0  0.16165  0.88496  0.36399  1.0000
  H   H163      1.0  0.16211  0.70427  0.35726  1.0000
  S   S69       1.0  0.14075  0.91084  0.51302  1.0000
  C   C167      1.0  0.21393  0.93436  0.35120  1.0000
  C   C168      1.0  0.16770  0.92556  0.35630  1.0000
  C   C169      1.0  0.10084  0.97566  0.43870  1.0000
  H   H164      1.0  0.22834  0.94822  0.34745  1.0000
  H   H165      1.0  0.04722  0.64327  0.38271  1.0000
  C   C170      1.0  0.11056  0.97388  0.46301  1.0000
  H   H166      1.0  0.18060  0.96398  0.34862  1.0000
  C   C171      1.0  0.17074  0.70303  0.28206  1.0000
  H   H167      1.0  0.21984  0.66528  0.28335  1.0000
  H   H168      1.0  0.14379  0.96116  0.48454  1.0000
  H   H169      1.0  0.23125  0.01741  0.39139  1.0000
  C   C172      1.0  0.22235  0.90759  0.35485  1.0000
  H   H170      1.0  0.04274  0.61387  0.36902  1.0000
  C   C173      1.0  0.14282  0.95527  0.42054  1.0000
  H   H171      1.0  0.12694  0.52839  0.14591  1.0000
  H   H172      1.0  0.19303  0.65853  0.26658  1.0000
  C   C174      1.0  0.05734  0.81110  0.41409  1.0000
  C   C175      1.0  0.15241  0.72465  0.32026  1.0000
  H   H173      1.0  0.13215  0.68690  0.49403  1.0000
  C   C176      1.0  0.13647  0.96279  0.46550  1.0000
  C   C177      1.0  0.19303  0.68086  0.07630  1.0000
  N   N15       1.0  0.25944  0.91357  0.27750  1.0000
  S   S70       1.0  0.25640  0.89527  0.35212  1.0000
  C   C178      1.0  0.13978  0.53184  0.12781  1.0000
  H   H174      1.0  0.16988  0.58019  0.09055  1.0000
  H   H175      1.0  0.02915  0.62585  0.42614  1.0000
  C   C179      1.0  0.16747  0.68655  0.06905  1.0000
  C   C180      1.0  0.19164  0.54527  0.05804  1.0000
  C   C181      1.0  0.17607  0.89882  0.36042  1.0000
  S   S71       1.0  0.03151  0.68474  0.42324  1.0000
  C   C182      1.0  0.13276  0.64681  0.51065  1.0000
  H   H176      1.0  0.09806  0.98068  0.47993  1.0000
  H   H177      1.0  0.14603  0.73999  0.28055  1.0000
  C   C183      1.0  0.09016  0.89948  0.51145  1.0000
  H   H178      1.0  0.23432  0.67515  0.06250  1.0000
  C   C184      1.0  0.17264  0.63124  0.02508  1.0000
  C   C185      1.0  0.11713  0.96654  0.41726  1.0000
  C   C186      1.0  0.16434  0.70400  0.33611  1.0000
  C   C187      1.0  0.17879  0.94074  0.44788  1.0000
  N   N16       1.0  0.07667  0.79451  0.42527  1.0000
  C   C188      1.0  0.07503  0.76817  0.42911  1.0000
  C   C189      1.0  0.21293  0.92118  0.29087  1.0000
  C   C190      1.0  0.03461  0.77445  0.40881  1.0000
  C   C191      1.0  0.12059  0.63131  0.04803  1.0000
  C   C192      1.0  0.22839  0.52272  0.11406  1.0000
  C   C193      1.0  0.09879  0.80513  0.43400  1.0000
  H   H179      1.0  0.09049  0.75501  0.43778  1.0000
  C   C194      1.0  0.23665  0.90468  0.28980  1.0000
  C   C195      1.0  0.20459  0.52739  0.15718  1.0000
  C   C196      1.0  0.21446  0.67988  0.05691  1.0000
  H   H180      1.0  0.13984  0.57289  0.13117  1.0000
  H   H181      1.0  0.09348  0.81060  0.45431  1.0000
  H   H182      1.0  0.11676  0.79071  0.43334  1.0000
  H   H183      1.0  0.10409  0.82272  0.42083  1.0000
  H   H184      1.0  0.19502  0.91421  0.30122  1.0000
  H   H185      1.0  0.14080  0.74097  0.32911  1.0000
  H   H186      1.0  0.05069  0.89073  0.50921  1.0000
  C   C197      1.0  0.14718  0.55674  0.11971  1.0000
  H   H187      1.0  0.08074  0.98403  0.43643  1.0000
  H   H188      1.0  0.26991  0.01216  0.41516  1.0000
  H   H189      1.0  0.13040  0.71875  0.03597  1.0000
  H   H190      1.0  0.07140  0.64651  0.49396  1.0000
  H   H191      1.0  0.15089  0.68665  0.08431  1.0000
  H   H192      1.0  0.17915  0.92863  0.46723  1.0000
  C   C198      1.0  0.21268  0.94697  0.27951  1.0000
  H   H193      1.0  0.23688  0.88493  0.29957  1.0000
  S   S72       1.0  0.02959  0.88704  0.38406  1.0000
  H   H194      1.0  0.12244  0.68655  0.04985  1.0000
  H   H195      1.0  0.02876  0.64568  0.35536  1.0000
  C   C199      1.0  0.02289  0.70007  0.37165  1.0000
  C   C200      1.0  0.03309  0.63336  0.37383  1.0000
  C   C201      1.0  0.03798  0.67434  0.50451  1.0000
  C   C202      1.0  0.23596  0.95580  0.26673  1.0000
  H   H196      1.0  0.18005  0.55225  0.04128  1.0000
  H   H197      1.0  0.05862  0.83198  0.41104  1.0000
  H   H198      1.0  0.05303  0.73680  0.42334  1.0000
  H   H199      1.0  0.23606  0.97584  0.25786  1.0000
  C   C203      1.0  0.18433  0.69062  0.02389  1.0000
  Fe  Fe37      1.0  0.09549  0.90343  0.60585  1.0000
  S   S73       1.0  0.11064  0.87291  0.57841  1.0000
  S   S74       1.0  0.05205  0.90207  0.62218  1.0000
  Fe  Fe38      1.0  0.15241  0.91865  0.60680  1.0000
  S   S75       1.0  0.16980  0.89008  0.57858  1.0000
  S   S76       1.0  0.18140  0.93956  0.62480  1.0000
  Fe  Fe39      1.0  0.13459  0.90370  0.55709  1.0000
  Fe  Fe40      1.0  0.14406  0.86283  0.60303  1.0000
  S   S77       1.0  0.16383  0.82329  0.61623  1.0000
  S   S78       1.0  0.11839  0.93503  0.58322  1.0000
  S   S79       1.0  0.12755  0.89058  0.63241  1.0000
  Fe  Fe41      1.0  0.07960  0.65304  0.66641  1.0000
  S   S80       1.0  0.12084  0.63319  0.65853  1.0000
  S   S81       1.0  0.04366  0.63231  0.66663  1.0000
  Fe  Fe42      1.0  0.09809  0.70559  0.66899  1.0000
  S   S82       1.0  0.14060  0.68984  0.66138  1.0000
  S   S83       1.0  0.08200  0.74785  0.67077  1.0000
  Fe  Fe43      1.0  0.12773  0.66895  0.63006  1.0000
  S   S84       1.0  0.14586  0.67787  0.58759  1.0000
  Fe  Fe44      1.0  0.12957  0.65601  0.69078  1.0000
  S   S85       1.0  0.15617  0.63848  0.72257  1.0000
  S   S86       1.0  0.08603  0.68694  0.63621  1.0000
  S   S87       1.0  0.08762  0.67328  0.70015  1.0000
  Fe  Fe45      1.0  0.17112  0.63604  0.93766  1.0000
  S   S88       1.0  0.21151  0.61448  0.93297  1.0000
  S   S89       1.0  0.15721  0.65299  0.97675  1.0000
  Fe  Fe46      1.0  0.16418  0.63423  0.87866  1.0000
  S   S90       1.0  0.20416  0.61218  0.87046  1.0000
  S   S91       1.0  0.13612  0.64580  0.84688  1.0000
  Fe  Fe47      1.0  0.19441  0.58899  0.90916  1.0000
  S   S92       1.0  0.20966  0.54647  0.91365  1.0000
  Fe  Fe48      1.0  0.21778  0.63962  0.89493  1.0000
  H   H200      1.0  0.19276  0.63242  0.01637  1.0000
  S   S93       1.0  0.15297  0.60849  0.91621  1.0000
  S   S94       1.0  0.17860  0.66369  0.90080  1.0000
  H   H201      1.0  0.17161  0.56221  0.82363  1.0000
  H   H202      1.0  0.26443  0.54979  0.88030  1.0000
  H   H203      1.0  0.03040  0.93749  0.52429  1.0000
  C   C204      1.0  0.13467  0.62973  0.53387  1.0000
  N   N17       1.0  0.05193  0.66330  0.55543  1.0000
  H   H204      1.0  0.02901  0.95594  0.62395  1.0000
  C   C205      1.0  0.12531  0.79435  0.57487  1.0000
  H   H205      1.0  0.21785  0.90345  0.59375  1.0000
  H   H206      1.0  0.12430  0.59224  0.74594  1.0000
  C   C206      1.0  0.03040  0.68076  0.55059  1.0000
  C   C207      1.0  0.15214  0.63628  0.00883  1.0000
  C   C208      1.0  0.19649  0.52971  0.89186  1.0000
  C   C209      1.0  0.17222  0.53915  0.88279  1.0000
  H   H207      1.0  0.12641  0.81422  0.56584  1.0000
  N   N18       1.0  0.21729  0.86375  0.65297  1.0000
  H   H208      1.0  0.17005  0.57058  0.74005  1.0000
  C   C210      1.0  0.16097  0.56849  0.80670  1.0000
  H   H209      1.0  0.16151  0.55701  0.88916  1.0000
  C   C211      1.0  0.22912  0.91271  0.60549  1.0000
  H   H210      1.0  0.13442  0.60899  0.53324  1.0000
  H   H211      1.0  0.11185  0.56814  0.84414  1.0000
  C   C212      1.0  0.13445  0.58482  0.76300  1.0000
  H   H212      1.0  0.08243  0.63602  0.53953  1.0000
  C   C213      1.0  0.13664  0.68288  0.53561  1.0000
  H   H213      1.0  0.10888  0.60317  0.83564  1.0000
  H   H214      1.0  0.10272  0.59892  0.79062  1.0000
  C   C214      1.0  0.15109  0.64324  0.75667  1.0000
  C   C215      1.0  0.17135  0.63406  0.77262  1.0000
  C   C216      1.0  0.16742  0.63534  0.80008  1.0000
  C   C217      1.0  0.14305  0.64573  0.81206  1.0000
  C   C218      1.0  0.12288  0.65511  0.79609  1.0000
  C   C219      1.0  0.12686  0.65400  0.76861  1.0000
  H   H215      1.0  0.19015  0.62563  0.76368  1.0000
  H   H216      1.0  0.18315  0.62800  0.81200  1.0000
  H   H217      1.0  0.10395  0.66324  0.80506  1.0000
  H   H218      1.0  0.11102  0.66109  0.75675  1.0000
  H   H219      1.0  0.08722  0.90025  0.53247  1.0000
  H   H220      1.0  0.18408  0.88139  0.63493  1.0000
  H   H221      1.0  0.21689  0.83550  0.62629  1.0000
  C   C220      1.0  0.12246  0.58874  0.78831  1.0000
  H   H222      1.0  0.26546  0.82463  0.62131  1.0000
  C   C221      1.0  0.14130  0.80387  0.63486  1.0000
  C   C222      1.0  0.11438  0.81270  0.63787  1.0000
  C   C223      1.0  0.09626  0.79574  0.65016  1.0000
  C   C224      1.0  0.10506  0.76999  0.65933  1.0000
  C   C225      1.0  0.13209  0.76175  0.65756  1.0000
  C   C226      1.0  0.15019  0.77862  0.64526  1.0000
  H   H223      1.0  0.10742  0.83230  0.63008  1.0000
  H   H224      1.0  0.07538  0.80230  0.65175  1.0000
  H   H225      1.0  0.13907  0.74239  0.66563  1.0000
  H   H226      1.0  0.17104  0.77190  0.64338  1.0000
  C   C227      1.0  0.12352  0.74414  0.59982  1.0000
  H   H227      1.0  0.13903  0.62569  0.57543  1.0000
  C   C228      1.0  0.16138  0.52491  0.86619  1.0000
  C   C229      1.0  0.02307  0.68652  0.52511  1.0000
  C   C230      1.0  0.25969  0.87056  0.66402  1.0000
  C   C231      1.0  0.05925  0.65722  0.58225  1.0000
  H   H228      1.0  0.03235  0.68794  0.65443  1.0000
  C   C232      1.0  0.10005  0.76055  0.59731  1.0000
  C   C233      1.0  0.14840  0.77743  0.57787  1.0000
  H   H229      1.0  0.13502  0.69178  0.01604  1.0000
  N   N19       1.0  0.13586  0.58090  0.80971  1.0000
  C   C234      1.0  0.18879  0.87101  0.65414  1.0000
  N   N20       1.0  0.14730  0.75283  0.59060  1.0000
  H   H230      1.0  0.19365  0.55489  0.77934  1.0000
  C   C235      1.0  0.13702  0.63918  0.55790  1.0000
  H   H231      1.0  0.14217  0.53157  0.85998  1.0000
  H   H232      1.0  0.18107  0.69388  0.00328  1.0000
  C   C236      1.0  0.17357  0.56429  0.78166  1.0000
  H   H233      1.0  0.25879  0.61633  0.85027  1.0000
  H   H234      1.0  0.16930  0.72125  0.61163  1.0000
  C   C237      1.0  0.13842  0.66579  0.55884  1.0000
  H   H235      1.0  0.12266  0.72473  0.61003  1.0000
  H   H236      1.0  0.13819  0.70342  0.53597  1.0000
  C   C238      1.0  0.16025  0.57275  0.75969  1.0000
  H   H237      1.0  0.22323  0.89212  0.67774  1.0000
  H   H238      1.0  0.11010  0.64012  0.00852  1.0000
  H   H239      1.0  0.18813  0.74664  0.59606  1.0000
  C   C239      1.0  0.23173  0.94322  0.63661  1.0000
  H   H240      1.0  0.08305  0.79913  0.58362  1.0000
  H   H241      1.0  0.16724  0.78451  0.57090  1.0000
  C   C240      1.0  0.17170  0.73544  0.59376  1.0000
  S   S95       1.0  0.25724  0.65481  0.88660  1.0000
  H   H242      1.0  0.05270  0.67385  0.59411  1.0000
  H   H243      1.0  0.22218  0.95763  0.64927  1.0000
  C   C241      1.0  0.21636  0.93127  0.62179  1.0000
  H   H244      1.0  0.08141  0.75393  0.60600  1.0000
  H   H245      1.0  0.08103  0.65329  0.58219  1.0000
  H   H246      1.0  0.13737  0.58739  0.84956  1.0000
  C   C242      1.0  0.12281  0.58493  0.83607  1.0000
  C   C243      1.0  0.25664  0.90595  0.60436  1.0000
  H   H247      1.0  0.25441  0.57669  0.91511  1.0000
  H   H248      1.0  0.18130  0.88432  0.66943  1.0000
  H   H249      1.0  0.05006  0.63985  0.59216  1.0000
  C   C244      1.0  0.25626  0.83891  0.63434  1.0000
  H   H250      1.0  0.17698  0.72416  0.57648  1.0000
  C   C245      1.0  0.23229  0.87654  0.66620  1.0000
  C   C246      1.0  0.10101  0.78586  0.58485  1.0000
  C   C247      1.0  0.25932  0.93643  0.63550  1.0000
  H   H251      1.0  0.22665  0.68387  0.01518  1.0000
  H   H252      1.0  0.17815  0.85334  0.65831  1.0000
  C   C248      1.0  0.22887  0.84516  0.63719  1.0000
  C   C249      1.0  0.02311  0.91964  0.61057  1.0000
  C   C250      1.0  0.06603  0.65058  0.53554  1.0000
  H   H253      1.0  0.26610  0.89135  0.59189  1.0000
  C   C251      1.0  0.12618  0.63557  0.02058  1.0000
  C   C252      1.0  0.02102  0.65108  0.64734  1.0000
  C   C253      1.0  0.02011  0.67830  0.64399  1.0000
  Fe  Fe49      1.0  0.37014  0.12085  0.33780  1.0000
  S   S96       1.0  0.37178  0.07751  0.33815  1.0000
  S   S97       1.0  0.33079  0.14672  0.33509  1.0000
  Fe  Fe50      1.0  0.43126  0.11766  0.33662  1.0000
  S   S98       1.0  0.43633  0.07422  0.33747  1.0000
  S   S99       1.0  0.46816  0.13872  0.32800  1.0000
  Fe  Fe51      1.0  0.40688  0.08040  0.30842  1.0000
  S   S100      1.0  0.41353  0.05676  0.27414  1.0000
  Fe  Fe52      1.0  0.40089  0.07561  0.36743  1.0000
  S   S101      1.0  0.39798  0.04379  0.40073  1.0000
  S   S102      1.0  0.40366  0.12404  0.30528  1.0000
  S   S103      1.0  0.39746  0.11899  0.36932  1.0000
  Fe  Fe53      1.0  0.40976  0.12887  0.14581  1.0000
  S   S104      1.0  0.40742  0.13588  0.10230  1.0000
  S   S105      1.0  0.37459  0.12813  0.17629  1.0000
  Fe  Fe54      1.0  0.46899  0.12343  0.13978  1.0000
  S   S106      1.0  0.47167  0.12998  0.09588  1.0000
  C   C254      1.0  0.34007  0.44457  0.05426  1.0000
  Fe  Fe55      1.0  0.43885  0.16273  0.10248  1.0000
  S   S107      1.0  0.43938  0.20244  0.07737  1.0000
  Fe  Fe56      1.0  0.44018  0.10261  0.10014  1.0000
  S   S108      1.0  0.44503  0.06785  0.07593  1.0000
  S   S109      1.0  0.43872  0.15773  0.14635  1.0000
  S   S110      1.0  0.44024  0.09416  0.14354  1.0000
  Fe  Fe57      1.0  0.45284  0.41524  0.08702  1.0000
  S   S111      1.0  0.41714  0.42772  0.06617  1.0000
  S   S112      1.0  0.47994  0.44500  0.09344  1.0000
  Fe  Fe58      1.0  0.44407  0.35592  0.09139  1.0000
  S   S113      1.0  0.40794  0.36512  0.07048  1.0000
  S   S114      1.0  0.45405  0.31420  0.11060  1.0000
  Fe  Fe59      1.0  0.43127  0.39331  0.04370  1.0000
  Fe  Fe60      1.0  0.39780  0.39839  0.09528  1.0000
  S   S115      1.0  0.35852  0.40836  0.11817  1.0000
  S   S116      1.0  0.46858  0.38204  0.06255  1.0000
  S   S117      1.0  0.43255  0.38794  0.11813  1.0000
  C   C255      1.0  0.51982  0.43566  0.14344  1.0000
  C   C256      1.0  0.33270  0.39309  0.10997  1.0000
  C   C257      1.0  0.33568  0.37947  0.08778  1.0000
  H   H254      1.0  0.29675  0.19639  0.35926  1.0000
  H   H255      1.0  0.35392  0.37861  0.07502  1.0000
  C   C258      1.0  0.49910  0.49227  0.08610  1.0000
  C   C259      1.0  0.47605  0.47992  0.09036  1.0000
  N   N21       1.0  0.34618  0.03760  0.27629  1.0000
  C   C260      1.0  0.50474  0.15553  0.18856  1.0000
  H   H256      1.0  0.43368  0.48620  0.09803  1.0000
  C   C261      1.0  0.44054  0.23407  0.08720  1.0000
  C   C262      1.0  0.43885  0.23850  0.11363  1.0000
  C   C263      1.0  0.44200  0.26340  0.12044  1.0000
  C   C264      1.0  0.44652  0.28433  0.10102  1.0000
  C   C265      1.0  0.44715  0.28022  0.07461  1.0000
  C   C266      1.0  0.44419  0.25526  0.06779  1.0000
  H   H257      1.0  0.43584  0.22253  0.12882  1.0000
  H   H258      1.0  0.44145  0.26627  0.14094  1.0000
  H   H259      1.0  0.45076  0.29601  0.05936  1.0000
  H   H260      1.0  0.44538  0.25217  0.04727  1.0000
  C   C267      1.0  0.40101  0.04491  0.03244  1.0000
  C   C268      1.0  0.32264  0.31871  0.12958  1.0000
  H   H261      1.0  0.39331  0.30221  0.07168  1.0000
  C   C269      1.0  0.31460  0.36755  0.08159  1.0000
  H   H262      1.0  0.35690  0.04575  0.08720  1.0000
  N   N22       1.0  0.50601  0.24813  0.11382  1.0000
  C   C270      1.0  0.50010  0.12277  0.33274  1.0000
  C   C271      1.0  0.34566  0.05014  0.39555  1.0000
  H   H263      1.0  0.27141  0.07898  0.36481  1.0000
  H   H264      1.0  0.48745  0.09489  0.36472  1.0000
  C   C272      1.0  0.50419  0.10244  0.35276  1.0000
  C   C273      1.0  0.43476  0.13736  0.22941  1.0000
  H   H265      1.0  0.34598  0.07019  0.39925  1.0000
  C   C274      1.0  0.40017  0.07507  0.24732  1.0000
  C   C275      1.0  0.38302  0.09785  0.25078  1.0000
  C   C276      1.0  0.37400  0.11353  0.22893  1.0000
  C   C277      1.0  0.38217  0.10639  0.20365  1.0000
  C   C278      1.0  0.39777  0.08265  0.20042  1.0000
  C   C279      1.0  0.40691  0.06704  0.22223  1.0000
  H   H266      1.0  0.37659  0.10342  0.27025  1.0000
  H   H267      1.0  0.36147  0.13164  0.23155  1.0000
  H   H268      1.0  0.40258  0.07618  0.18114  1.0000
  H   H269      1.0  0.41954  0.04901  0.21957  1.0000
  C   C280      1.0  0.29764  0.10839  0.35179  1.0000
  H   H270      1.0  0.51662  0.26919  0.07669  1.0000
  C   C281      1.0  0.27571  0.19985  0.36532  1.0000
  H   H271      1.0  0.31485  0.09649  0.35835  1.0000
  H   H272      1.0  0.34680  0.05722  0.23742  1.0000
  H   H273      1.0  0.37344  0.34530  0.14840  1.0000
  H   H274      1.0  0.27448  0.45280  0.12091  1.0000
  C   C282      1.0  0.51149  0.25078  0.08704  1.0000
  C   C283      1.0  0.37664  0.31931  0.11815  1.0000
  H   H275      1.0  0.39777  0.31958  0.11391  1.0000
  C   C284      1.0  0.37828  0.29067  0.08345  1.0000
  C   C285      1.0  0.45169  0.49541  0.09455  1.0000
  H   H276      1.0  0.51916  0.14800  0.30188  1.0000
  C   C286      1.0  0.49572  0.04810  0.13990  1.0000
  C   C287      1.0  0.43538  0.03638  0.08782  1.0000
  H   H277      1.0  0.27081  0.23801  0.34360  1.0000
  H   H278      1.0  0.44354  0.15607  0.22489  1.0000
  H   H279      1.0  0.28732  0.41692  0.04119  1.0000
  H   H280      1.0  0.41791  0.13963  0.24500  1.0000
  H   H281      1.0  0.50430  0.19002  0.20829  1.0000
  H   H282      1.0  0.47390  0.46625  0.14946  1.0000
  H   H283      1.0  0.49451  0.22306  0.14799  1.0000
  C   C288      1.0  0.41687  0.03239  0.10984  1.0000
  H   H284      1.0  0.45735  0.09711  0.20337  1.0000
  H   H285      1.0  0.50467  0.01914  0.31042  1.0000
  C   C289      1.0  0.30010  0.13354  0.33941  1.0000
  C   C290      1.0  0.27657  0.04000  0.44047  1.0000
  H   H286      1.0  0.50115  0.42650  0.14770  1.0000
  H   H287      1.0  0.49366  0.05683  0.15822  1.0000
  H   H288      1.0  0.38842  0.27218  0.09249  1.0000
  C   C291      1.0  0.48326  0.09714  0.27036  1.0000
  C   C292      1.0  0.32868  0.45503  0.07737  1.0000
  C   C293      1.0  0.33683  0.30494  0.10965  1.0000
  H   H289      1.0  0.30643  0.46005  0.12599  1.0000
  H   H290      1.0  0.42665  0.13326  0.21151  1.0000
  C   C294      1.0  0.29907  0.42791  0.05096  1.0000
  C   C295      1.0  0.48387  0.07747  0.23023  1.0000
  H   H291      1.0  0.30624  0.05668  0.38482  1.0000
  C   C296      1.0  0.50528  0.06195  0.11642  1.0000
  H   H292      1.0  0.29641  0.09567  0.29736  1.0000
  C   C297      1.0  0.50114  0.02650  0.09271  1.0000
  C   C298      1.0  0.36818  0.03225  0.39766  1.0000
  C   C299      1.0  0.30863  0.39482  0.12592  1.0000
  C   C300      1.0  0.29042  0.36962  0.09738  1.0000
  N   N23       1.0  0.45461  0.11634  0.23812  1.0000
  C   C301      1.0  0.32329  0.04262  0.38702  1.0000
  C   C302      1.0  0.51565  0.14222  0.16702  1.0000
  C   C303      1.0  0.38481  0.05478  0.05358  1.0000
  H   H293      1.0  0.36049  0.44663  0.04700  1.0000
  H   H294      1.0  0.38550  0.07470  0.05773  1.0000
  H   H295      1.0  0.46778  0.50960  0.02578  1.0000
  H   H296      1.0  0.30633  0.40512  0.14326  1.0000
  C   C304      1.0  0.49786  0.20366  0.11305  1.0000
  H   H297      1.0  0.31684  0.35720  0.06430  1.0000
  N   N24       1.0  0.30326  0.45160  0.08721  1.0000
  H   H298      1.0  0.48929  0.46513  0.03910  1.0000
  C   C305      1.0  0.33566  0.03785  0.30199  1.0000
  C   C306      1.0  0.33588  0.33318  0.14373  1.0000
  H   H299      1.0  0.49137  0.27185  0.14451  1.0000
  H   H300      1.0  0.48985  0.14735  0.20265  1.0000
  C   C307      1.0  0.28754  0.38307  0.11965  1.0000
  C   C308      1.0  0.51293  0.17963  0.19174  1.0000
  C   C309      1.0  0.49095  0.47646  0.14994  1.0000
  C   C310      1.0  0.29178  0.46265  0.11150  1.0000
  H   H301      1.0  0.31543  0.09478  0.25058  1.0000
  C   C311      1.0  0.48869  0.02306  0.13950  1.0000
  C   C312      1.0  0.51027  0.22986  0.07262  1.0000
  N   N25       1.0  0.50813  0.05097  0.09326  1.0000
  H   H302      1.0  0.49050  0.09739  0.28919  1.0000
  C   C313      1.0  0.49925  0.22498  0.12683  1.0000
  C   C314      1.0  0.51633  0.15736  0.38049  1.0000
  C   C315      1.0  0.46394  0.11664  0.26177  1.0000
  N   N26       1.0  0.36346  0.30555  0.10403  1.0000
  H   H303      1.0  0.32499  0.34462  0.15867  1.0000
  H   H304      1.0  0.36529  0.28578  0.06952  1.0000
  H   H305      1.0  0.40903  0.04853  0.12104  1.0000
  C   C316      1.0  0.36304  0.33359  0.13796  1.0000
  H   H306      1.0  0.32626  0.29411  0.09849  1.0000
  H   H307      1.0  0.50069  0.07647  0.05921  1.0000
  C   C317      1.0  0.33859  0.05744  0.25785  1.0000
  C   C318      1.0  0.31020  0.07927  0.29137  1.0000
  H   H308      1.0  0.51414  0.23208  0.05138  1.0000
  C   C319      1.0  0.36881  0.03853  0.07014  1.0000
  C   C320      1.0  0.27747  0.14888  0.33112  1.0000
  H   H309      1.0  0.49170  0.06242  0.21757  1.0000
  C   C321      1.0  0.28838  0.43853  0.07416  1.0000
  H   H310      1.0  0.49207  0.18548  0.12342  1.0000
  S   S118      1.0  0.50417  0.11304  0.16212  1.0000
  H   H311      1.0  0.49997  0.14897  0.39247  1.0000
  H   H312      1.0  0.45653  0.13206  0.27414  1.0000
  C   C322      1.0  0.50825  0.26979  0.12893  1.0000
  H   H313      1.0  0.27425  0.16243  0.38786  1.0000
  C   C323      1.0  0.46440  0.09716  0.22232  1.0000
  C   C324      1.0  0.49330  0.07748  0.25444  1.0000
  C   C325      1.0  0.51157  0.17650  0.35970  1.0000
  H   H314      1.0  0.34059  0.46509  0.08790  1.0000
  C   C326      1.0  0.31750  0.05859  0.30987  1.0000
  H   H315      1.0  0.51803  0.48072  0.08281  1.0000
  H   H316      1.0  0.28507  0.48376  0.10709  1.0000
  C   C327      1.0  0.32077  0.07872  0.26514  1.0000
  H   H317      1.0  0.37792  0.02105  0.25035  1.0000
  C   C328      1.0  0.27295  0.09863  0.35569  1.0000
  H   H318      1.0  0.30930  0.05858  0.33028  1.0000
  H   H319      1.0  0.27917  0.16827  0.32117  1.0000
  H   H320      1.0  0.30138  0.31888  0.13340  1.0000
  H   H321      1.0  0.29246  0.02737  0.44900  1.0000
  C   C329      1.0  0.32514  0.43087  0.04105  1.0000
  N   N27       1.0  0.51584  0.46349  0.14723  1.0000
  H   H322      1.0  0.49150  0.18291  0.35541  1.0000
  H   H323      1.0  0.50184  0.18994  0.07485  1.0000
  C   C330      1.0  0.50350  0.20614  0.08579  1.0000
  H   H324      1.0  0.50848  0.06242  0.26080  1.0000
  H   H325      1.0  0.34133  0.02207  0.31667  1.0000
  C   C331      1.0  0.48715  0.50340  0.15181  1.0000
  H   H326      1.0  0.46746  0.51384  0.15280  1.0000
  H   H327      1.0  0.51048  0.08149  0.11686  1.0000
  C   C332      1.0  0.50900  0.51706  0.15068  1.0000
  H   H328      1.0  0.50798  0.28875  0.11637  1.0000
  C   C333      1.0  0.51773  0.06580  0.06869  1.0000
  H   H329      1.0  0.27896  0.07193  0.46294  1.0000
  H   H330      1.0  0.45384  0.02347  0.39896  1.0000
  C   C334      1.0  0.40100  0.01877  0.02818  1.0000
  H   H331      1.0  0.35913  0.12812  0.63167  1.0000
  Fe  Fe61      1.0  0.48312  0.14953  0.60797  1.0000
  S   S119      1.0  0.48535  0.12183  0.64435  1.0000
  H   H332      1.0  0.50105  0.35589  0.98058  1.0000
  Fe  Fe62      1.0  0.42297  0.14484  0.60741  1.0000
  S   S120      1.0  0.42201  0.11694  0.64420  1.0000
  S   S121      1.0  0.38649  0.15657  0.58527  1.0000
  Fe  Fe63      1.0  0.44688  0.14358  0.65838  1.0000
  S   S122      1.0  0.44282  0.15284  0.69994  1.0000
  Fe  Fe64      1.0  0.46070  0.09847  0.62585  1.0000
  S   S123      1.0  0.47125  0.05527  0.62663  1.0000
  S   S124      1.0  0.44559  0.17329  0.62307  1.0000
  S   S125      1.0  0.46067  0.12444  0.58801  1.0000
  Fe  Fe65      1.0  0.41573  0.02445  0.86137  1.0000
  C   C335      1.0  0.39471  0.02478  0.61677  1.0000
  C   C336      1.0  0.37098  0.36382  0.80454  1.0000
  Fe  Fe66      1.0  0.41521  0.08527  0.85808  1.0000
  S   S126      1.0  0.43691  0.08700  0.81785  1.0000
  S   S127      1.0  0.40158  0.12332  0.87674  1.0000
  Fe  Fe67      1.0  0.41086  0.05802  0.80981  1.0000
  S   S128      1.0  0.39141  0.06262  0.77272  1.0000
  Fe  Fe68      1.0  0.46176  0.05122  0.83330  1.0000
  H   H333      1.0  0.45557  0.21989  0.91459  1.0000
  S   S129      1.0  0.38667  0.05869  0.84903  1.0000
  S   S130      1.0  0.44194  0.05101  0.87459  1.0000
  C   C337      1.0  0.43607  0.36946  0.98650  1.0000
  C   C338      1.0  0.50461  0.09801  0.80728  1.0000
  Fe  Fe69      1.0  0.42318  0.27327  0.86455  1.0000
  S   S131      1.0  0.40119  0.26766  0.90465  1.0000
  S   S132      1.0  0.43961  0.23692  0.84385  1.0000
  Fe  Fe70      1.0  0.41668  0.33436  0.86507  1.0000
  S   S133      1.0  0.39388  0.33175  0.90504  1.0000
  S   S134      1.0  0.41990  0.37526  0.84333  1.0000
  Fe  Fe71      1.0  0.42449  0.29816  0.91442  1.0000
  S   S135      1.0  0.44489  0.29225  0.95096  1.0000
  Fe  Fe72      1.0  0.37338  0.30177  0.89040  1.0000
  S   S136      1.0  0.32947  0.30149  0.89579  1.0000
  S   S137      1.0  0.44871  0.30205  0.87520  1.0000
  S   S138      1.0  0.39390  0.30603  0.84951  1.0000
  H   H334      1.0  0.34733  0.35022  0.87147  1.0000
  C   C339      1.0  0.29156  0.08841  0.56537  1.0000
  N   N28       1.0  0.32654  0.36434  0.79461  1.0000
  C   C340      1.0  0.44466  0.32216  0.99120  1.0000
  C   C341      1.0  0.44222  0.32195  0.96450  1.0000
  C   C342      1.0  0.43771  0.34554  0.94865  1.0000
  C   C343      1.0  0.43453  0.36928  0.95965  1.0000
  H   H335      1.0  0.44412  0.51712  0.98602  1.0000
  C   C344      1.0  0.27412  0.35059  0.86035  1.0000
  H   H336      1.0  0.43689  0.34555  0.92785  1.0000
  H   H337      1.0  0.43071  0.38746  0.94736  1.0000
  C   C345      1.0  0.34953  0.35070  0.80178  1.0000
  C   C346      1.0  0.41317  0.15444  0.86747  1.0000
  C   C347      1.0  0.40050  0.17597  0.88007  1.0000
  C   C348      1.0  0.40840  0.20118  0.87310  1.0000
  C   C349      1.0  0.42930  0.20527  0.85349  1.0000
  C   C350      1.0  0.44211  0.18372  0.84092  1.0000
  C   C351      1.0  0.43407  0.15847  0.84778  1.0000
  H   H338      1.0  0.38428  0.17317  0.89527  1.0000
  H   H339      1.0  0.39817  0.21745  0.88288  1.0000
  H   H340      1.0  0.45838  0.18653  0.82578  1.0000
  H   H341      1.0  0.44414  0.14216  0.83789  1.0000
  C   C352      1.0  0.50496  0.20586  0.64198  1.0000
  C   C353      1.0  0.51666  0.07730  0.82317  1.0000
  C   C354      1.0  0.47147  0.15869  0.89637  1.0000
  N   N29       1.0  0.45182  0.47741  0.97762  1.0000
  C   C355      1.0  0.34546  0.40473  0.79233  1.0000
  C   C356      1.0  0.34505  0.13503  0.61778  1.0000
  H   H342      1.0  0.38165  0.06492  0.60400  1.0000
  C   C357      1.0  0.50239  0.35518  0.95952  1.0000
  H   H343      1.0  0.37763  0.10690  0.80641  1.0000
  C   C358      1.0  0.49715  0.23426  0.88181  1.0000
  C   C359      1.0  0.49183  0.19333  0.66444  1.0000
  H   H344      1.0  0.51893  0.23303  0.88153  1.0000
  N   N30       1.0  0.38052  0.14770  0.80666  1.0000
  H   H345      1.0  0.32736  0.34611  0.92885  1.0000
  H   H346      1.0  0.29892  0.10663  0.55698  1.0000
  H   H347      1.0  0.34064  0.16896  0.55771  1.0000
  H   H348      1.0  0.32370  0.38938  0.84883  1.0000
  C   C360      1.0  0.42939  0.12628  0.71849  1.0000
  C   C361      1.0  0.40420  0.12077  0.71503  1.0000
  C   C362      1.0  0.39290  0.10030  0.73093  1.0000
  C   C363      1.0  0.40695  0.08520  0.75000  1.0000
  C   C364      1.0  0.43282  0.08958  0.75213  1.0000
  C   C365      1.0  0.44388  0.11042  0.73673  1.0000
  H   H349      1.0  0.39312  0.13283  0.70065  1.0000
  H   H350      1.0  0.37299  0.09676  0.72903  1.0000
  H   H351      1.0  0.44429  0.07701  0.76575  1.0000
  H   H352      1.0  0.46364  0.11420  0.73894  1.0000
  H   H353      1.0  0.46304  0.43700  0.97333  1.0000
  C   C366      1.0  0.44002  0.45029  0.87333  1.0000
  C   C367      1.0  0.31354  0.37237  0.85554  1.0000
  H   H354      1.0  0.48575  0.42858  0.01335  1.0000
  C   C368      1.0  0.45329  0.49766  0.99193  1.0000
  H   H355      1.0  0.44452  0.38385  0.88986  1.0000
  H   H356      1.0  0.41015  0.42987  0.82529  1.0000
  C   C369      1.0  0.30428  0.35014  0.79199  1.0000
  H   H357      1.0  0.40167  0.13194  0.77289  1.0000
  C   C370      1.0  0.32696  0.35017  0.86829  1.0000
  N   N31       1.0  0.30574  0.07104  0.58185  1.0000
  H   H358      1.0  0.46448  0.13955  0.89942  1.0000
  C   C371      1.0  0.44631  0.42566  0.88723  1.0000
  C   C372      1.0  0.44280  0.04301  0.62072  1.0000
  C   C373      1.0  0.42195  0.06020  0.61165  1.0000
  H   H359      1.0  0.33255  0.07434  0.60896  1.0000
  H   H360      1.0  0.29533  0.31649  0.94729  1.0000
  H   H361      1.0  0.33625  0.09620  0.57941  1.0000
  H   H362      1.0  0.42418  0.08063  0.60627  1.0000
  C   C374      1.0  0.28738  0.32856  0.87352  1.0000
  H   H363      1.0  0.31241  0.11906  0.64229  1.0000
  C   C375      1.0  0.35329  0.14922  0.59395  1.0000
  S   S139      1.0  0.45256  0.47836  0.88189  1.0000
  H   H364      1.0  0.49462  0.17633  0.70428  1.0000
  C   C376      1.0  0.51249  0.12307  0.80588  1.0000
  H   H365      1.0  0.42159  0.47027  0.84023  1.0000
  H   H366      1.0  0.38908  0.35309  0.81060  1.0000
  C   C377      1.0  0.42646  0.40385  0.85650  1.0000
  N   N32       1.0  0.50722  0.33038  0.92239  1.0000
  S   S140      1.0  0.43128  0.39925  0.00005  1.0000
  C   C378      1.0  0.27189  0.04231  0.58719  1.0000
  C   C379      1.0  0.32448  0.39099  0.78942  1.0000
  C   C380      1.0  0.47856  0.46862  0.02200  1.0000
  H   H367      1.0  0.49110  0.51580  0.87259  1.0000
  C   C381      1.0  0.44151  0.34594  0.00224  1.0000
  C   C382      1.0  0.39755  0.14860  0.78406  1.0000
  H   H368      1.0  0.36695  0.11957  0.83720  1.0000
  H   H369      1.0  0.50310  0.13906  0.79363  1.0000
  H   H370      1.0  0.31702  0.37847  0.91530  1.0000
  C   C383      1.0  0.46666  0.49358  0.01436  1.0000
  C   C384      1.0  0.39867  0.04068  0.68345  1.0000
  C   C385      1.0  0.50577  0.33121  0.94895  1.0000
  C   C386      1.0  0.42238  0.04924  0.68756  1.0000
  C   C387      1.0  0.43394  0.03972  0.71035  1.0000
  H   H371      1.0  0.48814  0.24718  0.89701  1.0000
  H   H372      1.0  0.29405  0.15973  0.56814  1.0000
  N   N33       1.0  0.28568  0.35545  0.92996  1.0000
  C   C388      1.0  0.31848  0.12995  0.62376  1.0000
  H   H373      1.0  0.43165  0.06332  0.67327  1.0000
  C   C389      1.0  0.49339  0.16326  0.87835  1.0000
  C   C390      1.0  0.45797  0.17913  0.90967  1.0000
  H   H374      1.0  0.50675  0.31326  0.96211  1.0000
  C   C391      1.0  0.33168  0.07620  0.58738  1.0000
  C   C392      1.0  0.37485  0.16898  0.82049  1.0000
  C   C393      1.0  0.38679  0.19177  0.81203  1.0000
  C   C394      1.0  0.41008  0.17092  0.77516  1.0000
  C   C395      1.0  0.40475  0.19259  0.78939  1.0000
  H   H375      1.0  0.36161  0.16814  0.83862  1.0000
  H   H376      1.0  0.38284  0.20837  0.82346  1.0000
  H   H377      1.0  0.42389  0.17126  0.75739  1.0000
  H   H378      1.0  0.41474  0.20987  0.78314  1.0000
  H   H379      1.0  0.27099  0.39283  0.91201  1.0000
  H   H380      1.0  0.49912  0.39509  0.90249  1.0000
  H   H381      1.0  0.30728  0.34174  0.77290  1.0000
  H   H382      1.0  0.38518  0.40129  0.80284  1.0000
  H   H383      1.0  0.30619  0.40186  0.78396  1.0000
  H   H384      1.0  0.45139  0.49137  0.93733  1.0000
  H   H385      1.0  0.34713  0.06187  0.57852  1.0000
  H   H386      1.0  0.41978  0.49540  0.95703  1.0000
  C   C396      1.0  0.50156  0.18828  0.87393  1.0000
  C   C397      1.0  0.30803  0.15281  0.58211  1.0000
  C   C398      1.0  0.28011  0.33079  0.93968  1.0000
  H   H387      1.0  0.35116  0.32961  0.80605  1.0000
  H   H388      1.0  0.34677  0.12742  0.81034  1.0000
  H   H389      1.0  0.49142  0.24340  0.86243  1.0000
  C   C399      1.0  0.29631  0.04818  0.59264  1.0000
  N   N34       1.0  0.38703  0.02279  0.70139  1.0000
  H   H390      1.0  0.34342  0.42590  0.78913  1.0000
  C   C400      1.0  0.51009  0.30506  0.91184  1.0000
  H   H391      1.0  0.48950  0.09463  0.79574  1.0000
  H   H392      1.0  0.44308  0.34603  0.02292  1.0000
  C   C401      1.0  0.36728  0.12428  0.81555  1.0000
  H   H393      1.0  0.50370  0.14767  0.86747  1.0000
  C   C402      1.0  0.36881  0.39099  0.80004  1.0000
  C   C403      1.0  0.43929  0.40261  0.87911  1.0000
  S   S141      1.0  0.50578  0.04636  0.82634  1.0000
  C   C404      1.0  0.41988  0.42854  0.84286  1.0000
  H   H394      1.0  0.43307  0.46388  0.94777  1.0000
  S   S142      1.0  0.27137  0.39998  0.83385  1.0000
  H   H395      1.0  0.45203  0.04666  0.71397  1.0000
  C   C405      1.0  0.33455  0.15799  0.57620  1.0000
  C   C406      1.0  0.46664  0.20394  0.90473  1.0000
  C   C407      1.0  0.29976  0.13880  0.60601  1.0000
  H   H396      1.0  0.45683  0.42437  0.90429  1.0000
  C   C408      1.0  0.42629  0.45160  0.85137  1.0000
  C   C409      1.0  0.50093  0.37727  0.91577  1.0000
  C   C410      1.0  0.43839  0.48225  0.95377  1.0000
  C   C411      1.0  0.49998  0.37832  0.94278  1.0000
  H   H397      1.0  0.50933  0.47331  0.85930  1.0000
  H   H398      1.0  0.47188  0.18873  0.66442  1.0000
  C   C412      1.0  0.28714  0.37258  0.85141  1.0000
  H   H399      1.0  0.31272  0.37019  0.95061  1.0000
  C   C413      1.0  0.31377  0.32836  0.87758  1.0000
  C   C414      1.0  0.42166  0.02191  0.72880  1.0000
  C   C415      1.0  0.50457  0.35299  0.90585  1.0000
  H   H400      1.0  0.44839  0.30392  0.00343  1.0000
  C   C416      1.0  0.31194  0.36301  0.93134  1.0000
  H   H401      1.0  0.44042  0.17596  0.92311  1.0000
  C   C417      1.0  0.46376  0.45299  0.98485  1.0000
  H   H402      1.0  0.49057  0.29774  0.91351  1.0000
  C   C418      1.0  0.39786  0.05117  0.60993  1.0000
  H   H403      1.0  0.49725  0.39700  0.95080  1.0000
  N   N35       1.0  0.48841  0.20814  0.88728  1.0000
  H   H404      1.0  0.30213  0.33423  0.80835  1.0000
  C   C419      1.0  0.47684  0.44813  0.00739  1.0000
  H   H405      1.0  0.38964  0.04850  0.66585  1.0000
  H   H406      1.0  0.27713  0.31168  0.88065  1.0000
  H   H407      1.0  0.49506  0.21046  0.62433  1.0000
  C   C420      1.0  0.50462  0.18650  0.68695  1.0000
  H   H408      1.0  0.34532  0.02832  0.70519  1.0000
  S   S143      1.0  0.43790  0.02228  0.82136  1.0000
  H   H409      1.0  0.28532  0.36314  0.79319  1.0000
  H   H410      1.0  0.51861  0.30663  0.89088  1.0000
  H   H411      1.0  0.41419  0.05721  0.02006  1.0000
  H   H412      1.0  0.50566  0.35236  0.88479  1.0000
  H   H413      1.0  0.30778  0.03433  0.60550  1.0000
  H   H414      1.0  0.51835  0.19179  0.85954  1.0000
  H   H415      1.0  0.33391  0.42224  0.02340  1.0000
  Fe  Fe73      1.0  0.41912  0.91772  0.11451  1.0000
  S   S144      1.0  0.45373  0.91642  0.13674  1.0000
  S   S145      1.0  0.39877  0.95896  0.10499  1.0000
  Fe  Fe74      1.0  0.42384  0.85649  0.11761  1.0000
  S   S146      1.0  0.45845  0.85215  0.14082  1.0000
  S   S147      1.0  0.40959  0.82095  0.10318  1.0000
  Fe  Fe75      1.0  0.43601  0.88425  0.16312  1.0000
  S   S148      1.0  0.43511  0.88539  0.20690  1.0000
  Fe  Fe76      1.0  0.47207  0.88493  0.11204  1.0000
  C   C421      1.0  0.36470  0.01535  0.26831  1.0000
  S   S149      1.0  0.39994  0.88654  0.14217  1.0000
  S   S150      1.0  0.43883  0.88818  0.08744  1.0000
  Fe  Fe77      1.0  0.32471  0.94634  0.29761  1.0000
  S   S151      1.0  0.32871  0.90647  0.31960  1.0000
  S   S152      1.0  0.33195  0.95245  0.25364  1.0000
  Fe  Fe78      1.0  0.30934  0.97217  0.34744  1.0000
  S   S153      1.0  0.31256  0.93432  0.37336  1.0000
  C   C422      1.0  0.49153  0.01209  0.11579  1.0000
  Fe  Fe79      1.0  0.35004  0.92524  0.34659  1.0000
  S   S154      1.0  0.38964  0.90650  0.35872  1.0000
  Fe  Fe80      1.0  0.29067  0.92025  0.34347  1.0000
  C   C423      1.0  0.33174  0.72129  0.13196  1.0000
  S   S155      1.0  0.34809  0.96426  0.32295  1.0000
  H   H416      1.0  0.50631  0.53813  0.15095  1.0000
  Fe  Fe81      1.0  0.43414  0.66367  0.10564  1.0000
  S   S156      1.0  0.39292  0.66638  0.09498  1.0000
  S   S157      1.0  0.45009  0.69843  0.11981  1.0000
  Fe  Fe82      1.0  0.44453  0.60362  0.09820  1.0000
  S   S158      1.0  0.40388  0.60302  0.08740  1.0000
  S   S159      1.0  0.47581  0.56793  0.09791  1.0000
  Fe  Fe83      1.0  0.41078  0.64110  0.06326  1.0000
  Fe  Fe84      1.0  0.39053  0.62807  0.12006  1.0000
  S   S160      1.0  0.35734  0.61857  0.15112  1.0000
  S   S161      1.0  0.45239  0.64071  0.07209  1.0000
  S   S162      1.0  0.43083  0.62643  0.13296  1.0000
  C   C424      1.0  0.47424  0.53477  0.09253  1.0000
  H   H417      1.0  0.35371  0.99940  0.26433  1.0000
  H   H418      1.0  0.37168  0.96512  0.05370  1.0000
  H   H419      1.0  0.48613  0.99264  0.11521  1.0000
  H   H420      1.0  0.38773  0.67940  0.19452  1.0000
  C   C425      1.0  0.32538  0.62846  0.14236  1.0000
  H   H421      1.0  0.30666  0.60941  0.17798  1.0000
  H   H422      1.0  0.49245  0.83308  0.09327  1.0000
  C   C426      1.0  0.43987  0.01005  0.32269  1.0000
  C   C427      1.0  0.32136  0.64441  0.11903  1.0000
  C   C428      1.0  0.49709  0.88685  0.28876  1.0000
  H   H423      1.0  0.42688  0.85843  0.29745  1.0000
  H   H424      1.0  0.33804  0.64963  0.10536  1.0000
  C   C429      1.0  0.42842  0.87165  0.31248  1.0000
  H   H425      1.0  0.42085  0.59643  0.03576  1.0000
  N   N36       1.0  0.45976  0.00690  0.36284  1.0000
  C   C430      1.0  0.44943  0.93047  0.38955  1.0000
  H   H426      1.0  0.46910  0.95003  0.32567  1.0000
  N   N37       1.0  0.45574  0.87684  0.31257  1.0000
  C   C431      1.0  0.42112  0.78698  0.10833  1.0000
  C   C432      1.0  0.41210  0.76943  0.09359  1.0000
  C   C433      1.0  0.42078  0.74240  0.09675  1.0000
  C   C434      1.0  0.43858  0.73244  0.11486  1.0000
  C   C435      1.0  0.44749  0.74994  0.12974  1.0000
  C   C436      1.0  0.43891  0.77701  0.12647  1.0000
  H   H427      1.0  0.39838  0.77686  0.07945  1.0000
  H   H428      1.0  0.41372  0.72930  0.08509  1.0000
  H   H429      1.0  0.46118  0.74253  0.14390  1.0000
  H   H430      1.0  0.44597  0.79014  0.13809  1.0000
  C   C437      1.0  0.40702  0.90496  0.21977  1.0000
  C   C438      1.0  0.40071  0.90446  0.24704  1.0000
  C   C439      1.0  0.37791  0.91927  0.25761  1.0000
  C   C440      1.0  0.36126  0.93463  0.24088  1.0000
  C   C441      1.0  0.36790  0.93562  0.21363  1.0000
  C   C442      1.0  0.39076  0.92090  0.20310  1.0000
  H   H431      1.0  0.41327  0.89229  0.25992  1.0000
  H   H432      1.0  0.37317  0.91864  0.27866  1.0000
  H   H433      1.0  0.35530  0.94765  0.20057  1.0000
  H   H434      1.0  0.39575  0.92198  0.18206  1.0000
  C   C443      1.0  0.41607  0.92432  0.36201  1.0000
  C   C444      1.0  0.43175  0.93511  0.33999  1.0000
  H   H435      1.0  0.28622  0.88475  0.29598  1.0000
  H   H436      1.0  0.42534  0.93619  0.32067  1.0000
  C   C445      1.0  0.50087  0.91166  0.17989  1.0000
  C   C446      1.0  0.41637  0.98684  0.10147  1.0000
  C   C447      1.0  0.29566  0.65412  0.11362  1.0000
  H   H437      1.0  0.50948  0.89001  0.27031  1.0000
  H   H438      1.0  0.46340  0.88018  0.27072  1.0000
  H   H439      1.0  0.51649  0.52796  0.08469  1.0000
  H   H440      1.0  0.35788  0.99961  0.07914  1.0000
  H   H441      1.0  0.49490  0.82633  0.05961  1.0000
  H   H442      1.0  0.47232  0.77341  0.07381  1.0000
  H   H443      1.0  0.50618  0.96894  0.22076  1.0000
  C   C448      1.0  0.47117  0.88111  0.28919  1.0000
  H   H444      1.0  0.45613  0.92833  0.40885  1.0000
  H   H445      1.0  0.41354  0.91360  0.40375  1.0000
  C   C449      1.0  0.49095  0.88481  0.33605  1.0000
  H   H446      1.0  0.30153  0.90627  0.27039  1.0000
  C   C450      1.0  0.40705  0.00789  0.11628  1.0000
  H   H447      1.0  0.33872  0.66577  0.17366  1.0000
  C   C451      1.0  0.50350  0.74619  0.08841  1.0000
  C   C452      1.0  0.43807  0.00644  0.35014  1.0000
  H   H448      1.0  0.28348  0.88155  0.26186  1.0000
  C   C453      1.0  0.36776  0.00637  0.39273  1.0000
  C   C454      1.0  0.35705  0.72857  0.13108  1.0000
  H   H449      1.0  0.34575  0.97937  0.37853  1.0000
  H   H450      1.0  0.38577  0.65262  0.17559  1.0000
  C   C455      1.0  0.34404  0.68335  0.16163  1.0000
  H   H451      1.0  0.40626  0.96507  0.04432  1.0000
  H   H452      1.0  0.51846  0.93667  0.25767  1.0000
  C   C456      1.0  0.46581  0.93985  0.36763  1.0000
  C   C457      1.0  0.48816  0.81904  0.08016  1.0000
  H   H453      1.0  0.48217  0.93272  0.08496  1.0000
  H   H454      1.0  0.31732  0.73314  0.12064  1.0000
  H   H455      1.0  0.46638  0.81899  0.08244  1.0000
  C   C458      1.0  0.51130  0.89531  0.20044  1.0000
  H   H456      1.0  0.49944  0.89243  0.21922  1.0000
  H   H457      1.0  0.29266  0.66680  0.09575  1.0000
  H   H458      1.0  0.45266  0.87645  0.35430  1.0000
  H   H459      1.0  0.42037  0.86224  0.33185  1.0000
  N   N38       1.0  0.36910  0.69008  0.15981  1.0000
  C   C459      1.0  0.37551  0.71273  0.14541  1.0000
  C   C460      1.0  0.38887  0.67360  0.17437  1.0000
  H   H460      1.0  0.39506  0.71851  0.14482  1.0000
  S   S163      1.0  0.28543  0.95892  0.31922  1.0000
  H   H461      1.0  0.49818  0.88710  0.35446  1.0000
  H   H462      1.0  0.42259  0.00981  0.31272  1.0000
  H   H463      1.0  0.44321  0.97465  0.06864  1.0000
  C   C461      1.0  0.46524  0.87878  0.33581  1.0000
  C   C462      1.0  0.51602  0.91499  0.15558  1.0000
  C   C463      1.0  0.34556  0.99906  0.38347  1.0000
  H   H464      1.0  0.40911  0.67531  0.16428  1.0000
  H   H465      1.0  0.30545  0.69273  0.14840  1.0000
  H   H466      1.0  0.49456  0.72909  0.08530  1.0000
  H   H467      1.0  0.41577  0.89033  0.30828  1.0000
  C   C464      1.0  0.45736  0.00393  0.39163  1.0000
  H   H468      1.0  0.48099  0.92151  0.18283  1.0000
  C   C465      1.0  0.38666  0.97534  0.04026  1.0000
  H   H469      1.0  0.27728  0.94566  0.25568  1.0000
  H   H470      1.0  0.50058  0.01197  0.35895  1.0000
  H   H471      1.0  0.36246  0.74627  0.11928  1.0000
  S   S164      1.0  0.51338  0.88230  0.09226  1.0000
  C   C466      1.0  0.42507  0.92237  0.38672  1.0000
  C   C467      1.0  0.50181  0.93424  0.07512  1.0000
  C   C468      1.0  0.46392  0.01468  0.30826  1.0000
  S   S165      1.0  0.49738  0.94714  0.37299  1.0000
  C   C469      1.0  0.45079  0.52281  0.09565  1.0000
  C   C470      1.0  0.30362  0.62172  0.15989  1.0000
  H   H472      1.0  0.43209  0.53446  0.09989  1.0000
  C   C471      1.0  0.45671  0.94265  0.34276  1.0000
  H   H473      1.0  0.49488  0.97586  0.06524  1.0000
  C   C472      1.0  0.43607  0.99047  0.08049  1.0000
  N   N39       1.0  0.50154  0.79289  0.08699  1.0000
  H   H474      1.0  0.38500  0.99233  0.39468  1.0000
  C   C473      1.0  0.36939  0.01245  0.06540  1.0000
  C   C474      1.0  0.32506  0.69867  0.14754  1.0000
  C   C475      1.0  0.49094  0.77131  0.08208  1.0000
  C   C476      1.0  0.49822  0.51926  0.08716  1.0000
  C   C477      1.0  0.50695  0.88876  0.31235  1.0000
  H   H475      1.0  0.44069  0.99271  0.40007  1.0000
  C   C478      1.0  0.28387  0.89566  0.27632  1.0000
  C   C479      1.0  0.50893  0.95867  0.06374  1.0000
  C   C480      1.0  0.48587  0.01546  0.32139  1.0000
  H   H476      1.0  0.47548  0.99302  0.39892  1.0000
  N   N40       1.0  0.38532  0.00293  0.04457  1.0000
  S   S166      1.0  0.29742  0.01000  0.36460  1.0000
  H   H477      1.0  0.41920  0.00344  0.36121  1.0000
  H   H478      1.0  0.37766  0.00787  0.28387  1.0000
  C   C481      1.0  0.27790  0.63099  0.15422  1.0000
  H   H479      1.0  0.50928  0.61334  0.09742  1.0000
  H   H480      1.0  0.39149  0.00551  0.13226  1.0000
  C   C482      1.0  0.48341  0.01152  0.34886  1.0000
  C   C483      1.0  0.27390  0.64746  0.13122  1.0000
  H   H481      1.0  0.50818  0.92744  0.13926  1.0000
  H   H482      1.0  0.48134  0.01201  0.15755  1.0000
  C   C484      1.0  0.44510  0.01516  0.07343  1.0000
  H   H483      1.0  0.50282  0.01814  0.07426  1.0000
  C   C485      1.0  0.32364  0.01748  0.37986  1.0000
  H   H484      1.0  0.45920  0.01800  0.05622  1.0000
  H   H485      1.0  0.46540  0.01800  0.28698  1.0000
  Fe  Fe85      1.0  0.33731  0.92418  0.63707  1.0000
  S   S167      1.0  0.32698  0.95932  0.65935  1.0000
  S   S168      1.0  0.30617  0.90608  0.61932  1.0000
  Fe  Fe86      1.0  0.39718  0.92091  0.64448  1.0000
  S   S169      1.0  0.39009  0.95567  0.66707  1.0000
  S   S170      1.0  0.43844  0.89838  0.64086  1.0000
  Fe  Fe87      1.0  0.35456  0.93813  0.68726  1.0000
  S   S171      1.0  0.35002  0.93757  0.73109  1.0000
  Fe  Fe88      1.0  0.36364  0.97295  0.63652  1.0000
  S   S172      1.0  0.36283  0.90178  0.66679  1.0000
  S   S173      1.0  0.37279  0.93927  0.61220  1.0000
  Fe  Fe89      1.0  0.40192  0.81303  0.81228  1.0000
  S   S174      1.0  0.38504  0.80542  0.85428  1.0000
  S   S175      1.0  0.37547  0.82077  0.77992  1.0000
  Fe  Fe90      1.0  0.45721  0.80837  0.82695  1.0000
  S   S176      1.0  0.44462  0.80050  0.87007  1.0000
  S   S177      1.0  0.36363  0.01420  0.61752  1.0000
  Fe  Fe91      1.0  0.41881  0.77319  0.85749  1.0000
  S   S178      1.0  0.41127  0.73341  0.88016  1.0000
  Fe  Fe92      1.0  0.41261  0.83337  0.86217  1.0000
  S   S179      1.0  0.39921  0.86573  0.88862  1.0000
  S   S180      1.0  0.43380  0.77915  0.81461  1.0000
  S   S181      1.0  0.42708  0.84267  0.81996  1.0000
  Fe  Fe93      1.0  0.38130  0.55798  0.87368  1.0000
  S   S182      1.0  0.42084  0.55231  0.84972  1.0000
  S   S183      1.0  0.34374  0.56314  0.85465  1.0000
  Fe  Fe94      1.0  0.40498  0.55237  0.92466  1.0000
  S   S184      1.0  0.44617  0.54710  0.90492  1.0000
  S   S185      1.0  0.39845  0.54752  0.96845  1.0000
  Fe  Fe95      1.0  0.43227  0.58026  0.87566  1.0000
  S   S186      1.0  0.45430  0.61539  0.85943  1.0000
  H   H486      1.0  0.44603  0.01012  0.57027  1.0000
  N   N41       1.0  0.28982  0.55092  0.90980  1.0000
  S   S187      1.0  0.39231  0.58738  0.89761  1.0000
  H   H487      1.0  0.48646  0.60541  0.93836  1.0000
  C   C486      1.0  0.47698  0.62536  0.93701  1.0000
  H   H488      1.0  0.36050  0.01424  0.67576  1.0000
  H   H489      1.0  0.31901  0.86130  0.85259  1.0000
  C   C487      1.0  0.41478  0.94165  0.86348  1.0000
  H   H490      1.0  0.43964  0.92779  0.57826  1.0000
  C   C488      1.0  0.41434  0.91420  0.86383  1.0000
  C   C489      1.0  0.31940  0.67878  0.84522  1.0000
  C   C490      1.0  0.47688  0.95856  0.87767  1.0000
  C   C491      1.0  0.33395  0.93292  0.80986  1.0000
  H   H491      1.0  0.36724  0.61337  0.83356  1.0000
  C   C492      1.0  0.40032  0.57639  0.98222  1.0000
  C   C493      1.0  0.31997  0.58886  0.86361  1.0000
  C   C494      1.0  0.29633  0.59296  0.85219  1.0000
  H   H492      1.0  0.29803  0.67976  0.84712  1.0000
  C   C495      1.0  0.39177  0.62351  0.98181  1.0000
  C   C496      1.0  0.39128  0.60074  0.96975  1.0000
  C   C497      1.0  0.47058  0.93862  0.63493  1.0000
  C   C498      1.0  0.45289  0.67638  0.93422  1.0000
  H   H493      1.0  0.38405  0.64227  0.97255  1.0000
  H   H494      1.0  0.38306  0.60201  0.95134  1.0000
  C   C499      1.0  0.45183  0.94375  0.57467  1.0000
  H   H495      1.0  0.45275  0.95207  0.63482  1.0000
  C   C500      1.0  0.34166  0.94758  0.82797  1.0000
  H   H496      1.0  0.41956  0.86210  0.68465  1.0000
  H   H497      1.0  0.49644  0.96891  0.62476  1.0000
  C   C501      1.0  0.42314  0.70091  0.87321  1.0000
  C   C502      1.0  0.41229  0.67996  0.88897  1.0000
  C   C503      1.0  0.42129  0.65380  0.88471  1.0000
  C   C504      1.0  0.44147  0.64815  0.86468  1.0000
  C   C505      1.0  0.45236  0.66910  0.84890  1.0000
  C   C506      1.0  0.44316  0.69531  0.85300  1.0000
  H   H498      1.0  0.39689  0.68397  0.90477  1.0000
  H   H499      1.0  0.41296  0.63807  0.89739  1.0000
  H   H500      1.0  0.46801  0.66505  0.83336  1.0000
  H   H501      1.0  0.45174  0.71117  0.84069  1.0000
  H   H502      1.0  0.49999  0.64491  0.87554  1.0000
  C   C507      1.0  0.48751  0.85706  0.83856  1.0000
  C   C508      1.0  0.49340  0.87980  0.84750  1.0000
  C   C509      1.0  0.49543  0.94813  0.62932  1.0000
  C   C510      1.0  0.27687  0.61308  0.85939  1.0000
  H   H503      1.0  0.48666  0.00757  0.86532  1.0000
  H   H504      1.0  0.46855  0.85043  0.84494  1.0000
  H   H505      1.0  0.47867  0.89075  0.86005  1.0000
  H   H506      1.0  0.41430  0.98678  0.62826  1.0000
  C   C511      1.0  0.50396  0.63446  0.89498  1.0000
  C   C512      1.0  0.32412  0.60515  0.88205  1.0000
  H   H507      1.0  0.46302  0.82107  0.77115  1.0000
  H   H508      1.0  0.27069  0.94545  0.64742  1.0000
  H   H509      1.0  0.42313  0.95285  0.84608  1.0000
  C   C513      1.0  0.39339  0.93956  0.90798  1.0000
  C   C514      1.0  0.35699  0.90522  0.74467  1.0000
  C   C515      1.0  0.37346  0.89956  0.76465  1.0000
  C   C516      1.0  0.37893  0.87376  0.77580  1.0000
  C   C517      1.0  0.36827  0.85343  0.76684  1.0000
  C   C518      1.0  0.35184  0.85914  0.74675  1.0000
  C   C519      1.0  0.34624  0.88499  0.73563  1.0000
  H   H510      1.0  0.38196  0.91514  0.77158  1.0000
  H   H511      1.0  0.39117  0.86986  0.79147  1.0000
  H   H512      1.0  0.34342  0.84354  0.73974  1.0000
  H   H513      1.0  0.33328  0.88930  0.72034  1.0000
  S   S188      1.0  0.38995  0.52350  0.90313  1.0000
  H   H514      1.0  0.31566  0.58704  0.96098  1.0000
  H   H515      1.0  0.35946  0.99452  0.70671  1.0000
  H   H516      1.0  0.47604  0.93813  0.88684  1.0000
  H   H517      1.0  0.34295  0.96835  0.82310  1.0000
  C   C520      1.0  0.49112  0.91171  0.57117  1.0000
  C   C521      1.0  0.40412  0.95443  0.88570  1.0000
  H   H518      1.0  0.49328  0.90588  0.55094  1.0000
  H   H519      1.0  0.49624  0.88211  0.71849  1.0000
  H   H520      1.0  0.38515  0.94902  0.92525  1.0000
  C   C522      1.0  0.47211  0.66803  0.91438  1.0000
  S   S189      1.0  0.40280  0.98867  0.88767  1.0000
  C   C523      1.0  0.33945  0.86579  0.84599  1.0000
  H   H521      1.0  0.34188  0.60203  0.89134  1.0000
  H   H522      1.0  0.42229  0.90447  0.84667  1.0000
  C   C524      1.0  0.49240  0.89456  0.63918  1.0000
  H   H523      1.0  0.35369  0.94656  0.86672  1.0000
  H   H524      1.0  0.32547  0.64044  0.83236  1.0000
  C   C525      1.0  0.33147  0.69951  0.85140  1.0000
  H   H525      1.0  0.35213  0.85778  0.86172  1.0000
  H   H526      1.0  0.34725  0.85548  0.82841  1.0000
  H   H527      1.0  0.35120  0.89912  0.87728  1.0000
  C   C526      1.0  0.28118  0.62942  0.87772  1.0000
  H   H528      1.0  0.38424  0.90173  0.92580  1.0000
  S   S190      1.0  0.49916  0.81351  0.81224  1.0000
  C   C527      1.0  0.40325  0.89960  0.88641  1.0000
  N   N42       1.0  0.43758  0.85862  0.71997  1.0000
  C   C528      1.0  0.45768  0.87367  0.71190  1.0000
  C   C529      1.0  0.43930  0.83996  0.74102  1.0000
  C   C530      1.0  0.48030  0.87020  0.72502  1.0000
  C   C531      1.0  0.46163  0.83594  0.75454  1.0000
  C   C532      1.0  0.48219  0.85124  0.74656  1.0000
  H   H529      1.0  0.41834  0.97342  0.57728  1.0000
  H   H530      1.0  0.45626  0.88844  0.69516  1.0000
  H   H531      1.0  0.42341  0.82800  0.74749  1.0000
  H   H532      1.0  0.40019  0.84820  0.71300  1.0000
  N   N43       1.0  0.47873  0.93874  0.57138  1.0000
  C   C533      1.0  0.50642  0.84256  0.82253  1.0000
  H   H533      1.0  0.49142  0.87369  0.64225  1.0000
  C   C534      1.0  0.41400  0.86304  0.70607  1.0000
  H   H534      1.0  0.29299  0.58053  0.83781  1.0000
  H   H535      1.0  0.48037  0.95801  0.85604  1.0000
  C   C535      1.0  0.37804  0.63085  0.82797  1.0000
  H   H536      1.0  0.45744  0.96973  0.88277  1.0000
  C   C536      1.0  0.34772  0.93536  0.85242  1.0000
  C   C537      1.0  0.44575  0.65874  0.95576  1.0000
  H   H537      1.0  0.43077  0.66492  0.97124  1.0000
  N   N44       1.0  0.33992  0.89408  0.83996  1.0000
  H   H538      1.0  0.30827  0.63815  0.90313  1.0000
  H   H539      1.0  0.47915  0.89810  0.58451  1.0000
  H   H540      1.0  0.32710  0.89474  0.80210  1.0000
  H   H541      1.0  0.27168  0.88143  0.67364  1.0000
  C   C538      1.0  0.33291  0.90606  0.81636  1.0000
  H   H542      1.0  0.31956  0.71678  0.85805  1.0000
  N   N45       1.0  0.36191  0.65464  0.83578  1.0000
  C   C539      1.0  0.33504  0.65648  0.83709  1.0000
  C   C540      1.0  0.37391  0.67532  0.84074  1.0000
  C   C541      1.0  0.51019  0.55048  0.86043  1.0000
  C   C542      1.0  0.35892  0.69794  0.84890  1.0000
  N   N46       1.0  0.48356  0.64269  0.91575  1.0000
  C   C543      1.0  0.46894  0.91169  0.63889  1.0000
  H   H543      1.0  0.29602  0.53132  0.87512  1.0000
  H   H544      1.0  0.39521  0.67431  0.83860  1.0000
  C   C544      1.0  0.34649  0.90847  0.85821  1.0000
  H   H545      1.0  0.36857  0.71404  0.85347  1.0000
  H   H546      1.0  0.39630  0.62706  0.83800  1.0000
  C   C545      1.0  0.50700  0.76186  0.88569  1.0000
  H   H547      1.0  0.40335  0.88262  0.70919  1.0000
  C   C546      1.0  0.31450  0.54329  0.91718  1.0000
  H   H548      1.0  0.48648  0.75926  0.89421  1.0000
  C   C547      1.0  0.39293  0.91260  0.90831  1.0000
  H   H549      1.0  0.32927  0.94214  0.79068  1.0000
  H   H550      1.0  0.32711  0.52766  0.90816  1.0000
  C   C548      1.0  0.45790  0.63307  0.95727  1.0000
  N   N47       1.0  0.49778  0.97090  0.88657  1.0000
  H   H551      1.0  0.49328  0.56373  0.86705  1.0000
  C   C549      1.0  0.30491  0.62557  0.88889  1.0000
  C   C550      1.0  0.32414  0.55610  0.93576  1.0000
  C   C551      1.0  0.43967  0.96947  0.57421  1.0000
  H   H552      1.0  0.29307  0.84802  0.64495  1.0000
  H   H553      1.0  0.38824  0.00030  0.73877  1.0000
  S   S191      1.0  0.40182  0.65039  0.02133  1.0000
  C   C552      1.0  0.41611  0.00731  0.62429  1.0000
  H   H554      1.0  0.34388  0.55032  0.94131  1.0000
  C   C553      1.0  0.30827  0.57670  0.94686  1.0000
  C   C554      1.0  0.48260  0.98478  0.56704  1.0000
  C   C555      1.0  0.49411  0.95884  0.56736  1.0000
  C   C556      1.0  0.28298  0.58408  0.93949  1.0000
  H   H555      1.0  0.44325  0.69629  0.93266  1.0000
  C   C557      1.0  0.36181  0.01460  0.69708  1.0000
  H   H556      1.0  0.47739  0.68180  0.89759  1.0000
  C   C558      1.0  0.27195  0.91757  0.61947  1.0000
  C   C559      1.0  0.40174  0.62195  0.00607  1.0000
  H   H557      1.0  0.49951  0.84830  0.75712  1.0000
  C   C560      1.0  0.41072  0.57490  0.00618  1.0000
  H   H558      1.0  0.38359  0.63280  0.80638  1.0000
  H   H559      1.0  0.45632  0.00307  0.63343  1.0000
  C   C561      1.0  0.27173  0.85181  0.64778  1.0000
  H   H560      1.0  0.45249  0.61927  0.97402  1.0000
  H   H561      1.0  0.41798  0.55615  0.01578  1.0000
  C   C562      1.0  0.49998  0.99666  0.87842  1.0000
  H   H562      1.0  0.49485  0.00063  0.56472  1.0000
  C   C563      1.0  0.45520  0.99007  0.57029  1.0000
  C   C564      1.0  0.41192  0.59770  0.01779  1.0000
  C   C565      1.0  0.50907  0.52343  0.86340  1.0000
  H   H563      1.0  0.51089  0.90946  0.57830  1.0000
  H   H564      1.0  0.50458  0.61326  0.89309  1.0000
  H   H565      1.0  0.51367  0.93628  0.90854  1.0000
  C   C566      1.0  0.51496  0.95689  0.90264  1.0000
  H   H566      1.0  0.38344  0.97346  0.01972  1.0000
  C   C567      1.0  0.44009  0.01645  0.62663  1.0000
  H   H567      1.0  0.50430  0.81259  0.86964  1.0000
  H   H568      1.0  0.50736  0.76718  0.86408  1.0000
  C   C568      1.0  0.51380  0.80748  0.88737  1.0000
  N   N48       1.0  0.51686  0.78206  0.89818  1.0000
  C   C569      1.0  0.27397  0.57076  0.92095  1.0000
  H   H569      1.0  0.27054  0.60032  0.94764  1.0000
  C   C570      1.0  0.27994  0.53711  0.89054  1.0000
  H   H570      1.0  0.51547  0.95486  0.56531  1.0000
  C   C571      1.0  0.39797  0.01371  0.72405  1.0000
  C   C572      1.0  0.51722  0.90409  0.63397  1.0000
  H   H571      1.0  0.51961  0.74292  0.88844  1.0000
  C   C573      1.0  0.51855  0.88769  0.84120  1.0000
  H   H572      1.0  0.41415  0.01104  0.01212  1.0000
  H   H573      1.0  0.42992  0.01523  0.74710  1.0000
  C   C574      1.0  0.51945  0.00925  0.88673  1.0000
  C   C575      1.0  0.51889  0.93092  0.62812  1.0000
  H   H574      1.0  0.27117  0.51958  0.90060  1.0000
  Fe  Fe96      1.0  0.43044  0.51959  0.88143  1.0000
  Fe  Fe97      1.0  0.60665  0.26252  0.10601  1.0000
  S   S192      1.0  0.60546  0.25690  0.14988  1.0000
  S   S193      1.0  0.61096  0.30268  0.08294  1.0000
  Fe  Fe98      1.0  0.60744  0.20252  0.10252  1.0000
  S   S194      1.0  0.60776  0.19340  0.14588  1.0000
  S   S195      1.0  0.60102  0.16984  0.07877  1.0000
  Fe  Fe99      1.0  0.57709  0.22775  0.14846  1.0000
  S   S196      1.0  0.54119  0.22123  0.17662  1.0000
  Fe  Fe100     1.0  0.63613  0.22298  0.14277  1.0000
  S   S197      1.0  0.67106  0.21371  0.16542  1.0000
  S   S198      1.0  0.57514  0.23615  0.10511  1.0000
  S   S199      1.0  0.63914  0.22963  0.09874  1.0000
  Fe  Fe101     1.0  0.68088  0.11097  0.32548  1.0000
  S   S200      1.0  0.68264  0.13076  0.28403  1.0000
  S   S201      1.0  0.71469  0.10182  0.35129  1.0000
  Fe  Fe102     1.0  0.62061  0.10730  0.32907  1.0000
  S   S202      1.0  0.61844  0.12696  0.28849  1.0000
  S   S203      1.0  0.58398  0.09362  0.35382  1.0000
  Fe  Fe103     1.0  0.65573  0.10180  0.27759  1.0000
  S   S204      1.0  0.65395  0.08252  0.24144  1.0000
  Fe  Fe104     1.0  0.64507  0.15397  0.29886  1.0000
  S   S205      1.0  0.63293  0.19616  0.28667  1.0000
  S   S206      1.0  0.65664  0.07989  0.31762  1.0000
  S   S207      1.0  0.64459  0.13647  0.34076  1.0000
  C   C576      1.0  0.63047  0.03538  0.37112  1.0000
  H   H575      1.0  0.58168  0.05343  0.15094  1.0000
  H   H576      1.0  0.57590  0.20671  0.32175  1.0000
  Fe  Fe105     1.0  0.60316  0.45359  0.10098  1.0000
  S   S208      1.0  0.62725  0.45318  0.06178  1.0000
  S   S209      1.0  0.58647  0.41683  0.12204  1.0000
  Fe  Fe106     1.0  0.65397  0.47568  0.07924  1.0000
  S   S210      1.0  0.69764  0.46364  0.07043  1.0000
  C   C577      1.0  0.62625  0.12750  0.10778  1.0000
  C   C578      1.0  0.61999  0.08187  0.10500  1.0000
  S   S211      1.0  0.63084  0.47460  0.11925  1.0000
  S   S212      1.0  0.57848  0.49148  0.08963  1.0000
  H   H577      1.0  0.53423  0.42488  0.15631  1.0000
  C   C579      1.0  0.53205  0.19042  0.17338  1.0000
  N   N49       1.0  0.65964  0.33139  0.12734  1.0000
  C   C580      1.0  0.52208  0.13236  0.31747  1.0000
  C   C581      1.0  0.62641  0.06525  0.24946  1.0000
  H   H578      1.0  0.58311  0.14984  0.37106  1.0000
  C   C582      1.0  0.58114  0.06041  0.24428  1.0000
  C   C583      1.0  0.71224  0.44080  0.09406  1.0000
  H   H579      1.0  0.58391  0.16186  0.23425  1.0000
  C   C584      1.0  0.69953  0.43572  0.11945  1.0000
  H   H580      1.0  0.56978  0.32468  0.04454  1.0000
  H   H581      1.0  0.68037  0.44578  0.12491  1.0000
  Fe  Fe107     1.0  0.60498  0.49241  0.05191  1.0000
  C   C585      1.0  0.54222  0.14811  0.38491  1.0000
  H   H582      1.0  0.64292  0.04034  0.28124  1.0000
  H   H583      1.0  0.54314  0.14282  0.13185  1.0000
  C   C586      1.0  0.53005  0.09287  0.35833  1.0000
  C   C587      1.0  0.55258  0.37372  0.05443  1.0000
  C   C588      1.0  0.60458  0.33394  0.09491  1.0000
  C   C589      1.0  0.58744  0.33853  0.11760  1.0000
  C   C590      1.0  0.58190  0.36400  0.12547  1.0000
  C   C591      1.0  0.59356  0.38517  0.11094  1.0000
  C   C592      1.0  0.61089  0.38048  0.08841  1.0000
  C   C593      1.0  0.61633  0.35507  0.08050  1.0000
  H   H584      1.0  0.57811  0.32255  0.12887  1.0000
  H   H585      1.0  0.56847  0.36731  0.14295  1.0000
  H   H586      1.0  0.62018  0.39641  0.07707  1.0000
  H   H587      1.0  0.62972  0.35178  0.06298  1.0000
  C   C594      1.0  0.60748  0.13618  0.09034  1.0000
  C   C595      1.0  0.59469  0.11753  0.08058  1.0000
  H   H588      1.0  0.58014  0.12402  0.06708  1.0000
  C   C596      1.0  0.76502  0.48925  0.10117  1.0000
  C   C597      1.0  0.66071  0.21006  0.19927  1.0000
  C   C598      1.0  0.63443  0.21727  0.20871  1.0000
  C   C599      1.0  0.62622  0.21414  0.23575  1.0000
  C   C600      1.0  0.64408  0.20287  0.25334  1.0000
  C   C601      1.0  0.67026  0.19521  0.24391  1.0000
  C   C602      1.0  0.67867  0.19922  0.21694  1.0000
  H   H589      1.0  0.62032  0.22519  0.19526  1.0000
  H   H590      1.0  0.60587  0.21972  0.24292  1.0000
  H   H591      1.0  0.68413  0.18653  0.25747  1.0000
  H   H592      1.0  0.69901  0.19355  0.20974  1.0000
  H   H593      1.0  0.70221  0.41443  0.15788  1.0000
  H   H594      1.0  0.56446  0.13062  0.31127  1.0000
  H   H595      1.0  0.56168  0.06481  0.17962  1.0000
  H   H596      1.0  0.52906  0.20028  0.32680  1.0000
  H   H597      1.0  0.59085  0.07641  0.08030  1.0000
  H   H598      1.0  0.63211  0.15762  0.23519  1.0000
  H   H599      1.0  0.56379  0.06630  0.23422  1.0000
  H   H600      1.0  0.55687  0.18559  0.13694  1.0000
  C   C603      1.0  0.54787  0.12251  0.32277  1.0000
  H   H601      1.0  0.58442  0.17378  0.31320  1.0000
  S   S213      1.0  0.75339  0.38438  0.15550  1.0000
  N   N50       1.0  0.57574  0.36497  0.03674  1.0000
  C   C604      1.0  0.67524  0.34741  0.11104  1.0000
  H   H602      1.0  0.75668  0.10549  0.38226  1.0000
  C   C605      1.0  0.56307  0.15809  0.36830  1.0000
  H   H603      1.0  0.66673  0.30012  0.10299  1.0000
  C   C606      1.0  0.74807  0.10829  0.34210  1.0000
  H   H604      1.0  0.68552  0.38685  0.10092  1.0000
  H   H605      1.0  0.74642  0.11178  0.30035  1.0000
  H   H606      1.0  0.64786  0.09400  0.12755  1.0000
  H   H607      1.0  0.59591  0.12583  0.16220  1.0000
  S   S214      1.0  0.56526  0.01920  0.10730  1.0000
  H   H608      1.0  0.67479  0.14018  0.21962  1.0000
  C   C607      1.0  0.71197  0.41802  0.13816  1.0000
  H   H609      1.0  0.67726  0.15379  0.18560  1.0000
  H   H610      1.0  0.67917  0.11865  0.19461  1.0000
  H   H611      1.0  0.56550  0.14554  0.19777  1.0000
  S   S215      1.0  0.55199  0.02539  0.27495  1.0000
  C   C608      1.0  0.58168  0.33900  0.03356  1.0000
  H   H612      1.0  0.53298  0.07788  0.37451  1.0000
  C   C609      1.0  0.58061  0.04077  0.26543  1.0000
  H   H613      1.0  0.60445  0.08774  0.21995  1.0000
  H   H614      1.0  0.56276  0.46490  0.04777  1.0000
  C   C610      1.0  0.60371  0.13247  0.17853  1.0000
  C   C611      1.0  0.62424  0.15047  0.21926  1.0000
  C   C612      1.0  0.54293  0.17701  0.15185  1.0000
  H   H615      1.0  0.64419  0.12223  0.16389  1.0000
  H   H616      1.0  0.63084  0.07024  0.38981  1.0000
  C   C613      1.0  0.66945  0.13800  0.19983  1.0000
  C   C614      1.0  0.59693  0.15281  0.21887  1.0000
  H   H617      1.0  0.55372  0.03726  0.16485  1.0000
  N   N51       1.0  0.64085  0.13936  0.19980  1.0000
  C   C615      1.0  0.60414  0.07242  0.23609  1.0000
  C   C616      1.0  0.66199  0.30348  0.12404  1.0000
  C   C617      1.0  0.63262  0.10053  0.11483  1.0000
  C   C618      1.0  0.67025  0.05298  0.37727  1.0000
  H   H618      1.0  0.59849  0.18473  0.33962  1.0000
  C   C619      1.0  0.60068  0.09053  0.08808  1.0000
  N   N52       1.0  0.68516  0.03340  0.36476  1.0000
  H   H619      1.0  0.76926  0.40071  0.10086  1.0000
  C   C620      1.0  0.64009  0.36766  0.15076  1.0000
  C   C621      1.0  0.63095  0.13057  0.17952  1.0000
  C   C622      1.0  0.62582  0.04572  0.27070  1.0000
  H   H620      1.0  0.52756  0.43332  0.12262  1.0000
  Fe  Fe108     1.0  0.60891  0.51271  0.10335  1.0000
  H   H621      1.0  0.52918  0.05247  0.05491  1.0000
  C   C623      1.0  0.73741  0.40573  0.13172  1.0000
  H   H622      1.0  0.63029  0.32837  0.16032  1.0000
  C   C624      1.0  0.58024  0.18598  0.32984  1.0000
  C   C625      1.0  0.65547  0.38424  0.13387  1.0000
  N   N53       1.0  0.55823  0.17701  0.34807  1.0000
  C   C626      1.0  0.58664  0.14368  0.19839  1.0000
  C   C627      1.0  0.53735  0.47666  0.14654  1.0000
  H   H623      1.0  0.67746  0.29248  0.13557  1.0000
  C   C628      1.0  0.75877  0.11200  0.31579  1.0000
  C   C629      1.0  0.64271  0.05423  0.38070  1.0000
  C   C630      1.0  0.53488  0.15286  0.14876  1.0000
  C   C631      1.0  0.67334  0.37408  0.11400  1.0000
  S   S216      1.0  0.62977  0.04812  0.11383  1.0000
  C   C632      1.0  0.61290  0.03179  0.18576  1.0000
  H   H624      1.0  0.63659  0.14157  0.11502  1.0000
  C   C633      1.0  0.74992  0.41051  0.10621  1.0000
  C   C634      1.0  0.60304  0.03323  0.27846  1.0000
  H   H625      1.0  0.65333  0.40497  0.13605  1.0000
  H   H626      1.0  0.68904  0.33966  0.09545  1.0000
  H   H627      1.0  0.62588  0.37551  0.16601  1.0000
  C   C635      1.0  0.73730  0.42778  0.08740  1.0000
  H   H628      1.0  0.64305  0.29532  0.13070  1.0000
  C   C636      1.0  0.53290  0.18610  0.34350  1.0000
  C   C637      1.0  0.57007  0.04720  0.16982  1.0000
  H   H629      1.0  0.74698  0.43090  0.06763  1.0000
  H   H630      1.0  0.75424  0.47774  0.05486  1.0000
  H   H631      1.0  0.54696  0.35779  0.06971  1.0000
  H   H632      1.0  0.54010  0.42881  0.03736  1.0000
  C   C638      1.0  0.64256  0.34109  0.14731  1.0000
  H   H633      1.0  0.53570  0.38063  0.04291  1.0000
  C   C639      1.0  0.55204  0.10318  0.34368  1.0000
  C   C640      1.0  0.71382  0.03343  0.35950  1.0000
  N   N54       1.0  0.58654  0.02957  0.18713  1.0000
  H   H634      1.0  0.60911  0.03657  0.37296  1.0000
  S   S217      1.0  0.63433  0.51520  0.06478  1.0000
  H   H635      1.0  0.55707  0.46636  0.14405  1.0000
  H   H636      1.0  0.76051  0.47188  0.11509  1.0000
  H   H637      1.0  0.67960  0.06825  0.38389  1.0000
  H   H638      1.0  0.55676  0.38990  0.06506  1.0000
  H   H639      1.0  0.74627  0.49907  0.09427  1.0000
  H   H640      1.0  0.52681  0.26608  0.13835  1.0000
  H   H641      1.0  0.62083  0.16346  0.02623  1.0000
  H   H642      1.0  0.62191  0.04606  0.17145  1.0000
  H   H643      1.0  0.72171  0.04277  0.37471  1.0000
  C   C641      1.0  0.76465  0.10842  0.36184  1.0000
  H   H644      1.0  0.54618  0.13238  0.40025  1.0000
  H   H645      1.0  0.71879  0.04474  0.34017  1.0000
  H   H646      1.0  0.53097  0.08001  0.07227  1.0000
  C   C642      1.0  0.53429  0.50363  0.14823  1.0000
  H   H647      1.0  0.55142  0.51414  0.14700  1.0000
  C   C643      1.0  0.55924  0.46381  0.02775  1.0000
  H   H648      1.0  0.58605  0.40354  0.02507  1.0000
  H   H649      1.0  0.62067  0.11626  0.02372  1.0000
  Fe  Fe109     1.0  0.72648  0.15417  0.63144  1.0000
  S   S218      1.0  0.73425  0.11230  0.64788  1.0000
  H   H650      1.0  0.73933  0.14558  0.69983  1.0000
  Fe  Fe110     1.0  0.66546  0.15367  0.64055  1.0000
  S   S219      1.0  0.66989  0.11189  0.65719  1.0000
  S   S220      1.0  0.62232  0.17108  0.64639  1.0000
  Fe  Fe111     1.0  0.70118  0.12242  0.67892  1.0000
  S   S221      1.0  0.70165  0.10463  0.72075  1.0000
  Fe  Fe112     1.0  0.70224  0.10597  0.62449  1.0000
  S   S222      1.0  0.70420  0.07109  0.60216  1.0000
  S   S223      1.0  0.69529  0.16493  0.66461  1.0000
  S   S224      1.0  0.69594  0.14727  0.60570  1.0000
  Fe  Fe113     1.0  0.59235  0.18555  0.88685  1.0000
  S   S225      1.0  0.59499  0.19273  0.84309  1.0000
  S   S226      1.0  0.58325  0.21821  0.91399  1.0000
  Fe  Fe114     1.0  0.60505  0.12509  0.88542  1.0000
  S   S227      1.0  0.60947  0.12852  0.84128  1.0000
  S   S228      1.0  0.60881  0.08733  0.91362  1.0000
  Fe  Fe115     1.0  0.63082  0.16325  0.84285  1.0000
  S   S229      1.0  0.66381  0.17547  0.81285  1.0000
  Fe  Fe116     1.0  0.57352  0.15765  0.84525  1.0000
  S   S230      1.0  0.62993  0.15790  0.88688  1.0000
  S   S231      1.0  0.56730  0.15241  0.88926  1.0000
  Fe  Fe117     1.0  0.59172  0.43177  0.90261  1.0000
  S   S232      1.0  0.60035  0.42563  0.94437  1.0000
  S   S233      1.0  0.59857  0.47148  0.88003  1.0000
  Fe  Fe118     1.0  0.58085  0.37366  0.90406  1.0000
  S   S234      1.0  0.58850  0.36461  0.94620  1.0000
  S   S235      1.0  0.56973  0.34202  0.88146  1.0000
  Fe  Fe119     1.0  0.56513  0.40343  0.95149  1.0000
  S   S236      1.0  0.53661  0.41075  0.98712  1.0000
  Fe  Fe120     1.0  0.62284  0.38788  0.93437  1.0000
  S   S237      1.0  0.66196  0.37690  0.95017  1.0000
  S   S238      1.0  0.55476  0.41163  0.91015  1.0000
  S   S239      1.0  0.61690  0.39479  0.89172  1.0000
  C   C644      1.0  0.59045  0.50308  0.89099  1.0000
  H   H651      1.0  0.61474  0.48158  0.93983  1.0000
  H   H652      1.0  0.55925  0.10998  0.84818  1.0000
  H   H653      1.0  0.52365  0.29056  0.92276  1.0000
  C   C645      1.0  0.67255  0.44302  0.97968  1.0000
  C   C646      1.0  0.54393  0.44050  0.99568  1.0000
  C   C647      1.0  0.61977  0.34847  0.00328  1.0000
  H   H654      1.0  0.54843  0.45833  0.95569  1.0000
  C   C648      1.0  0.57971  0.09827  0.60292  1.0000
  C   C649      1.0  0.68687  0.39419  0.93248  1.0000
  C   C650      1.0  0.68118  0.41309  0.91165  1.0000
  C   C651      1.0  0.56818  0.48228  0.00763  1.0000
  H   H655      1.0  0.54042  0.18731  0.70430  1.0000
  H   H656      1.0  0.59904  0.20401  0.75921  1.0000
  C   C652      1.0  0.71239  0.38988  0.94006  1.0000
  H   H657      1.0  0.66151  0.41677  0.90584  1.0000
  H   H658      1.0  0.61215  0.13081  0.94194  1.0000
  C   C653      1.0  0.53023  0.19268  0.68694  1.0000
  C   C654      1.0  0.67806  0.45538  0.00061  1.0000
  C   C655      1.0  0.58130  0.25251  0.90401  1.0000
  C   C656      1.0  0.58251  0.26980  0.92278  1.0000
  C   C657      1.0  0.58006  0.29713  0.91597  1.0000
  C   C658      1.0  0.57578  0.30764  0.89035  1.0000
  C   C659      1.0  0.57432  0.29036  0.87165  1.0000
  C   C660      1.0  0.57732  0.26301  0.87832  1.0000
  H   H659      1.0  0.58543  0.26198  0.94273  1.0000
  H   H660      1.0  0.58096  0.31007  0.93068  1.0000
  H   H661      1.0  0.57088  0.29820  0.85181  1.0000
  H   H662      1.0  0.57622  0.25008  0.86364  1.0000
  C   C661      1.0  0.69003  0.12475  0.74578  1.0000
  C   C662      1.0  0.68035  0.11335  0.77055  1.0000
  C   C663      1.0  0.67142  0.12890  0.79106  1.0000
  C   C664      1.0  0.67298  0.15580  0.78707  1.0000
  C   C665      1.0  0.68262  0.16722  0.76229  1.0000
  C   C666      1.0  0.69075  0.15180  0.74154  1.0000
  H   H663      1.0  0.67984  0.09242  0.77396  1.0000
  H   H664      1.0  0.66433  0.11993  0.81024  1.0000
  H   H665      1.0  0.68387  0.18805  0.75920  1.0000
  H   H666      1.0  0.69800  0.16085  0.72253  1.0000
  H   H667      1.0  0.61646  0.19481  0.98607  1.0000
  H   H668      1.0  0.55394  0.03616  0.64078  1.0000
  C   C667      1.0  0.68326  0.04837  0.64925  1.0000
  C   C668      1.0  0.68588  0.04856  0.62194  1.0000
  H   H669      1.0  0.61356  0.51101  0.95482  1.0000
  C   C669      1.0  0.54444  0.07113  0.61508  1.0000
  H   H670      1.0  0.52442  0.06718  0.61397  1.0000
  H   H671      1.0  0.69483  0.06005  0.65828  1.0000
  C   C670      1.0  0.76309  0.40676  0.83113  1.0000
  H   H672      1.0  0.66264  0.03407  0.68606  1.0000
  H   H673      1.0  0.63926  0.50358  0.92860  1.0000
  C   C671      1.0  0.60729  0.05296  0.91368  1.0000
  H   H674      1.0  0.64127  0.51353  0.98800  1.0000
  H   H675      1.0  0.60926  0.04683  0.95542  1.0000
  N   N55       1.0  0.59553  0.08161  0.61844  1.0000
  H   H676      1.0  0.63569  0.08090  0.60257  1.0000
  C   C672      1.0  0.59714  0.16300  0.62924  1.0000
  H   H677      1.0  0.64479  0.14601  0.70137  1.0000
  C   C673      1.0  0.56282  0.48113  0.98191  1.0000
  H   H678      1.0  0.59233  0.13684  0.78835  1.0000
  H   H679      1.0  0.60897  0.30965  0.01517  1.0000
  C   C674      1.0  0.72647  0.42325  0.90590  1.0000
  C   C675      1.0  0.54344  0.22522  0.61846  1.0000
  H   H680      1.0  0.74955  0.42319  0.83752  1.0000
  H   H681      1.0  0.60502  0.05174  0.87236  1.0000
  C   C676      1.0  0.63305  0.14386  0.72033  1.0000
  N   N56       1.0  0.64442  0.48130  0.96527  1.0000
  H   H682      1.0  0.62524  0.38927  0.99530  1.0000
  C   C677      1.0  0.54272  0.20554  0.66423  1.0000
  N   N57       1.0  0.53047  0.50677  0.85511  1.0000
  S   S240      1.0  0.76074  0.17837  0.61721  1.0000
  C   C678      1.0  0.53232  0.12741  0.82049  1.0000
  C   C679      1.0  0.61411  0.13790  0.96047  1.0000
  C   C680      1.0  0.61892  0.15644  0.00765  1.0000
  C   C681      1.0  0.61652  0.17401  0.98514  1.0000
  H   H683      1.0  0.76450  0.42063  0.78994  1.0000
  H   H684      1.0  0.76219  0.09508  0.70390  1.0000
  C   C682      1.0  0.62724  0.49509  0.94620  1.0000
  C   C683      1.0  0.57378  0.17046  0.59028  1.0000
  C   C684      1.0  0.57470  0.15324  0.64350  1.0000
  C   C685      1.0  0.61626  0.09284  0.98086  1.0000
  C   C686      1.0  0.62719  0.11921  0.73170  1.0000
  C   C687      1.0  0.56696  0.50978  0.90679  1.0000
  H   H685      1.0  0.58697  0.11556  0.59192  1.0000
  S   S241      1.0  0.52146  0.16518  0.58943  1.0000
  H   H686      1.0  0.63024  0.18452  0.72553  1.0000
  C   C688      1.0  0.58665  0.05935  0.63166  1.0000
  H   H687      1.0  0.54112  0.10714  0.58943  1.0000
  H   H688      1.0  0.68129  0.42322  0.97708  1.0000
  C   C689      1.0  0.54437  0.10670  0.83636  1.0000
  H   H689      1.0  0.57459  0.14738  0.66436  1.0000
  S   S242      1.0  0.54183  0.15880  0.81909  1.0000
  C   C690      1.0  0.62248  0.08723  0.61995  1.0000
  H   H690      1.0  0.74645  0.02670  0.59559  1.0000
  C   C691      1.0  0.59677  0.17095  0.60238  1.0000
  H   H691      1.0  0.69101  0.44527  0.01458  1.0000
  H   H692      1.0  0.53443  0.14578  0.64282  1.0000
  H   H693      1.0  0.75128  0.18791  0.67677  1.0000
  H   H694      1.0  0.63218  0.08601  0.96572  1.0000
  C   C692      1.0  0.66689  0.48094  0.00349  1.0000
  H   H695      1.0  0.69644  0.44218  0.88226  1.0000
  C   C693      1.0  0.62461  0.16562  0.73405  1.0000
  H   H696      1.0  0.62312  0.10848  0.62066  1.0000
  H   H697      1.0  0.63042  0.07694  0.63796  1.0000
  C   C694      1.0  0.55102  0.46004  0.97588  1.0000
  H   H698      1.0  0.63463  0.10207  0.72168  1.0000
  H   H699      1.0  0.57059  0.50310  0.83816  1.0000
  H   H700      1.0  0.61240  0.17820  0.94374  1.0000
  H   H701      1.0  0.75175  0.40123  0.93296  1.0000
  C   C695      1.0  0.61239  0.11668  0.75629  1.0000
  H   H702      1.0  0.76596  0.38847  0.87035  1.0000
  C   C696      1.0  0.60389  0.33034  0.01700  1.0000
  C   C697      1.0  0.54645  0.44330  0.02184  1.0000
  C   C698      1.0  0.55384  0.09349  0.60126  1.0000
  C   C699      1.0  0.55093  0.16184  0.60478  1.0000
  H   H703      1.0  0.67383  0.03263  0.58928  1.0000
  H   H704      1.0  0.56899  0.49578  0.96641  1.0000
  H   H705      1.0  0.56282  0.20988  0.66419  1.0000
  C   C700      1.0  0.70095  0.42758  0.89838  1.0000
  C   C701      1.0  0.61883  0.12971  0.00606  1.0000
  C   C702      1.0  0.60233  0.18584  0.77267  1.0000
  S   S243      1.0  0.75094  0.44134  0.88869  1.0000
  C   C703      1.0  0.65009  0.49373  0.98547  1.0000
  S   S244      1.0  0.58807  0.50530  0.01396  1.0000
  H   H706      1.0  0.61814  0.18801  0.78481  1.0000
  H   H707      1.0  0.57342  0.17774  0.56974  1.0000
  C   C704      1.0  0.61417  0.16472  0.96138  1.0000
  H   H708      1.0  0.54300  0.46795  0.84522  1.0000
  C   C705      1.0  0.65576  0.45643  0.96197  1.0000
  H   H709      1.0  0.65183  0.44682  0.94557  1.0000
  H   H710      1.0  0.59934  0.04577  0.64347  1.0000
  C   C706      1.0  0.56098  0.05379  0.63023  1.0000
  H   H711      1.0  0.63702  0.34202  0.99029  1.0000
  C   C707      1.0  0.66526  0.03345  0.66499  1.0000
  H   H712      1.0  0.54610  0.06565  0.84981  1.0000
  H   H713      1.0  0.60791  0.09760  0.76551  1.0000
  H   H714      1.0  0.58373  0.18381  0.78587  1.0000
  C   C708      1.0  0.55179  0.15245  0.63132  1.0000
  H   H715      1.0  0.61368  0.17901  0.59123  1.0000
  H   H716      1.0  0.71683  0.37541  0.95630  1.0000
  C   C709      1.0  0.60806  0.03770  0.93795  1.0000
  C   C710      1.0  0.75982  0.14919  0.69665  1.0000
  C   C711      1.0  0.73218  0.40444  0.92681  1.0000
  N   N58       1.0  0.61648  0.12079  0.98261  1.0000
  C   C712      1.0  0.53680  0.08158  0.83742  1.0000
  H   H717      1.0  0.56518  0.22006  0.61722  1.0000
  C   C713      1.0  0.60381  0.13895  0.76924  1.0000
  H   H718      1.0  0.55443  0.49486  0.91482  1.0000
  N   N59       1.0  0.61000  0.16300  0.75809  1.0000
  C   C714      1.0  0.60563  0.04034  0.89130  1.0000
  C   C715      1.0  0.61321  0.37498  0.00615  1.0000
  C   C716      1.0  0.52955  0.47846  0.86008  1.0000
  H   H719      1.0  0.59711  0.08933  0.97485  1.0000
  H   H720      1.0  0.67116  0.49070  0.01968  1.0000
  H   H721      1.0  0.53877  0.24666  0.61873  1.0000
  C   C717      1.0  0.55331  0.51634  0.84389  1.0000
  H   H722      1.0  0.62432  0.51805  0.86807  1.0000
  N   N60       1.0  0.53018  0.21160  0.64202  1.0000
  H   H723      1.0  0.61926  0.08081  0.99979  1.0000
  C   C718      1.0  0.59094  0.38293  0.02297  1.0000
  H   H724      1.0  0.53578  0.47131  0.87978  1.0000
  C   C719      1.0  0.67197  0.03233  0.61045  1.0000
  H   H725      1.0  0.53713  0.21940  0.60033  1.0000
  H   H726      1.0  0.52115  0.02969  0.88006  1.0000
  H   H727      1.0  0.75626  0.10858  0.73494  1.0000
  C   C720      1.0  0.76643  0.17321  0.68388  1.0000
  Fe  Fe121     1.0  0.56026  0.98774  0.30046  1.0000
  S   S245      1.0  0.56073  0.98216  0.34424  1.0000
  C   C721      1.0  0.53471  0.96097  0.05204  1.0000
  Fe  Fe122     1.0  0.56591  0.93013  0.29595  1.0000
  S   S246      1.0  0.56714  0.91922  0.33918  1.0000
  S   S247      1.0  0.56617  0.90286  0.26529  1.0000
  Fe  Fe123     1.0  0.53367  0.95136  0.34353  1.0000
  H   H728      1.0  0.58717  0.86754  0.18785  1.0000
  Fe  Fe124     1.0  0.59444  0.95064  0.33608  1.0000
  S   S248      1.0  0.62954  0.94417  0.36036  1.0000
  H   H729      1.0  0.72556  0.67151  0.07406  1.0000
  S   S249      1.0  0.59573  0.95880  0.29212  1.0000
  H   H730      1.0  0.65091  0.59101  0.17095  1.0000
  S   S250      1.0  0.53370  0.98355  0.17072  1.0000
  H   H731      1.0  0.64702  0.60876  0.13901  1.0000
  Fe  Fe125     1.0  0.61137  0.95311  0.10704  1.0000
  S   S251      1.0  0.56775  0.95540  0.10772  1.0000
  S   S252      1.0  0.63593  0.91307  0.10721  1.0000
  Fe  Fe126     1.0  0.57194  0.99006  0.07785  1.0000
  C   C722      1.0  0.53945  0.59046  0.07427  1.0000
  Fe  Fe127     1.0  0.56537  0.98406  0.13689  1.0000
  N   N61       1.0  0.74500  0.70599  0.06959  1.0000
  S   S253      1.0  0.61611  0.98648  0.07487  1.0000
  S   S254      1.0  0.60884  0.97969  0.13918  1.0000
  Fe  Fe128     1.0  0.61390  0.76392  0.10076  1.0000
  S   S255      1.0  0.65767  0.75755  0.09087  1.0000
  S   S256      1.0  0.59083  0.80452  0.10189  1.0000
  Fe  Fe129     1.0  0.60878  0.70403  0.10564  1.0000
  S   S257      1.0  0.65213  0.69400  0.09665  1.0000
  S   S258      1.0  0.58049  0.67269  0.11473  1.0000
  Fe  Fe130     1.0  0.65609  0.72428  0.12288  1.0000
  S   S259      1.0  0.68678  0.71817  0.15093  1.0000
  Fe  Fe131     1.0  0.64936  0.72801  0.06565  1.0000
  C   C723      1.0  0.75637  0.67275  0.14056  1.0000
  S   S260      1.0  0.61264  0.73225  0.13482  1.0000
  S   S261      1.0  0.60540  0.73657  0.07269  1.0000
  C   C724      1.0  0.71075  0.69213  0.14367  1.0000
  C   C725      1.0  0.70361  0.67000  0.13459  1.0000
  H   H732      1.0  0.68328  0.66852  0.13277  1.0000
  H   H733      1.0  0.59951  0.64577  0.16399  1.0000
  H   H734      1.0  0.55527  0.58621  0.14682  1.0000
  C   C726      1.0  0.60917  0.59610  0.10320  1.0000
  C   C727      1.0  0.76686  0.66350  0.06159  1.0000
  C   C728      1.0  0.63895  0.60710  0.16009  1.0000
  H   H735      1.0  0.63345  0.68840  0.04999  1.0000
  C   C729      1.0  0.58568  0.63790  0.11557  1.0000
  H   H736      1.0  0.55046  0.63423  0.14236  1.0000
  H   H737      1.0  0.62136  0.63446  0.08874  1.0000
  C   C730      1.0  0.62326  0.88291  0.10593  1.0000
  C   C731      1.0  0.63970  0.85921  0.10935  1.0000
  C   C732      1.0  0.63023  0.83502  0.10812  1.0000
  C   C733      1.0  0.60407  0.83427  0.10364  1.0000
  C   C734      1.0  0.58770  0.85798  0.10028  1.0000
  C   C735      1.0  0.59732  0.88210  0.10104  1.0000
  H   H738      1.0  0.65990  0.85954  0.11299  1.0000
  H   H739      1.0  0.64313  0.81699  0.11080  1.0000
  H   H740      1.0  0.56749  0.85769  0.09667  1.0000
  H   H741      1.0  0.58472  0.90014  0.09763  1.0000
  H   H742      1.0  0.58109  0.98144  0.23722  1.0000
  C   C736      1.0  0.55282  0.93860  0.05040  1.0000
  H   H743      1.0  0.70827  0.88790  0.33958  1.0000
  H   H744      1.0  0.61550  0.65235  0.03417  1.0000
  H   H745      1.0  0.52784  0.65524  0.08172  1.0000
  H   H746      1.0  0.56812  0.65528  0.04958  1.0000
  H   H747      1.0  0.72318  0.84470  0.36289  1.0000
  H   H748      1.0  0.55989  0.89704  0.06054  1.0000
  C   C737      1.0  0.70877  0.93954  0.36366  1.0000
  C   C738      1.0  0.71879  0.94854  0.33818  1.0000
  C   C739      1.0  0.66389  0.94509  0.35078  1.0000
  C   C740      1.0  0.67399  0.95355  0.32513  1.0000
  H   H749      1.0  0.66074  0.95916  0.31019  1.0000
  H   H750      1.0  0.67954  0.62390  0.17803  1.0000
  C   C741      1.0  0.60691  0.62391  0.10133  1.0000
  H   H751      1.0  0.67388  0.93154  0.38984  1.0000
  C   C742      1.0  0.57177  0.61358  0.04754  1.0000
  C   C743      1.0  0.59060  0.58224  0.11983  1.0000
  C   C744      1.0  0.68148  0.93803  0.36992  1.0000
  C   C745      1.0  0.55614  0.92299  0.23781  1.0000
  C   C746      1.0  0.57300  0.92496  0.21436  1.0000
  C   C747      1.0  0.56582  0.94300  0.19324  1.0000
  N   N62       1.0  0.56148  0.59065  0.05643  1.0000
  H   H752      1.0  0.59223  0.88804  0.15771  1.0000
  H   H753      1.0  0.76890  0.73736  0.06279  1.0000
  H   H754      1.0  0.59190  0.91312  0.21279  1.0000
  H   H755      1.0  0.57900  0.94466  0.17526  1.0000
  C   C748      1.0  0.74544  0.89048  0.31538  1.0000
  C   C749      1.0  0.72088  0.72301  0.07680  1.0000
  H   H756      1.0  0.70567  0.71175  0.08848  1.0000
  C   C750      1.0  0.66188  0.63777  0.17897  1.0000
  S   S262      1.0  0.53063  0.95975  0.30068  1.0000
  C   C751      1.0  0.66295  0.66202  0.18785  1.0000
  H   H757      1.0  0.72195  0.93419  0.37869  1.0000
  H   H758      1.0  0.63367  0.85987  0.05262  1.0000
  C   C752      1.0  0.72803  0.87838  0.33467  1.0000
  C   C753      1.0  0.61738  0.65006  0.17084  1.0000
  C   C754      1.0  0.55972  0.63717  0.05635  1.0000
  H   H759      1.0  0.71267  0.73294  0.05877  1.0000
  H   H760      1.0  0.72403  0.01322  0.35919  1.0000
  H   H761      1.0  0.62560  0.58544  0.09237  1.0000
  C   C755      1.0  0.70126  0.95541  0.31895  1.0000
  N   N63       1.0  0.55196  0.88682  0.17279  1.0000
  N   N64       1.0  0.63921  0.63202  0.17074  1.0000
  C   C756      1.0  0.53182  0.93846  0.23984  1.0000
  C   C757      1.0  0.56704  0.62385  0.13144  1.0000
  C   C758      1.0  0.53711  0.63716  0.07437  1.0000
  H   H762      1.0  0.68508  0.99965  0.34503  1.0000
  H   H763      1.0  0.64192  0.69988  0.19349  1.0000
  C   C759      1.0  0.72267  0.64921  0.12874  1.0000
  C   C760      1.0  0.61785  0.67455  0.17937  1.0000
  H   H764      1.0  0.55272  0.90416  0.13313  1.0000
  H   H765      1.0  0.63651  0.00072  0.35090  1.0000
  H   H766      1.0  0.54532  0.87091  0.21288  1.0000
  H   H767      1.0  0.74273  0.71038  0.15419  1.0000
  H   H768      1.0  0.70876  0.96244  0.29916  1.0000
  C   C761      1.0  0.73712  0.69337  0.14696  1.0000
  C   C762      1.0  0.54561  0.91416  0.06135  1.0000
  C   C763      1.0  0.57906  0.87412  0.16888  1.0000
  C   C764      1.0  0.64087  0.68059  0.18776  1.0000
  H   H769      1.0  0.57973  0.85700  0.15768  1.0000
  H   H770      1.0  0.72478  0.73782  0.08929  1.0000
  C   C765      1.0  0.74402  0.67987  0.06879  1.0000
  C   C766      1.0  0.74910  0.65069  0.13139  1.0000
  C   C767      1.0  0.67329  0.01483  0.35536  1.0000
  H   H771      1.0  0.73880  0.90921  0.30520  1.0000
  S   S263      1.0  0.54629  0.99171  0.04568  1.0000
  C   C768      1.0  0.73641  0.85419  0.34772  1.0000
  C   C769      1.0  0.76186  0.84227  0.34108  1.0000
  H   H772      1.0  0.76621  0.64264  0.06193  1.0000
  C   C770      1.0  0.53827  0.76541  0.10365  1.0000
  H   H773      1.0  0.76861  0.82336  0.35091  1.0000
  H   H774      1.0  0.61861  0.60148  0.16162  1.0000
  S   S264      1.0  0.75286  0.95186  0.32944  1.0000
  C   C771      1.0  0.54192  0.95916  0.19573  1.0000
  C   C772      1.0  0.61721  0.99745  0.22144  1.0000
  C   C773      1.0  0.52680  0.61368  0.08333  1.0000
  C   C774      1.0  0.59034  0.99535  0.22267  1.0000
  S   S265      1.0  0.59317  0.54746  0.12648  1.0000
  H   H775      1.0  0.57281  0.94041  0.04184  1.0000
  C   C775      1.0  0.56970  0.59647  0.13386  1.0000
  H   H776      1.0  0.60062  0.68893  0.17889  1.0000
  H   H777      1.0  0.62906  0.98515  0.23510  1.0000
  H   H778      1.0  0.62848  0.90666  0.05217  1.0000
  H   H779      1.0  0.71701  0.63209  0.12178  1.0000
  C   C776      1.0  0.54145  0.90196  0.15225  1.0000
  H   H780      1.0  0.53159  0.57224  0.08173  1.0000
  H   H781      1.0  0.68119  0.66692  0.19357  1.0000
  H   H782      1.0  0.55686  0.76343  0.11194  1.0000
  H   H783      1.0  0.53729  0.72389  0.10436  1.0000
  C   C777      1.0  0.64583  0.01542  0.35852  1.0000
  Fe  Fe132     1.0  0.60903  0.01346  0.10716  1.0000
  H   H784      1.0  0.60066  0.85805  0.04517  1.0000
  H   H785      1.0  0.52691  0.89353  0.31222  1.0000
  C   C778      1.0  0.52476  0.95659  0.21887  1.0000
  C   C779      1.0  0.52044  0.91212  0.07464  1.0000
  C   C780      1.0  0.52513  0.79024  0.09720  1.0000
  C   C781      1.0  0.62861  0.01584  0.20294  1.0000
  C   C782      1.0  0.53710  0.88304  0.19659  1.0000
  H   H786      1.0  0.58950  0.61374  0.03370  1.0000
  H   H787      1.0  0.58677  0.55586  0.06375  1.0000
  H   H788      1.0  0.55411  0.01084  0.20744  1.0000
  C   C783      1.0  0.57514  0.01198  0.20560  1.0000
  C   C784      1.0  0.57489  0.56585  0.04816  1.0000
  H   H789      1.0  0.56040  0.55283  0.04461  1.0000
  H   H790      1.0  0.58809  0.56881  0.02951  1.0000
  C   C785      1.0  0.76820  0.71660  0.06252  1.0000
  H   H791      1.0  0.53391  0.80739  0.10049  1.0000
  H   H792      1.0  0.62707  0.94983  0.02595  1.0000
  C   C786      1.0  0.63974  0.68364  0.03030  1.0000
  C   C787      1.0  0.62483  0.90819  0.03173  1.0000
  C   C788      1.0  0.52732  0.74326  0.09930  1.0000
  C   C789      1.0  0.62104  0.86112  0.03644  1.0000
  H   H793      1.0  0.62897  0.84490  0.02440  1.0000
  S   S266      1.0  0.67090  0.72310  0.02584  1.0000
  H   H794      1.0  0.64939  0.01800  0.20210  1.0000
  H   H795      1.0  0.60265  0.01821  0.29493  1.0000
  Fe  Fe133     1.0  0.60536  0.87017  0.89549  1.0000
  S   S267      1.0  0.59655  0.87565  0.85373  1.0000
  S   S268      1.0  0.61106  0.82907  0.91738  1.0000
  Fe  Fe134     1.0  0.60292  0.93056  0.89796  1.0000
  S   S269      1.0  0.59348  0.93960  0.85665  1.0000
  S   S270      1.0  0.60438  0.96311  0.92382  1.0000
  Fe  Fe135     1.0  0.56682  0.90827  0.86642  1.0000
  C   C790      1.0  0.74527  0.68329  0.86911  1.0000
  Fe  Fe136     1.0  0.62437  0.90627  0.84790  1.0000
  S   S271      1.0  0.65247  0.91286  0.81139  1.0000
  S   S272      1.0  0.57337  0.90120  0.90890  1.0000
  S   S273      1.0  0.63600  0.89877  0.88892  1.0000
  Fe  Fe137     1.0  0.58830  0.93401  0.63060  1.0000
  S   S274      1.0  0.58712  0.94268  0.67224  1.0000
  S   S275      1.0  0.54884  0.94278  0.61331  1.0000
  Fe  Fe138     1.0  0.64994  0.92240  0.62483  1.0000
  S   S276      1.0  0.65192  0.92990  0.66614  1.0000
  S   S277      1.0  0.68956  0.91020  0.60142  1.0000
  Fe  Fe139     1.0  0.61688  0.90763  0.67630  1.0000
  S   S278      1.0  0.61203  0.87838  0.71177  1.0000
  Fe  Fe140     1.0  0.62202  0.96409  0.65772  1.0000
  S   S279      1.0  0.62617  0.00169  0.67305  1.0000
  S   S280      1.0  0.61647  0.89705  0.63541  1.0000
  S   S281      1.0  0.62172  0.95834  0.61547  1.0000
  Fe  Fe141     1.0  0.59144  0.68202  0.89980  1.0000
  S   S282      1.0  0.63136  0.67502  0.91369  1.0000
  S   S283      1.0  0.57450  0.72401  0.88718  1.0000
  Fe  Fe142     1.0  0.58735  0.62190  0.90187  1.0000
  S   S284      1.0  0.62748  0.61148  0.91503  1.0000
  S   S285      1.0  0.56117  0.58948  0.90106  1.0000
  Fe  Fe143     1.0  0.61512  0.64285  0.94165  1.0000
  S   S286      1.0  0.62126  0.63325  0.98406  1.0000
  Fe  Fe144     1.0  0.63962  0.64445  0.88565  1.0000
  S   S287      1.0  0.67660  0.63966  0.85767  1.0000
  S   S288      1.0  0.57406  0.65208  0.93033  1.0000
  S   S289      1.0  0.60040  0.65278  0.86982  1.0000
  C   C791      1.0  0.63615  0.65761  0.99532  1.0000
  H   H796      1.0  0.76440  0.00042  0.61497  1.0000
  C   C792      1.0  0.65434  0.67167  0.97873  1.0000
  H   H797      1.0  0.65150  0.85446  0.67160  1.0000
  H   H798      1.0  0.66012  0.66698  0.95886  1.0000
  C   C793      1.0  0.72272  0.68426  0.88737  1.0000
  C   C794      1.0  0.70150  0.67087  0.88412  1.0000
  C   C795      1.0  0.70267  0.65671  0.86248  1.0000
  C   C796      1.0  0.74819  0.95737  0.54315  1.0000
  H   H799      1.0  0.68454  0.67127  0.89859  1.0000
  C   C797      1.0  0.53462  0.96889  0.91141  1.0000
  N   N65       1.0  0.62093  0.88654  0.02058  1.0000
  C   C798      1.0  0.57422  0.55612  0.89963  1.0000
  C   C799      1.0  0.59845  0.54917  0.88518  1.0000
  C   C800      1.0  0.53148  0.85073  0.81579  1.0000
  H   H800      1.0  0.61051  0.56423  0.87633  1.0000
  C   C801      1.0  0.60219  0.79983  0.90758  1.0000
  C   C802      1.0  0.60741  0.77604  0.92328  1.0000
  C   C803      1.0  0.59979  0.75256  0.91689  1.0000
  C   C804      1.0  0.58658  0.75260  0.89476  1.0000
  C   C805      1.0  0.58166  0.77632  0.87883  1.0000
  C   C806      1.0  0.58960  0.79973  0.88504  1.0000
  H   H801      1.0  0.61718  0.77577  0.94074  1.0000
  H   H802      1.0  0.60366  0.73456  0.92946  1.0000
  H   H803      1.0  0.57142  0.77668  0.86167  1.0000
  H   H804      1.0  0.58541  0.81779  0.87269  1.0000
  C   C807      1.0  0.65059  0.01796  0.65347  1.0000
  H   H805      1.0  0.74390  0.56821  0.87416  1.0000
  C   C808      1.0  0.65749  0.75854  0.86966  1.0000
  H   H806      1.0  0.61211  0.87162  0.98624  1.0000
  C   C809      1.0  0.60625  0.52291  0.88053  1.0000
  C   C810      1.0  0.64188  0.90255  0.78378  1.0000
  C   C811      1.0  0.64559  0.91756  0.75951  1.0000
  C   C812      1.0  0.63545  0.91079  0.73762  1.0000
  C   C813      1.0  0.62273  0.88827  0.73959  1.0000
  C   C814      1.0  0.61961  0.87286  0.76371  1.0000
  C   C815      1.0  0.62897  0.88012  0.78586  1.0000
  H   H807      1.0  0.65564  0.93489  0.75780  1.0000
  H   H808      1.0  0.63759  0.92305  0.71931  1.0000
  H   H809      1.0  0.60993  0.85529  0.76531  1.0000
  H   H810      1.0  0.62667  0.86806  0.80439  1.0000
  C   C816      1.0  0.71171  0.74813  0.86019  1.0000
  H   H811      1.0  0.56983  0.91302  0.77964  1.0000
  C   C817      1.0  0.67354  0.77473  0.87847  1.0000
  H   H812      1.0  0.61811  0.95389  0.97916  1.0000
  H   H813      1.0  0.53502  0.89054  0.63274  1.0000
  H   H814      1.0  0.52153  0.84708  0.88957  1.0000
  H   H815      1.0  0.54821  0.78921  0.95030  1.0000
  H   H816      1.0  0.70551  0.98877  0.58774  1.0000
  H   H817      1.0  0.73297  0.74366  0.85655  1.0000
  C   C818      1.0  0.55517  0.54323  0.84081  1.0000
  C   C819      1.0  0.65787  0.69781  0.01388  1.0000
  H   H818      1.0  0.55526  0.93681  0.80188  1.0000
  H   H819      1.0  0.67276  0.86514  0.64331  1.0000
  C   C820      1.0  0.61895  0.93500  0.99083  1.0000
  H   H820      1.0  0.70599  0.96000  0.55279  1.0000
  C   C821      1.0  0.70857  0.87906  0.66896  1.0000
  H   H821      1.0  0.58708  0.91871  0.80584  1.0000
  H   H822      1.0  0.70549  0.94386  0.63716  1.0000
  C   C822      1.0  0.74392  0.90719  0.59359  1.0000
  H   H823      1.0  0.58706  0.98029  0.71260  1.0000
  C   C823      1.0  0.72414  0.98234  0.57685  1.0000
  C   C824      1.0  0.74807  0.94122  0.63033  1.0000
  H   H824      1.0  0.53988  0.54130  0.92181  1.0000
  H   H825      1.0  0.57363  0.55065  0.83281  1.0000
  C   C825      1.0  0.62932  0.66327  0.02123  1.0000
  H   H826      1.0  0.73926  0.90153  0.67556  1.0000
  C   C826      1.0  0.69447  0.87625  0.72280  1.0000
  H   H827      1.0  0.53495  0.58118  0.84775  1.0000
  C   C827      1.0  0.70087  0.76927  0.87390  1.0000
  C   C828      1.0  0.53802  0.79462  0.93294  1.0000
  H   H828      1.0  0.72175  0.69522  0.90412  1.0000
  C   C829      1.0  0.66539  0.69167  0.98811  1.0000
  H   H829      1.0  0.69079  0.59443  0.90136  1.0000
  H   H830      1.0  0.60894  0.95767  0.80361  1.0000
  H   H831      1.0  0.61063  0.91460  0.95940  1.0000
  N   N66       1.0  0.68741  0.86649  0.68000  1.0000
  H   H832      1.0  0.60395  0.00313  0.87626  1.0000
  H   H833      1.0  0.72920  0.00411  0.61875  1.0000
  C   C830      1.0  0.59180  0.97546  0.73263  1.0000
  H   H834      1.0  0.64276  0.00542  0.61719  1.0000
  C   C831      1.0  0.70665  0.60348  0.90732  1.0000
  C   C832      1.0  0.61469  0.91290  0.97973  1.0000
  C   C833      1.0  0.74683  0.00595  0.60409  1.0000
  H   H835      1.0  0.68120  0.83378  0.66154  1.0000
  C   C834      1.0  0.72076  0.91823  0.60761  1.0000
  C   C835      1.0  0.60721  0.01062  0.94017  1.0000
  H   H836      1.0  0.54402  0.83530  0.93009  1.0000
  C   C836      1.0  0.70184  0.61693  0.92972  1.0000
  H   H837      1.0  0.66447  0.85370  0.71549  1.0000
  C   C837      1.0  0.72191  0.62935  0.93700  1.0000
  H   H838      1.0  0.68253  0.61813  0.94106  1.0000
  H   H839      1.0  0.66475  0.79128  0.88889  1.0000
  H   H840      1.0  0.71828  0.64031  0.95399  1.0000
  N   N67       1.0  0.66826  0.73722  0.85722  1.0000
  C   C838      1.0  0.53676  0.99527  0.90346  1.0000
  C   C839      1.0  0.74652  0.62794  0.92206  1.0000
  C   C840      1.0  0.73545  0.58868  0.86899  1.0000
  N   N68       1.0  0.73068  0.60269  0.89248  1.0000
  C   C841      1.0  0.60970  0.98902  0.74214  1.0000
  C   C842      1.0  0.60507  0.01271  0.89351  1.0000
  H   H841      1.0  0.55691  0.87945  0.81991  1.0000
  H   H842      1.0  0.55186  0.00481  0.91017  1.0000
  H   H843      1.0  0.67944  0.70257  0.97536  1.0000
  H   H844      1.0  0.54824  0.95785  0.92418  1.0000
  C   C843      1.0  0.71545  0.88996  0.71158  1.0000
  C   C844      1.0  0.60590  0.99769  0.91816  1.0000
  H   H845      1.0  0.60759  0.99961  0.95932  1.0000
  H   H846      1.0  0.71437  0.87996  0.64797  1.0000
  C   C845      1.0  0.52833  0.77553  0.92096  1.0000
  C   C846      1.0  0.53350  0.56035  0.84928  1.0000
  C   C847      1.0  0.58033  0.95547  0.74900  1.0000
  H   H847      1.0  0.70359  0.71588  0.84118  1.0000
  H   H848      1.0  0.52359  0.63826  0.89949  1.0000
  N   N69       1.0  0.58654  0.94920  0.77418  1.0000
  H   H849      1.0  0.54626  0.83950  0.80358  1.0000
  C   C848      1.0  0.72279  0.89116  0.68452  1.0000
  C   C849      1.0  0.72520  0.65581  0.84427  1.0000
  C   C850      1.0  0.53758  0.87324  0.82524  1.0000
  C   C851      1.0  0.72303  0.93515  0.62619  1.0000
  H   H850      1.0  0.72625  0.64492  0.82747  1.0000
  C   C852      1.0  0.75063  0.61425  0.89985  1.0000
  C   C853      1.0  0.68076  0.86433  0.70663  1.0000
  S   S290      1.0  0.52612  0.91490  0.85454  1.0000
  H   H851      1.0  0.66059  0.69975  0.84865  1.0000
  C   C854      1.0  0.61568  0.98270  0.76792  1.0000
  H   H852      1.0  0.56674  0.94477  0.74131  1.0000
  H   H853      1.0  0.64576  0.72754  0.82875  1.0000
  H   H854      1.0  0.63247  0.71940  0.86243  1.0000
  C   C855      1.0  0.60369  0.96276  0.78382  1.0000
  C   C856      1.0  0.57397  0.92850  0.79120  1.0000
  C   C857      1.0  0.65096  0.72020  0.84876  1.0000
  N   N70       1.0  0.74725  0.98909  0.58314  1.0000
  H   H855      1.0  0.74247  0.89400  0.57923  1.0000
  C   C858      1.0  0.62409  0.93269  0.01699  1.0000
  H   H856      1.0  0.71363  0.78140  0.88092  1.0000
  H   H857      1.0  0.63638  0.76307  0.87295  1.0000
  C   C859      1.0  0.69499  0.73238  0.85169  1.0000
  H   H858      1.0  0.74948  0.95458  0.64453  1.0000
  H   H859      1.0  0.62976  0.99291  0.77551  1.0000
  C   C860      1.0  0.72427  0.96619  0.55696  1.0000
  H   H860      1.0  0.72604  0.89957  0.72387  1.0000
  C   C861      1.0  0.53567  0.82050  0.92158  1.0000
  C   C862      1.0  0.55870  0.53620  0.91068  1.0000
  H   H861      1.0  0.68855  0.87515  0.74384  1.0000
  C   C863      1.0  0.74646  0.66900  0.84761  1.0000
  C   C864      1.0  0.61562  0.88868  0.99501  1.0000
  C   C865      1.0  0.67255  0.85427  0.66331  1.0000
  H   H862      1.0  0.71698  0.58896  0.85980  1.0000
  H   H863      1.0  0.53103  0.75531  0.92937  1.0000
  C   C866      1.0  0.52333  0.82706  0.89872  1.0000
  H   H864      1.0  0.74963  0.59814  0.85384  1.0000
  C   C867      1.0  0.65436  0.01695  0.62625  1.0000
  H   H865      1.0  0.76221  0.63778  0.92730  1.0000
  H   H866      1.0  0.76348  0.66863  0.83312  1.0000
  H   H867      1.0  0.76972  0.61328  0.88818  1.0000
  H   H868      1.0  0.61905  0.00426  0.72945  1.0000
  H   H869      1.0  0.74859  0.94451  0.52795  1.0000
  C   C868      1.0  0.76898  0.91327  0.59773  1.0000
  Fe  Fe145     1.0  0.92966  0.37230  0.40769  1.0000
  S   S291      1.0  0.89417  0.40224  0.41051  1.0000
  S   S292      1.0  0.96876  0.38637  0.40984  1.0000
  Fe  Fe146     1.0  0.89656  0.32790  0.41098  1.0000
  S   S293      1.0  0.85885  0.35459  0.41397  1.0000
  S   S294      1.0  0.89241  0.28513  0.41810  1.0000
  Fe  Fe147     1.0  0.87953  0.37988  0.38107  1.0000
  S   S295      1.0  0.85966  0.40059  0.34537  1.0000
  Fe  Fe148     1.0  0.87764  0.37365  0.44297  1.0000
  S   S296      1.0  0.85702  0.37869  0.48445  1.0000
  S   S297      1.0  0.91630  0.35173  0.37651  1.0000
  S   S298      1.0  0.91403  0.34529  0.44149  1.0000
  Fe  Fe149     1.0  0.92545  0.12067  0.35531  1.0000
  S   S299      1.0  0.92225  0.15671  0.37564  1.0000
  S   S300      1.0  0.96364  0.09397  0.34800  1.0000
  Fe  Fe150     1.0  0.86695  0.13028  0.34341  1.0000
  S   S301      1.0  0.86004  0.16754  0.36245  1.0000
  S   S302      1.0  0.83652  0.11823  0.31975  1.0000
  Fe  Fe151     1.0  0.89987  0.17569  0.34253  1.0000
  S   S303      1.0  0.91038  0.21512  0.32440  1.0000
  Fe  Fe152     1.0  0.88300  0.14511  0.39381  1.0000
  S   S304      1.0  0.86923  0.15171  0.43580  1.0000
  S   S305      1.0  0.90551  0.14035  0.32065  1.0000
  S   S306      1.0  0.88755  0.10690  0.37630  1.0000
  Fe  Fe153     1.0  0.81753  0.44688  0.16041  1.0000
  S   S307      1.0  0.85851  0.42610  0.15876  1.0000
  S   S308      1.0  0.80533  0.48998  0.15829  1.0000
  Fe  Fe154     1.0  0.79244  0.39753  0.16015  1.0000
  S   S309      1.0  0.83144  0.37244  0.15886  1.0000
  C   C869      1.0  0.90975  0.05993  0.33166  1.0000
  Fe  Fe155     1.0  0.84073  0.39670  0.18976  1.0000
  S   S310      1.0  0.86271  0.37790  0.22493  1.0000
  Fe  Fe156     1.0  0.84526  0.40417  0.12841  1.0000
  S   S311      1.0  0.86802  0.39962  0.08811  1.0000
  S   S312      1.0  0.80031  0.41928  0.19303  1.0000
  S   S313      1.0  0.80590  0.42732  0.12825  1.0000
  N   N71       1.0  0.78400  0.48108  0.07921  1.0000
  C   C870      1.0  0.01488  0.34761  0.35412  1.0000
  C   C871      1.0  0.80022  0.34193  0.11312  1.0000
  C   C872      1.0  0.93223  0.19965  0.42469  1.0000
  H   H870      1.0  0.90936  0.17670  0.50814  1.0000
  C   C873      1.0  0.87337  0.51696  0.12408  1.0000
  H   H871      1.0  0.86069  0.47927  0.13815  1.0000
  C   C874      1.0  0.78573  0.11530  0.30937  1.0000
  H   H872      1.0  0.85217  0.34244  0.10830  1.0000
  C   C875      1.0  0.92166  0.24010  0.48128  1.0000
  C   C876      1.0  0.82551  0.39833  0.06006  1.0000
  C   C877      1.0  0.93850  0.13290  0.46655  1.0000
  C   C878      1.0  0.86816  0.39956  0.03471  1.0000
  H   H873      1.0  0.87213  0.26012  0.30307  1.0000
  C   C879      1.0  0.79298  0.46575  0.03644  1.0000
  H   H874      1.0  0.81328  0.39866  0.07863  1.0000
  N   N72       1.0  0.81867  0.33760  0.08956  1.0000
  C   C880      1.0  0.85464  0.49993  0.13465  1.0000
  H   H875      1.0  0.01245  0.33533  0.33927  1.0000
  H   H876      1.0  0.00949  0.06052  0.33423  1.0000
  H   H877      1.0  0.99331  0.45677  0.35377  1.0000
  C   C881      1.0  0.89512  0.15074  0.45495  1.0000
  H   H878      1.0  0.99216  0.13407  0.36662  1.0000
  C   C882      1.0  0.87232  0.38585  0.51142  1.0000
  H   H879      1.0  0.92121  0.12278  0.43361  1.0000
  H   H880      1.0  0.78857  0.33438  0.06553  1.0000
  C   C883      1.0  0.86120  0.39405  0.31185  1.0000
  C   C884      1.0  0.84448  0.40982  0.29519  1.0000
  C   C885      1.0  0.84465  0.40528  0.26864  1.0000
  C   C886      1.0  0.86170  0.38489  0.25824  1.0000
  C   C887      1.0  0.87852  0.36918  0.27488  1.0000
  C   C888      1.0  0.87828  0.37366  0.30145  1.0000
  H   H881      1.0  0.83109  0.42558  0.30293  1.0000
  H   H882      1.0  0.83146  0.41746  0.25629  1.0000
  H   H883      1.0  0.89179  0.35333  0.26715  1.0000
  H   H884      1.0  0.89113  0.36112  0.31390  1.0000
  C   C889      1.0  0.92737  0.42148  0.34697  1.0000
  C   C890      1.0  0.89190  0.16596  0.47598  1.0000
  C   C891      1.0  0.00739  0.13440  0.29389  1.0000
  H   H885      1.0  0.90017  0.23567  0.44947  1.0000
  H   H886      1.0  0.95648  0.11994  0.46295  1.0000
  H   H887      1.0  0.80391  0.11231  0.37084  1.0000
  C   C892      1.0  0.96298  0.21265  0.48314  1.0000
  H   H888      1.0  0.91939  0.39680  0.31898  1.0000
  C   C893      1.0  0.01597  0.07726  0.34117  1.0000
  C   C894      1.0  0.89709  0.26703  0.39111  1.0000
  C   C895      1.0  0.90969  0.27626  0.36674  1.0000
  C   C896      1.0  0.91369  0.26047  0.34592  1.0000
  C   C897      1.0  0.90526  0.23550  0.34970  1.0000
  C   C898      1.0  0.89235  0.22667  0.37394  1.0000
  C   C899      1.0  0.88802  0.24247  0.39445  1.0000
  H   H889      1.0  0.91665  0.29531  0.36405  1.0000
  H   H890      1.0  0.92362  0.26741  0.32711  1.0000
  H   H891      1.0  0.88549  0.20765  0.37702  1.0000
  H   H892      1.0  0.87737  0.23560  0.41291  1.0000
  C   C900      1.0  0.99609  0.37246  0.39028  1.0000
  C   C901      1.0  0.99306  0.35621  0.37139  1.0000
  H   H893      1.0  0.79819  0.36284  0.11658  1.0000
  H   H894      1.0  0.84504  0.06033  0.32400  1.0000
  H   H895      1.0  0.92657  0.07015  0.32365  1.0000
  H   H896      1.0  0.84776  0.46098  0.20438  1.0000
  H   H897      1.0  0.97386  0.35069  0.36970  1.0000
  H   H898      1.0  0.80742  0.32995  0.13069  1.0000
  C   C902      1.0  0.82867  0.46779  0.06201  1.0000
  C   C903      1.0  0.86385  0.05458  0.33173  1.0000
  C   C904      1.0  0.99735  0.09718  0.35019  1.0000
  H   H899      1.0  0.90667  0.42677  0.35344  1.0000
  H   H900      1.0  0.00095  0.40226  0.32474  1.0000
  C   C905      1.0  0.85257  0.39985  0.05911  1.0000
  C   C906      1.0  0.94702  0.43118  0.35818  1.0000
  C   C907      1.0  0.83713  0.47708  0.21532  1.0000
  H   H901      1.0  0.88910  0.40074  0.03371  1.0000
  N   N73       1.0  0.93618  0.21026  0.44880  1.0000
  H   H902      1.0  0.87387  0.17882  0.47967  1.0000
  N   N74       1.0  0.97308  0.42447  0.35003  1.0000
  H   H903      1.0  0.99293  0.12199  0.29055  1.0000
  N   N75       1.0  0.99945  0.15763  0.30411  1.0000
  C   C908      1.0  0.81453  0.39492  0.03716  1.0000
  H   H904      1.0  0.94749  0.24021  0.51094  1.0000
  C   C909      1.0  0.81987  0.46200  0.03909  1.0000
  H   H905      1.0  0.94134  0.44381  0.37373  1.0000
  C   C910      1.0  0.86617  0.03478  0.35239  1.0000
  C   C911      1.0  0.91788  0.22908  0.45879  1.0000
  H   H906      1.0  0.79384  0.39242  0.03838  1.0000
  H   H907      1.0  0.84289  0.12560  0.48767  1.0000
  S   S314      1.0  0.95953  0.14434  0.50933  1.0000
  H   H908      1.0  0.79382  0.11764  0.28895  1.0000
  C   C912      1.0  0.87213  0.50350  0.19530  1.0000
  H   H909      1.0  0.90704  0.25497  0.48918  1.0000
  C   C913      1.0  0.91186  0.16452  0.49237  1.0000
  C   C914      1.0  0.79148  0.11234  0.35541  1.0000
  H   H910      1.0  0.81947  0.33007  0.02510  1.0000
  C   C915      1.0  0.81036  0.47751  0.08192  1.0000
  C   C916      1.0  0.82848  0.50994  0.14166  1.0000
  H   H911      1.0  0.84948  0.46420  0.06460  1.0000
  H   H912      1.0  0.01322  0.42553  0.35665  1.0000
  C   C917      1.0  0.93452  0.40460  0.32756  1.0000
  H   H913      1.0  0.78028  0.33674  0.11137  1.0000
  C   C918      1.0  0.98029  0.40799  0.33089  1.0000
  H   H914      1.0  0.93855  0.04732  0.37766  1.0000
  H   H915      1.0  0.84937  0.02449  0.36043  1.0000
  H   H916      1.0  0.89379  0.50934  0.11959  1.0000
  C   C919      1.0  0.80228  0.11558  0.32909  1.0000
  H   H917      1.0  0.84047  0.47295  0.23634  1.0000
  H   H918      1.0  0.88356  0.33795  0.06841  1.0000
  H   H919      1.0  0.87304  0.42657  0.49763  1.0000
  H   H920      1.0  0.94373  0.18019  0.42294  1.0000
  H   H921      1.0  0.85036  0.24412  0.32804  1.0000
  N   N76       1.0  0.84532  0.28606  0.32498  1.0000
  C   C920      1.0  0.84622  0.28640  0.35133  1.0000
  C   C921      1.0  0.83973  0.30883  0.30934  1.0000
  C   C922      1.0  0.84184  0.30999  0.36264  1.0000
  C   C923      1.0  0.83446  0.33269  0.32013  1.0000
  C   C924      1.0  0.83588  0.33328  0.34689  1.0000
  C   C925      1.0  0.85164  0.26140  0.31309  1.0000
  H   H922      1.0  0.85060  0.26841  0.36375  1.0000
  H   H923      1.0  0.83942  0.30870  0.28835  1.0000
  H   H924      1.0  0.84328  0.31013  0.38346  1.0000
  H   H925      1.0  0.82980  0.35069  0.30770  1.0000
  H   H926      1.0  0.83255  0.35178  0.35534  1.0000
  C   C926      1.0  0.91862  0.13453  0.44992  1.0000
  H   H927      1.0  0.96024  0.16365  0.29362  1.0000
  C   C927      1.0  0.94439  0.23182  0.49346  1.0000
  H   H928      1.0  0.96690  0.38417  0.30475  1.0000
  C   C928      1.0  0.95860  0.20211  0.46058  1.0000
  C   C929      1.0  0.93787  0.34099  0.51493  1.0000
  C   C930      1.0  0.97120  0.16553  0.31041  1.0000
  H   H929      1.0  0.88392  0.08298  0.30545  1.0000
  H   H930      1.0  0.83779  0.25991  0.29860  1.0000
  C   C931      1.0  0.93497  0.14761  0.48804  1.0000
  C   C932      1.0  0.82688  0.33156  0.04362  1.0000
  H   H931      1.0  0.91119  0.19681  0.42463  1.0000
  H   H932      1.0  0.97297  0.18693  0.45297  1.0000
  H   H933      1.0  0.93821  0.21327  0.40728  1.0000
  C   C933      1.0  0.88576  0.06724  0.32124  1.0000
  C   C934      1.0  0.84877  0.12647  0.50704  1.0000
  H   H934      1.0  0.86719  0.33175  0.02641  1.0000
  H   H935      1.0  0.95393  0.03520  0.34750  1.0000
  H   H936      1.0  0.88710  0.10592  0.49809  1.0000
  C   C935      1.0  0.84498  0.33857  0.09041  1.0000
  H   H937      1.0  0.81582  0.47690  0.21360  1.0000
  C   C936      1.0  0.89042  0.02803  0.36242  1.0000
  H   H938      1.0  0.98051  0.20566  0.49271  1.0000
  H   H939      1.0  0.93361  0.32957  0.49998  1.0000
  C   C937      1.0  0.00630  0.11865  0.35932  1.0000
  C   C938      1.0  0.80949  0.33422  0.06654  1.0000
  C   C939      1.0  0.96113  0.39764  0.31953  1.0000
  H   H940      1.0  0.93696  0.37708  0.48937  1.0000
  C   C940      1.0  0.93975  0.36768  0.50897  1.0000
  N   N77       1.0  0.91189  0.04039  0.35185  1.0000
  H   H941      1.0  0.96338  0.15285  0.32779  1.0000
  C   C941      1.0  0.87385  0.11544  0.51303  1.0000
  C   C942      1.0  0.86290  0.33596  0.06787  1.0000
  C   C943      1.0  0.85372  0.33256  0.04433  1.0000
  N   N78       1.0  0.84611  0.50228  0.20436  1.0000
  H   H942      1.0  0.88587  0.48584  0.19530  1.0000
  H   H943      1.0  0.77307  0.50318  0.11202  1.0000
  C   C944      1.0  0.93699  0.03366  0.36306  1.0000
  H   H944      1.0  0.96700  0.18620  0.31488  1.0000
  C   C945      1.0  0.99320  0.43585  0.36135  1.0000
  C   C946      1.0  0.77519  0.47532  0.05684  1.0000
  H   H945      1.0  0.81731  0.48158  0.09985  1.0000
  H   H946      1.0  0.01141  0.19057  0.31869  1.0000
  H   H947      1.0  0.98915  0.43406  0.38316  1.0000
  C   C947      1.0  0.01767  0.17252  0.30989  1.0000
  C   C948      1.0  0.87596  0.41168  0.51392  1.0000
  H   H948      1.0  0.81227  0.14803  0.52143  1.0000
  Fe  Fe157     1.0  0.97438  0.17921  0.59225  1.0000
  S   S315      1.0  0.96861  0.19841  0.55174  1.0000
  H   H949      1.0  0.81298  0.34920  0.80974  1.0000
  Fe  Fe158     1.0  0.91690  0.16370  0.60011  1.0000
  S   S316      1.0  0.90830  0.18186  0.56015  1.0000
  S   S317      1.0  0.88369  0.14271  0.62381  1.0000
  Fe  Fe159     1.0  0.94882  0.16381  0.54658  1.0000
  H   H950      1.0  0.89241  0.49420  0.86446  1.0000
  Fe  Fe160     1.0  0.92882  0.21469  0.56891  1.0000
  S   S318      1.0  0.91411  0.25646  0.55666  1.0000
  S   S319      1.0  0.95680  0.14289  0.58600  1.0000
  S   S320      1.0  0.93511  0.19812  0.61013  1.0000
  Fe  Fe161     1.0  0.92432  0.35505  0.66742  1.0000
  S   S321      1.0  0.90754  0.39725  0.66435  1.0000
  S   S322      1.0  0.96657  0.33895  0.67083  1.0000
  Fe  Fe162     1.0  0.87223  0.33680  0.66106  1.0000
  S   S323      1.0  0.85136  0.37741  0.65800  1.0000
  S   S324      1.0  0.85199  0.30202  0.65653  1.0000
  Fe  Fe163     1.0  0.88746  0.38709  0.63091  1.0000
  S   S325      1.0  0.88725  0.41107  0.59070  1.0000
  Fe  Fe164     1.0  0.87336  0.38298  0.69201  1.0000
  S   S326      1.0  0.85266  0.40441  0.72682  1.0000
  S   S327      1.0  0.90702  0.34613  0.63239  1.0000
  S   S328      1.0  0.89154  0.34122  0.69669  1.0000
  Fe  Fe165     1.0  0.79104  0.42961  0.90186  1.0000
  S   S329      1.0  0.80739  0.38774  0.90991  1.0000
  C   C949      1.0  0.83116  0.13482  0.62960  1.0000
  Fe  Fe166     1.0  0.84156  0.44918  0.91064  1.0000
  S   S330      1.0  0.86221  0.40883  0.91869  1.0000
  S   S331      1.0  0.86246  0.48378  0.91349  1.0000
  Fe  Fe167     1.0  0.84327  0.39998  0.88384  1.0000
  S   S332      1.0  0.86438  0.37794  0.84990  1.0000
  Fe  Fe168     1.0  0.82427  0.40131  0.94382  1.0000
  S   S333      1.0  0.81740  0.38270  0.98628  1.0000
  S   S334      1.0  0.82585  0.44105  0.87420  1.0000
  S   S335      1.0  0.80482  0.44235  0.93725  1.0000
  C   C950      1.0  0.82295  0.51083  0.88695  1.0000
  C   C951      1.0  0.87526  0.36703  0.53323  1.0000
  H   H951      1.0  0.79812  0.41280  0.59724  1.0000
  C   C952      1.0  0.81418  0.35213  0.54669  1.0000
  H   H952      1.0  0.80683  0.20465  0.60048  1.0000
  H   H953      1.0  0.90061  0.44867  0.88231  1.0000
  H   H954      1.0  0.86962  0.39517  0.99332  1.0000
  H   H955      1.0  0.81975  0.34973  0.86540  1.0000
  N   N79       1.0  0.98319  0.26754  0.65639  1.0000
  H   H956      1.0  0.82025  0.11924  0.70588  1.0000
  H   H957      1.0  0.81413  0.31078  0.55824  1.0000
  C   C953      1.0  0.77119  0.10524  0.71774  1.0000
  C   C954      1.0  0.79283  0.17776  0.67935  1.0000
  H   H958      1.0  0.81771  0.35826  0.61995  1.0000
  H   H959      1.0  0.87210  0.34706  0.53177  1.0000
  C   C955      1.0  0.84581  0.51215  0.89858  1.0000
  H   H960      1.0  0.81428  0.49274  0.88885  1.0000
  C   C956      1.0  0.85646  0.39667  0.76090  1.0000
  C   C957      1.0  0.87298  0.37496  0.77034  1.0000
  C   C958      1.0  0.87510  0.36951  0.79756  1.0000
  C   C959      1.0  0.86067  0.38553  0.81577  1.0000
  C   C960      1.0  0.84396  0.40712  0.80636  1.0000
  C   C961      1.0  0.84206  0.41273  0.77912  1.0000
  H   H961      1.0  0.88421  0.36238  0.75666  1.0000
  H   H962      1.0  0.88812  0.35275  0.80452  1.0000
  H   H963      1.0  0.83246  0.41951  0.82003  1.0000
  H   H964      1.0  0.82910  0.42948  0.77209  1.0000
  H   H965      1.0  0.78813  0.09209  0.72492  1.0000
  H   H966      1.0  0.85469  0.19155  0.60277  1.0000
  C   C962      1.0  0.89222  0.26889  0.58218  1.0000
  C   C963      1.0  0.88693  0.29591  0.58278  1.0000
  C   C964      1.0  0.87368  0.30603  0.60539  1.0000
  C   C965      1.0  0.86527  0.28925  0.62721  1.0000
  C   C966      1.0  0.86882  0.26226  0.62591  1.0000
  C   C967      1.0  0.88243  0.25206  0.60341  1.0000
  H   H967      1.0  0.89381  0.30902  0.56618  1.0000
  H   H968      1.0  0.86999  0.32686  0.60607  1.0000
  H   H969      1.0  0.86203  0.24920  0.64267  1.0000
  H   H970      1.0  0.88587  0.23115  0.60281  1.0000
  H   H971      1.0  0.88382  0.43278  0.81959  1.0000
  H   H972      1.0  0.81407  0.35059  0.52587  1.0000
  C   C968      1.0  0.94463  0.38228  0.52861  1.0000
  C   C969      1.0  0.93984  0.27435  0.64227  1.0000
  C   C970      1.0  0.81517  0.37646  0.55541  1.0000
  H   H973      1.0  0.88224  0.35970  0.57418  1.0000
  C   C971      1.0  0.80398  0.14211  0.62800  1.0000
  C   C972      1.0  0.80495  0.13442  0.70010  1.0000
  H   H974      1.0  0.87136  0.13093  0.57467  1.0000
  C   C973      1.0  0.98944  0.35693  0.65068  1.0000
  C   C974      1.0  0.98148  0.38127  0.63754  1.0000
  C   C975      1.0  0.00026  0.39596  0.62257  1.0000
  H   H975      1.0  0.88336  0.43901  0.53979  1.0000
  N   N80       1.0  0.81691  0.37844  0.58135  1.0000
  H   H976      1.0  0.96097  0.38911  0.63940  1.0000
  H   H977      1.0  0.99413  0.41512  0.61305  1.0000
  H   H978      1.0  0.89729  0.42299  0.86322  1.0000
  C   C976      1.0  0.95303  0.38608  0.57375  1.0000
  C   C977      1.0  0.88460  0.48738  0.84826  1.0000
  H   H979      1.0  0.97464  0.38485  0.57443  1.0000
  H   H980      1.0  0.79826  0.19599  0.66869  1.0000
  C   C978      1.0  0.81438  0.32985  0.56478  1.0000
  C   C979      1.0  0.79494  0.16742  0.61773  1.0000
  H   H981      1.0  0.91922  0.28219  0.64533  1.0000
  C   C980      1.0  0.88321  0.40025  0.56012  1.0000
  H   H982      1.0  0.81565  0.39356  0.54105  1.0000
  C   C981      1.0  0.81353  0.18502  0.60845  1.0000
  H   H983      1.0  0.83099  0.40229  0.60624  1.0000
  H   H984      1.0  0.94494  0.40694  0.56994  1.0000
  C   C982      1.0  0.94926  0.26096  0.62051  1.0000
  C   C983      1.0  0.84074  0.17763  0.60973  1.0000
  C   C984      1.0  0.99236  0.25375  0.63545  1.0000
  H   H985      1.0  0.82665  0.15046  0.56530  1.0000
  H   H986      1.0  0.85749  0.46376  0.78995  1.0000
  C   C985      1.0  0.81227  0.15827  0.68746  1.0000
  H   H987      1.0  0.82704  0.41760  0.57407  1.0000
  C   C986      1.0  0.88072  0.37418  0.55744  1.0000
  H   H988      1.0  0.01272  0.24501  0.63287  1.0000
  H   H989      1.0  0.94825  0.33513  0.57916  1.0000
  N   N81       1.0  0.88186  0.11756  0.53693  1.0000
  H   H990      1.0  0.93967  0.30840  0.54506  1.0000
  C   C987      1.0  0.79990  0.34595  0.86150  1.0000
  N   N82       1.0  0.88871  0.46151  0.84428  1.0000
  C   C988      1.0  0.85954  0.49678  0.81108  1.0000
  N   N83       1.0  0.78973  0.36630  0.84189  1.0000
  C   C989      1.0  0.01610  0.34695  0.64816  1.0000
  C   C990      1.0  0.81523  0.33218  0.59132  1.0000
  H   H991      1.0  0.83293  0.16133  0.68317  1.0000
  C   C991      1.0  0.87974  0.45314  0.82323  1.0000
  C   C992      1.0  0.81655  0.35677  0.59931  1.0000
  C   C993      1.0  0.88149  0.41877  0.53801  1.0000
  H   H992      1.0  0.83785  0.11534  0.63795  1.0000
  C   C994      1.0  0.79843  0.36498  0.81585  1.0000
  C   C995      1.0  0.81816  0.40404  0.59016  1.0000
  H   H993      1.0  0.94352  0.37905  0.59344  1.0000
  N   N84       1.0  0.94734  0.37064  0.55354  1.0000
  C   C996      1.0  0.84970  0.15257  0.62066  1.0000
  H   H994      1.0  0.93614  0.25827  0.60653  1.0000
  H   H995      1.0  0.98290  0.23952  0.60050  1.0000
  H   H996      1.0  0.79638  0.38325  0.77612  1.0000
  C   C997      1.0  0.86491  0.47059  0.80639  1.0000
  H   H997      1.0  0.92509  0.44177  0.85486  1.0000
  C   C998      1.0  0.97560  0.25049  0.61707  1.0000
  C   C999      1.0  0.90377  0.44283  0.86197  1.0000
  C   C1000     1.0  0.95718  0.27736  0.66022  1.0000
  H   H998      1.0  0.91760  0.12016  0.55261  1.0000
  C   C1001     1.0  0.83981  0.14072  0.55042  1.0000
  C   C1002     1.0  0.90820  0.10617  0.54308  1.0000
  C   C1003     1.0  0.94593  0.34438  0.55945  1.0000
  H   H999      1.0  0.81548  0.31498  0.60562  1.0000
  C   C1004     1.0  0.94114  0.32917  0.54026  1.0000
  C   C1005     1.0  0.86964  0.50532  0.83200  1.0000
  C   C1006     1.0  0.86510  0.12966  0.55563  1.0000
  H   H1000     1.0  0.79001  0.12830  0.63519  1.0000
  N   N85       1.0  0.77895  0.13025  0.70470  1.0000
  H   H1001     1.0  0.94970  0.28776  0.67715  1.0000
  C   C1007     1.0  0.78917  0.38424  0.79674  1.0000
  H   H1002     1.0  0.80150  0.32636  0.85442  1.0000
  C   C1008     1.0  0.85711  0.39656  0.01172  1.0000
  H   H1003     1.0  0.00323  0.25255  0.68939  1.0000
  H   H1004     1.0  0.99377  0.28748  0.68679  1.0000
  H   H1005     1.0  0.90685  0.08793  0.55660  1.0000
  H   H1006     1.0  0.78674  0.34537  0.88034  1.0000
  S   S336      1.0  0.01331  0.18914  0.60400  1.0000
  H   H1007     1.0  0.92155  0.10175  0.52509  1.0000
  C   C1009     1.0  0.83036  0.39344  0.01295  1.0000
  H   H1008     1.0  0.84764  0.51048  0.79854  1.0000
  C   C1010     1.0  0.00113  0.27056  0.67547  1.0000
  H   H1009     1.0  0.78597  0.46084  0.01885  1.0000
  C   C1011     1.0  0.83171  0.13924  0.52587  1.0000
  C   C1012     1.0  0.77145  0.40530  0.80450  1.0000
  C   C1013     1.0  0.77251  0.38700  0.84969  1.0000
  H   H1010     1.0  0.94569  0.40309  0.52391  1.0000
  H   H1011     1.0  0.83383  0.45409  0.02364  1.0000
  Fe  Fe169     1.0  0.78743  0.93420  0.35227  1.0000
  S   S337      1.0  0.79032  0.89326  0.37242  1.0000
  C   C1014     1.0  0.98767  0.62335  0.43597  1.0000
  Fe  Fe170     1.0  0.84539  0.94032  0.36085  1.0000
  S   S338      1.0  0.85180  0.90013  0.38168  1.0000
  S   S339      1.0  0.87751  0.96734  0.35059  1.0000
  Fe  Fe171     1.0  0.83082  0.88811  0.35047  1.0000
  S   S340      1.0  0.85004  0.85610  0.32661  1.0000
  Fe  Fe172     1.0  0.81089  0.90971  0.40177  1.0000
  S   S341      1.0  0.80044  0.90058  0.44537  1.0000
  S   S342      1.0  0.82684  0.92773  0.32805  1.0000
  S   S343      1.0  0.80558  0.95120  0.38307  1.0000
  Fe  Fe173     1.0  0.86099  0.71069  0.35863  1.0000
  S   S344      1.0  0.85239  0.66891  0.36268  1.0000
  S   S345      1.0  0.82912  0.74130  0.37265  1.0000
  Fe  Fe174     1.0  0.91903  0.69634  0.34352  1.0000
  S   S346      1.0  0.91479  0.65373  0.34664  1.0000
  S   S347      1.0  0.95982  0.70739  0.33041  1.0000
  Fe  Fe175     1.0  0.87931  0.66615  0.32480  1.0000
  S   S348      1.0  0.87334  0.64196  0.29226  1.0000
  Fe  Fe176     1.0  0.88858  0.66099  0.38397  1.0000
  S   S349      1.0  0.89137  0.63222  0.42062  1.0000
  S   S350      1.0  0.88533  0.70863  0.31925  1.0000
  S   S351      1.0  0.89531  0.70279  0.38226  1.0000
  C   C1015     1.0  0.93338  0.65004  0.23629  1.0000
  Fe  Fe177     1.0  0.85904  0.65656  0.13825  1.0000
  S   S352      1.0  0.84234  0.61821  0.14765  1.0000
  S   S353      1.0  0.86966  0.67953  0.16996  1.0000
  Fe  Fe178     1.0  0.85594  0.65728  0.07825  1.0000
  S   S354      1.0  0.83925  0.61919  0.08359  1.0000
  H   H1012     1.0  0.92887  0.67023  0.19778  1.0000
  Fe  Fe179     1.0  0.81421  0.63440  0.11835  1.0000
  H   H1013     1.0  0.99546  0.91235  0.30702  1.0000
  Fe  Fe180     1.0  0.86881  0.60635  0.11209  1.0000
  S   S355      1.0  0.88960  0.56575  0.11108  1.0000
  S   S356      1.0  0.82847  0.67399  0.11122  1.0000
  S   S357      1.0  0.88812  0.64341  0.10437  1.0000
  C   C1016     1.0  0.92524  0.94027  0.36564  1.0000
  C   C1017     1.0  0.82502  0.66494  0.47093  1.0000
  S   S358      1.0  0.00295  0.95310  0.34441  1.0000
  C   C1018     1.0  0.84210  0.84191  0.50319  1.0000
  H   H1014     1.0  0.94825  0.69367  0.38626  1.0000
  H   H1015     1.0  0.90676  0.93755  0.29689  1.0000
  C   C1019     1.0  0.86977  0.65328  0.25877  1.0000
  C   C1020     1.0  0.86954  0.67969  0.24911  1.0000
  C   C1021     1.0  0.86859  0.68750  0.22201  1.0000
  C   C1022     1.0  0.86780  0.66908  0.20426  1.0000
  C   C1023     1.0  0.86742  0.64276  0.21403  1.0000
  C   C1024     1.0  0.86842  0.63495  0.24110  1.0000
  H   H1016     1.0  0.87039  0.69405  0.26243  1.0000
  H   H1017     1.0  0.86877  0.70791  0.21469  1.0000
  H   H1018     1.0  0.86688  0.62837  0.20065  1.0000
  H   H1019     1.0  0.86852  0.61450  0.24835  1.0000
  C   C1025     1.0  0.88747  0.63700  0.45450  1.0000
  C   C1026     1.0  0.89363  0.65934  0.46441  1.0000
  H   H1020     1.0  0.93489  0.94816  0.51589  1.0000
  C   C1027     1.0  0.95318  0.93742  0.36471  1.0000
  H   H1021     1.0  0.89539  0.67810  0.49965  1.0000
  C   C1028     1.0  0.87860  0.61655  0.47219  1.0000
  H   H1022     1.0  0.90083  0.67518  0.45094  1.0000
  H   H1023     1.0  0.81051  0.65310  0.41193  1.0000
  C   C1029     1.0  0.88104  0.64044  0.50952  1.0000
  H   H1024     1.0  0.87414  0.59907  0.46493  1.0000
  C   C1030     1.0  0.92732  0.97815  0.33357  1.0000
  C   C1031     1.0  0.91226  0.96088  0.35006  1.0000
  H   H1025     1.0  0.91764  0.99396  0.32131  1.0000
  H   H1026     1.0  0.91379  0.92689  0.37861  1.0000
  C   C1032     1.0  0.82360  0.91025  0.46335  1.0000
  C   C1033     1.0  0.81949  0.90785  0.49088  1.0000
  C   C1034     1.0  0.93480  0.72530  0.26011  1.0000
  C   C1035     1.0  0.86288  0.92088  0.49233  1.0000
  C   C1036     1.0  0.86656  0.92413  0.46488  1.0000
  C   C1037     1.0  0.84683  0.91911  0.45043  1.0000
  H   H1027     1.0  0.83545  0.63235  0.42850  1.0000
  C   C1038     1.0  0.82811  0.69139  0.43001  1.0000
  H   H1028     1.0  0.88484  0.93018  0.45469  1.0000
  H   H1029     1.0  0.84985  0.92172  0.42927  1.0000
  C   C1039     1.0  0.84501  0.82437  0.34062  1.0000
  C   C1040     1.0  0.82641  0.82014  0.36246  1.0000
  C   C1041     1.0  0.82151  0.79455  0.37222  1.0000
  C   C1042     1.0  0.83565  0.77320  0.36055  1.0000
  C   C1043     1.0  0.85466  0.77751  0.33913  1.0000
  C   C1044     1.0  0.85912  0.80306  0.32900  1.0000
  H   H1030     1.0  0.81557  0.83653  0.37161  1.0000
  H   H1031     1.0  0.80688  0.79127  0.38889  1.0000
  H   H1032     1.0  0.86558  0.76120  0.33001  1.0000
  H   H1033     1.0  0.87346  0.80628  0.31206  1.0000
  H   H1034     1.0  0.00588  0.70030  0.52150  1.0000
  C   C1045     1.0  0.95480  0.97524  0.33252  1.0000
  H   H1035     1.0  0.99091  0.89526  0.33915  1.0000
  C   C1046     1.0  0.88121  0.52740  0.18514  1.0000
  H   H1036     1.0  0.91835  0.57413  0.04538  1.0000
  C   C1047     1.0  0.97973  0.70260  0.35628  1.0000
  C   C1048     1.0  0.98483  0.69145  0.40256  1.0000
  H   H1037     1.0  0.79850  0.84567  0.31669  1.0000
  C   C1049     1.0  0.79134  0.70085  0.05485  1.0000
  C   C1050     1.0  0.96346  0.62430  0.42620  1.0000
  H   H1038     1.0  0.80050  0.54453  0.14176  1.0000
  C   C1051     1.0  0.83466  0.71206  0.44205  1.0000
  H   H1039     1.0  0.91408  0.73345  0.26554  1.0000
  N   N86       1.0  0.93535  0.69922  0.25169  1.0000
  H   H1040     1.0  0.93150  0.63100  0.23050  1.0000
  C   C1052     1.0  0.93195  0.67206  0.21791  1.0000
  C   C1053     1.0  0.77877  0.85505  0.32178  1.0000
  H   H1041     1.0  0.84168  0.72465  0.47864  1.0000
  C   C1054     1.0  0.90866  0.59440  0.04663  1.0000
  H   H1042     1.0  0.81381  0.81423  0.51482  1.0000
  H   H1043     1.0  0.83313  0.68233  0.50463  1.0000
  C   C1055     1.0  0.79062  0.67413  0.05446  1.0000
  C   C1056     1.0  0.83625  0.70894  0.46908  1.0000
  H   H1044     1.0  0.94415  0.73874  0.24428  1.0000
  C   C1057     1.0  0.90426  0.89884  0.31671  1.0000
  C   C1058     1.0  0.00676  0.70494  0.35113  1.0000
  H   H1045     1.0  0.82319  0.56630  0.19315  1.0000
  C   C1059     1.0  0.96366  0.92456  0.47692  1.0000
  H   H1046     1.0  0.87024  0.56863  0.17595  1.0000
  H   H1047     1.0  0.96119  0.94105  0.46125  1.0000
  C   C1060     1.0  0.86533  0.85036  0.50886  1.0000
  H   H1048     1.0  0.93796  0.67980  0.29032  1.0000
  N   N87       1.0  0.97332  0.93355  0.49945  1.0000
  N   N88       1.0  0.82328  0.66825  0.44446  1.0000
  H   H1049     1.0  0.80139  0.90125  0.50093  1.0000
  H   H1050     1.0  0.80979  0.70923  0.04936  1.0000
  C   C1061     1.0  0.86358  0.55013  0.18459  1.0000
  H   H1051     1.0  0.93049  0.71379  0.21185  1.0000
  S   S359      1.0  0.88928  0.92385  0.50968  1.0000
  C   C1062     1.0  0.91764  0.91984  0.30526  1.0000
  C   C1063     1.0  0.86583  0.54392  0.12036  1.0000
  H   H1052     1.0  0.83314  0.57423  0.12274  1.0000
  H   H1053     1.0  0.88306  0.89990  0.31681  1.0000
  N   N89       1.0  0.95851  0.89637  0.31719  1.0000
  C   C1064     1.0  0.94551  0.87567  0.32847  1.0000
  C   C1065     1.0  0.94494  0.91825  0.30561  1.0000
  C   C1066     1.0  0.91822  0.87654  0.32831  1.0000
  C   C1067     1.0  0.99981  0.93095  0.50146  1.0000
  H   H1054     1.0  0.78566  0.91408  0.29137  1.0000
  H   H1055     1.0  0.94350  0.62886  0.39147  1.0000
  H   H1056     1.0  0.95623  0.85840  0.33779  1.0000
  H   H1057     1.0  0.95506  0.93495  0.29721  1.0000
  N   N90       1.0  0.00899  0.63052  0.39189  1.0000
  C   C1068     1.0  0.82077  0.53668  0.13667  1.0000
  C   C1069     1.0  0.96228  0.62808  0.39914  1.0000
  H   H1058     1.0  0.80965  0.88601  0.29296  1.0000
  H   H1059     1.0  0.83199  0.85178  0.48684  1.0000
  H   H1060     1.0  0.96314  0.92175  0.37686  1.0000
  H   H1061     1.0  0.82221  0.64629  0.48227  1.0000
  C   C1070     1.0  0.89072  0.66093  0.49200  1.0000
  H   H1062     1.0  0.94557  0.62221  0.43953  1.0000
  C   C1071     1.0  0.93271  0.69669  0.22606  1.0000
  H   H1063     1.0  0.97759  0.90857  0.46869  1.0000
  S   S360      1.0  0.86126  0.68009  0.03763  1.0000
  C   C1072     1.0  0.83906  0.91337  0.50539  1.0000
  C   C1073     1.0  0.96802  0.95503  0.34802  1.0000
  C   C1074     1.0  0.93574  0.65284  0.26243  1.0000
  C   C1075     1.0  0.81741  0.64638  0.43145  1.0000
  H   H1064     1.0  0.86767  0.60247  0.51249  1.0000
  H   H1065     1.0  0.96597  0.98886  0.31949  1.0000
  H   H1066     1.0  0.77672  0.67379  0.14307  1.0000
  H   H1067     1.0  0.97622  0.68605  0.42241  1.0000
  H   H1068     1.0  0.93561  0.63599  0.27710  1.0000
  C   C1076     1.0  0.93667  0.67773  0.26985  1.0000
  H   H1069     1.0  0.91478  0.60122  0.06434  1.0000
  C   C1077     1.0  0.83125  0.68530  0.48369  1.0000
  H   H1070     1.0  0.88697  0.59392  0.04967  1.0000
  C   C1078     1.0  0.83936  0.55360  0.12595  1.0000
  C   C1079     1.0  0.83717  0.54879  0.19420  1.0000
  C   C1080     1.0  0.98696  0.89521  0.31847  1.0000
  C   C1081     1.0  0.96889  0.69582  0.38204  1.0000
  H   H1071     1.0  0.90779  0.86017  0.33724  1.0000
  H   H1072     1.0  0.90159  0.52824  0.17694  1.0000
  H   H1073     1.0  0.94584  0.72456  0.27746  1.0000
  C   C1082     1.0  0.87504  0.61842  0.49927  1.0000
  H   H1074     1.0  0.82696  0.69406  0.40900  1.0000
  H   H1075     1.0  0.80171  0.63600  0.44352  1.0000
  H   H1076     1.0  0.01864  0.76649  0.40169  1.0000
  H   H1077     1.0  0.83861  0.73027  0.43031  1.0000
  H   H1078     1.0  0.87319  0.86665  0.49652  1.0000
  C   C1083     1.0  0.98536  0.63117  0.38214  1.0000
  H   H1079     1.0  0.94432  0.91684  0.48277  1.0000
  H   H1080     1.0  0.80801  0.52356  0.21084  1.0000
  H   H1081     1.0  0.98411  0.63467  0.36114  1.0000
  H   H1082     1.0  0.98877  0.62062  0.45699  1.0000
  C   C1084     1.0  0.95587  0.94570  0.51765  1.0000
  H   H1083     1.0  0.99758  0.87727  0.31062  1.0000
  H   H1084     1.0  0.89203  0.01242  0.37833  1.0000
  H   H1085     1.0  0.80847  0.66171  0.04868  1.0000
  C   C1085     1.0  0.78872  0.89263  0.28996  1.0000
  H   H1086     1.0  0.01529  0.71023  0.33122  1.0000
  C   C1086     1.0  0.83194  0.82081  0.51884  1.0000
  C   C1087     1.0  0.01190  0.69312  0.39737  1.0000
  H   H1087     1.0  0.78533  0.88887  0.26999  1.0000
  H   H1088     1.0  0.93890  0.01327  0.37268  1.0000
  C   C1088     1.0  0.82872  0.52455  0.20412  1.0000
  C   C1089     1.0  0.01043  0.62627  0.41841  1.0000
  C   C1090     1.0  0.00940  0.93997  0.52251  1.0000
  H   H1089     1.0  0.01370  0.92184  0.48675  1.0000
  S   S361      1.0  0.77255  0.62494  0.12250  1.0000
  N   N91       1.0  0.77068  0.87918  0.30976  1.0000
  H   H1090     1.0  0.91517  0.64507  0.04318  1.0000
  C   C1091     1.0  0.91838  0.63719  0.02433  1.0000
  Fe  Fe181     1.0  0.88022  0.91876  0.55347  1.0000
  S   S362      1.0  0.86947  0.95304  0.57674  1.0000
  Fe  Fe182     1.0  0.88746  0.88103  0.60213  1.0000
  S   S363      1.0  0.87671  0.91232  0.62911  1.0000
  S   S364      1.0  0.90686  0.84173  0.61600  1.0000
  Fe  Fe183     1.0  0.84390  0.92606  0.60339  1.0000
  S   S365      1.0  0.80199  0.94075  0.62055  1.0000
  Fe  Fe184     1.0  0.90323  0.93535  0.59958  1.0000
  S   S366      1.0  0.93665  0.95639  0.60896  1.0000
  S   S367      1.0  0.85322  0.89253  0.57844  1.0000
  S   S368      1.0  0.91528  0.90329  0.57420  1.0000
  Fe  Fe185     1.0  0.88432  0.66408  0.57569  1.0000
  S   S369      1.0  0.89768  0.70400  0.56812  1.0000
  C   C1092     1.0  0.92377  0.65410  0.00156  1.0000
  Fe  Fe186     1.0  0.88370  0.66275  0.63641  1.0000
  S   S370      1.0  0.89735  0.70227  0.63281  1.0000
  S   S371      1.0  0.87253  0.64110  0.67669  1.0000
  Fe  Fe187     1.0  0.86878  0.71339  0.60286  1.0000
  S   S372      1.0  0.84120  0.75047  0.60369  1.0000
  Fe  Fe188     1.0  0.92499  0.68887  0.59861  1.0000
  S   S373      1.0  0.96616  0.70003  0.59303  1.0000
  S   S374      1.0  0.85293  0.67471  0.60854  1.0000
  S   S375      1.0  0.91383  0.64797  0.60425  1.0000
  Fe  Fe189     1.0  0.86009  0.66192  0.82757  1.0000
  S   S376      1.0  0.81815  0.65513  0.82665  1.0000
  S   S377      1.0  0.88376  0.67625  0.78898  1.0000
  Fe  Fe190     1.0  0.85742  0.64727  0.88810  1.0000
  S   S378      1.0  0.81550  0.63928  0.89073  1.0000
  S   S379      1.0  0.87653  0.63666  0.92639  1.0000
  Fe  Fe191     1.0  0.82744  0.61951  0.85434  1.0000
  S   S380      1.0  0.80857  0.58362  0.85076  1.0000
  Fe  Fe192     1.0  0.80961  0.67555  0.86313  1.0000
  C   C1093     1.0  0.97823  0.91706  0.60054  1.0000
  S   S381      1.0  0.87032  0.62434  0.85298  1.0000
  S   S382      1.0  0.85093  0.68559  0.86261  1.0000
  C   C1094     1.0  0.86481  0.64994  0.95652  1.0000
  C   C1095     1.0  0.86006  0.63298  0.97963  1.0000
  C   C1096     1.0  0.98702  0.67391  0.71124  1.0000
  C   C1097     1.0  0.94159  0.63485  0.68537  1.0000
  C   C1098     1.0  0.86316  0.68553  0.98375  1.0000
  C   C1099     1.0  0.86567  0.67642  0.95877  1.0000
  H   H1091     1.0  0.85974  0.61240  0.97817  1.0000
  H   H1092     1.0  0.92909  0.65782  0.95916  1.0000
  H   H1093     1.0  0.86507  0.70584  0.98514  1.0000
  H   H1094     1.0  0.86986  0.68963  0.94127  1.0000
  N   N92       1.0  0.82431  0.69709  0.69169  1.0000
  C   C1100     1.0  0.84459  0.55816  0.88260  1.0000
  H   H1095     1.0  0.91514  0.58205  0.99736  1.0000
  H   H1096     1.0  0.86555  0.52564  0.83591  1.0000
  C   C1101     1.0  0.82232  0.55658  0.87014  1.0000
  H   H1097     1.0  0.83117  0.71323  0.65168  1.0000
  C   C1102     1.0  0.87508  0.65199  0.70757  1.0000
  C   C1103     1.0  0.86330  0.63869  0.73055  1.0000
  C   C1104     1.0  0.86542  0.64615  0.75554  1.0000
  C   C1105     1.0  0.87985  0.66669  0.75788  1.0000
  C   C1106     1.0  0.89183  0.67987  0.73490  1.0000
  C   C1107     1.0  0.88917  0.67283  0.70985  1.0000
  H   H1098     1.0  0.85253  0.62242  0.72907  1.0000
  H   H1099     1.0  0.85624  0.63571  0.77305  1.0000
  H   H1100     1.0  0.90310  0.69573  0.73651  1.0000
  H   H1101     1.0  0.89846  0.68320  0.69241  1.0000
  C   C1108     1.0  0.98632  0.68104  0.61466  1.0000
  H   H1102     1.0  0.97370  0.64436  0.60868  1.0000
  C   C1109     1.0  0.91822  0.60210  0.99875  1.0000
  H   H1103     1.0  0.83600  0.91106  0.52660  1.0000
  H   H1104     1.0  0.96560  0.66504  0.66927  1.0000
  H   H1105     1.0  0.78653  0.90491  0.58649  1.0000
  C   C1110     1.0  0.85964  0.66838  0.00684  1.0000
  H   H1106     1.0  0.91826  0.60622  0.70726  1.0000
  N   N93       1.0  0.96716  0.65618  0.71047  1.0000
  H   H1107     1.0  0.87405  0.53702  0.90574  1.0000
  H   H1108     1.0  0.96406  0.90570  0.59503  1.0000
  C   C1111     1.0  0.99174  0.95218  0.54126  1.0000
  C   C1112     1.0  0.88805  0.81660  0.61355  1.0000
  C   C1113     1.0  0.90082  0.79149  0.61097  1.0000
  C   C1114     1.0  0.88639  0.77129  0.60763  1.0000
  C   C1115     1.0  0.85906  0.77594  0.60766  1.0000
  C   C1116     1.0  0.84616  0.80104  0.61051  1.0000
  C   C1117     1.0  0.86073  0.82149  0.61319  1.0000
  H   H1109     1.0  0.92200  0.78774  0.61094  1.0000
  H   H1110     1.0  0.89661  0.75223  0.60461  1.0000
  H   H1111     1.0  0.82500  0.80469  0.61049  1.0000
  H   H1112     1.0  0.85080  0.84090  0.61532  1.0000
  H   H1113     1.0  0.78912  0.98584  0.57474  1.0000
  C   C1118     1.0  0.93236  0.61989  0.70817  1.0000
  N   N94       1.0  0.96877  0.86695  0.65241  1.0000
  C   C1119     1.0  0.95810  0.64168  0.73298  1.0000
  C   C1120     1.0  0.99053  0.89913  0.66856  1.0000
  C   C1121     1.0  0.83892  0.72020  0.72386  1.0000
  H   H1114     1.0  0.92424  0.61137  0.95652  1.0000
  H   H1115     1.0  0.00451  0.61780  0.63761  1.0000
  C   C1122     1.0  0.77121  0.93055  0.61599  1.0000
  C   C1123     1.0  0.84584  0.73571  0.67779  1.0000
  H   H1116     1.0  0.92457  0.67469  0.00290  1.0000
  C   C1124     1.0  0.94034  0.62354  0.73222  1.0000
  H   H1117     1.0  0.90338  0.84507  0.55718  1.0000
  H   H1118     1.0  0.00284  0.71426  0.62447  1.0000
  N   N95       1.0  0.91589  0.61150  0.02273  1.0000
  C   C1125     1.0  0.84878  0.73819  0.70387  1.0000
  C   C1126     1.0  0.97014  0.94232  0.60764  1.0000
  H   H1119     1.0  0.85880  0.75392  0.70858  1.0000
  H   H1120     1.0  0.97017  0.84556  0.61973  1.0000
  C   C1127     1.0  0.98902  0.95659  0.61489  1.0000
  C   C1128     1.0  0.92358  0.61849  0.97558  1.0000
  H   H1121     1.0  0.98752  0.82852  0.64632  1.0000
  H   H1122     1.0  0.96642  0.93503  0.67642  1.0000
  H   H1123     1.0  0.98499  0.68191  0.73053  1.0000
  C   C1129     1.0  0.96692  0.91564  0.67036  1.0000
  C   C1130     1.0  0.85723  0.64216  0.00466  1.0000
  H   H1124     1.0  0.93485  0.63271  0.66671  1.0000
  H   H1125     1.0  0.83784  0.79153  0.55179  1.0000
  S   S383      1.0  0.77148  0.70059  0.87273  1.0000
  H   H1126     1.0  0.99891  0.95929  0.55770  1.0000
  C   C1131     1.0  0.98651  0.65387  0.61863  1.0000
  C   C1132     1.0  0.83334  0.71500  0.67203  1.0000
  C   C1133     1.0  0.92627  0.64466  0.97706  1.0000
  C   C1134     1.0  0.81117  0.67557  0.68529  1.0000
  C   C1135     1.0  0.94556  0.88306  0.65404  1.0000
  H   H1127     1.0  0.96439  0.64423  0.75172  1.0000
  H   H1128     1.0  0.93253  0.61266  0.75019  1.0000
  H   H1129     1.0  0.95218  0.83201  0.64941  1.0000
  C   C1136     1.0  0.00313  0.69321  0.62732  1.0000
  C   C1137     1.0  0.82652  0.69974  0.71738  1.0000
  H   H1130     1.0  0.98308  0.97611  0.62048  1.0000
  H   H1131     1.0  0.92606  0.92072  0.66348  1.0000
  C   C1138     1.0  0.95890  0.65315  0.68695  1.0000
  H   H1132     1.0  0.95089  0.96460  0.55335  1.0000
  H   H1133     1.0  0.00709  0.66325  0.70765  1.0000
  C   C1139     1.0  0.01526  0.94532  0.61647  1.0000
  H   H1134     1.0  0.85292  0.57643  0.88115  1.0000
  H   H1135     1.0  0.81923  0.66965  0.66556  1.0000
  C   C1140     1.0  0.94426  0.90759  0.66310  1.0000
  H   H1136     1.0  0.85333  0.74960  0.66202  1.0000
  H   H1137     1.0  0.81946  0.68551  0.73301  1.0000
  H   H1138     1.0  0.78966  0.68149  0.68564  1.0000
  C   C1141     1.0  0.99115  0.87475  0.65936  1.0000
  H   H1139     1.0  0.98509  0.69080  0.69588  1.0000
  H   H1140     1.0  0.81477  0.65787  0.69940  1.0000
  H   H1141     1.0  0.90241  0.86875  0.52907  1.0000
  H   H1142     1.0  0.84151  0.72160  0.74422  1.0000
  H   H1143     1.0  0.79400  0.53174  0.86309  1.0000
  C   C1142     1.0  0.96984  0.84201  0.64144  1.0000
  H   H1144     1.0  0.85446  0.62870  0.02219  1.0000
  S   S384      1.0  0.87390  0.64117  0.54410  1.0000
  H   H1145     1.0  0.87907  0.80701  0.56039  1.0000
  C   C1143     1.0  0.77077  0.98077  0.56951  1.0000
  H   H1146     1.0  0.92804  0.87719  0.64774  1.0000
  C   C1144     1.0  0.85646  0.53589  0.89664  1.0000
  C   C1145     1.0  0.00452  0.90581  0.60206  1.0000
  H   H1147     1.0  0.01876  0.69037  0.56645  1.0000
  C   C1146     1.0  0.84534  0.80815  0.53956  1.0000
  C   C1147     1.0  0.00396  0.63886  0.63493  1.0000
  C   C1148     1.0  0.81136  0.53297  0.87252  1.0000
  C   C1149     1.0  0.86854  0.81712  0.54455  1.0000
  C   C1150     1.0  0.77161  0.96475  0.54937  1.0000
  H   H1148     1.0  0.79036  0.95767  0.53904  1.0000
  C   C1151     1.0  0.90201  0.84758  0.53563  1.0000
  C   C1152     1.0  0.96480  0.95514  0.53883  1.0000
  N   N96       1.0  0.87781  0.83841  0.52976  1.0000
  H   H1149     1.0  0.00857  0.90561  0.67303  1.0000
  H   H1150     1.0  0.91948  0.83642  0.52567  1.0000
  H   H1151     1.0  0.01007  0.88570  0.59819  1.0000
  H   H1152     1.0  0.00990  0.86261  0.65696  1.0000
