data_image0
_chemical_formula_structural       CHSFeS2Fe2HCHS2HCS2H2FeH3C8H3SCHSCHC3H2CSC6H4Fe2CH2SC2HCSNC3H2CH5CFeHCH3C2H9C3HC2HNSNH2C2HC2H2SH3CHCHFeS2FeSCSH2SH2SFeSHSFeS2HFeSCHS2FeHSFeS2HFeHS2H2CHCHNH2C4SC3H2C7H4C6H2CH3SHS2H3CHC2HC6HC3HC2HNCHCSCHCHCH2C3NH6CHC2Fe2H3NC6HCHSH3CHNH3C3H3CFe2SC4HC2HFeCHCFe2HSHCNCNHFeS2Fe2H2CS2HCS2H2FeC10H4CSH3C2NHSC2H3C3SCH2NC6H8SFeHNC4HC2H3CH5S2HS2HCH5SC3HC2SNCHFe2S2FeSHSFeS2NCSFeSCHFeS2HFeSFeS3FeCSFeS2CFeS3C7H4C2HSCH4C6H4C6HCH2C4NH2CH2FeCFeH4CH3CHCH2C3NC6H9C3SHCHCH4CHC2HCHNH3CHS2HC2H3S2HCSNFeHCH2FeHSC2NH2CFeS2FeS2FeSFeHS2HCSCH2CH3C3HCSC6H5C2HCHCHSH2C6H3C6H4C2HCH3CHFeCH2C2HC3SCH2C3NH2CHNHSHCSH2SCHNHCH6C4HCH4CHC2SHSCH2CFeHCNCFeSCFeHSFeS2CH2CFeCFeHSHS2H2SCHSC2H2SHSH2CHCSC3SCH6CH7C2H2C3HCSC4HC6H3CSHSFeCH4FeCH3SFeH2NC2NC3HCHCHCHCHCFeCSC2HFeC3S2NCHNHC4HSCHFeHFeNS2HSC2HFeCSFeS2FeHFeHS2CSHSC4H3CH3C7H5C2H2C3H2SC6H4C2HCHCSC2SHC2NCN2HC2H3SH3SC3NC6H2CHCH3CHC2NHCHC2H3FeC2H3C6H4SH2FeSCHCH3FeCSCSHSFe2SCFeS2CHSH3FeHSFeCH2FeSC3HC2H2FeSH2SFeCFeC5H3C2HC5H2CH3C4HCNHCNHC5S2CH2CSH2CHSHC2HFeHSCHCH3SH3C2H2S2CSCSC2H3SH4NC6NCH2C3SH3C3HFeCH2CHNH2C2HC2SHC2HCHC3FeC2H2CH6CHCFeSHCFeS2FeSH2FeS2CSFeSHFe3SC2FeS2HSH2SH3C2FeS2Fe2H2CNCHCH2SC2HSC3HCHC4H4C6H4C3HCH3SC7H5C3H3S2NC2NH2NC4SCH3SCH3CHCHCFeHSFeSFeCHSHFeH2CH7NSC2FeHCHC2S2H2SH2FeS3HNCS2FeHS3FeHCH3C6H4C2H4CHCFeCH2CHFeC4HCHCHCHCS2H2CNH5CFeH2NC6HCH5SC3H2CSCH3CSC3NSCFeS2FeSH2FeS2HSFeSHFeHFeSCHFeS2HC2HSC2HFeC2S2NFeSC2SHCSC3SC2H2C2H2C3H2SFeH2C6H5SHC2HC2FeC6HCH2C2HCHCSHC3H2C3H4CHNH2C4H6SCHCHCH5NC5HC4HFeHNCNHCSHC4HSH2FeSHCHFeH3CSHFeHSFeHCHCSH2Fe2S2FeHFeHS2H2SHSCH3CHC6H7FeH2CHNCH2CSH2C3HC2H2CH2CNCHC2HSN2HC4H2CH3CH3C2S2HC2NC2HC7HC7H4C3H5FeCFeS2HCHC2HCHCS2FeS2CHCHSFeS2FeCSFeS2Fe2CFeS3H2NC4H2CFeC2HCHCSHCH2CHC6H2CHC6H4C2SHCHSHSHCHCHCHCH2C2HFeHSH2C2HC2H2C3HNHFeHCNH3C2SC2H2C6NCSH2CSHNCH2C3H2SHSH3SCNC2H6CFeCHC2H2NH2CHC2HCFeHSHS2HS2FeS2FeCSFeSFeCS2H3CHC6HC8H6C4H2SCSHC6H4C2HC2HNHC3SNC2HC2H3CHSCHC2H2CH2CHNH4C2HC2H5CH2FeHC2HC4H3CHCNCHSHC3H2CHFeS2C3FeHCNCHSHFeSH2NCHCFeS2FeS2FeS2FeH2C2S2CSCH3CHCSC2HCHC3H2C2H2CH2C4SH2C6H4SHCHC3HCHFeHC2SCH2CHCSHC2HC2H2FeC2NH2SH2CSHNCHFe2HNCHCSC3H6CH2CH2C5HCHFe2HSCS2H2SFeS2FeSHFeHFeS3CHCHCH7FeHC6H5C2H2C3H2CHC6H4C6HCH2C2HNHC5NCH3SCH3CNSCH3CH2CHN2CH2NCHCSC2H3CSCH2CH3C3SCHCHCH
_chemical_formula_sum              "C960 H960 S320 Fe160 N80"
_cell_length_a       53.949
_cell_length_b       41.2366
_cell_length_c       53.6272
_cell_angle_alpha    90.0048
_cell_angle_beta     91.5203
_cell_angle_gamma    90.4442

_space_group_name_H-M_alt    "P 1"
_space_group_IT_number       1

loop_
  _space_group_symop_operation_xyz
  'x, y, z'

loop_
  _atom_site_type_symbol
  _atom_site_label
  _atom_site_symmetry_multiplicity
  _atom_site_fract_x
  _atom_site_fract_y
  _atom_site_fract_z
  _atom_site_occupancy
  C   C1        1.0  0.07065  0.23738  0.13592  1.0000
  H   H1        1.0  0.03916  0.50245  0.16938  1.0000
  S   S1        1.0  0.23172  0.33245  0.07680  1.0000
  Fe  Fe1       1.0  0.21357  0.08195  0.30759  1.0000
  S   S2        1.0  0.23340  0.09760  0.27335  1.0000
  S   S3        1.0  0.17777  0.05311  0.30289  1.0000
  Fe  Fe2       1.0  0.25479  0.10827  0.34307  1.0000
  Fe  Fe3       1.0  0.24189  0.14340  0.29450  1.0000
  H   H2        1.0  0.26521  0.14428  0.48613  1.0000
  C   C2        1.0  0.27760  0.36302  0.08323  1.0000
  H   H3        1.0  0.07071  0.15614  0.14610  1.0000
  S   S4        1.0  0.21931  0.12947  0.32741  1.0000
  S   S5        1.0  0.24707  0.05891  0.32643  1.0000
  H   H4        1.0  0.03545  0.42895  0.21657  1.0000
  C   C3        1.0  0.26205  0.20917  0.26198  1.0000
  S   S6        1.0  0.08410  0.11304  0.24505  1.0000
  S   S7        1.0  0.07583  0.32545  0.12086  1.0000
  H   H5        1.0  0.25458  0.04814  0.23595  1.0000
  H   H6        1.0  0.04964  0.10004  0.28656  1.0000
  Fe  Fe4       1.0  0.21674  0.34509  0.03783  1.0000
  H   H7        1.0  0.07515  0.49023  0.25088  1.0000
  H   H8        1.0  0.22606  0.06148  0.22106  1.0000
  H   H9        1.0  0.20053  0.04117  0.25414  1.0000
  C   C4        1.0  0.26537  0.45556  0.27111  1.0000
  C   C5        1.0  0.15209  0.06991  0.28631  1.0000
  C   C6        1.0  0.13105  0.05048  0.28116  1.0000
  C   C7        1.0  0.11023  0.06321  0.26822  1.0000
  C   C8        1.0  0.11023  0.09563  0.26049  1.0000
  C   C9        1.0  0.13131  0.11501  0.26558  1.0000
  C   C10       1.0  0.15222  0.10219  0.27829  1.0000
  C   C11       1.0  0.25946  0.33918  0.11973  1.0000
  H   H10       1.0  0.09414  0.04801  0.26440  1.0000
  H   H11       1.0  0.13149  0.14010  0.25969  1.0000
  H   H12       1.0  0.16829  0.11742  0.28216  1.0000
  S   S8        1.0  0.27760  0.12529  0.31118  1.0000
  C   C12       1.0  0.11030  0.34935  0.04589  1.0000
  H   H13       1.0  0.08402  0.19679  0.11500  1.0000
  S   S9        1.0  0.04741  0.05791  0.19513  1.0000
  C   C13       1.0  0.27317  0.26445  0.10251  1.0000
  H   H14       1.0  0.24429  0.32644  0.12832  1.0000
  C   C14       1.0  0.25808  0.40905  0.19014  1.0000
  C   C15       1.0  0.03182  0.15757  0.27848  1.0000
  C   C16       1.0  0.28008  0.25932  0.12753  1.0000
  H   H15       1.0  0.04194  0.23134  0.19122  1.0000
  H   H16       1.0  0.07653  0.25542  0.12249  1.0000
  C   C17       1.0  0.23884  0.04062  0.22342  1.0000
  S   S10       1.0  0.03210  0.04222  0.25326  1.0000
  C   C18       1.0  0.11022  0.49885  0.27022  1.0000
  C   C19       1.0  0.12536  0.34177  0.06666  1.0000
  C   C20       1.0  0.11458  0.33433  0.08956  1.0000
  C   C21       1.0  0.08873  0.33432  0.09177  1.0000
  C   C22       1.0  0.07365  0.34145  0.07089  1.0000
  C   C23       1.0  0.08448  0.50045  0.26730  1.0000
  H   H17       1.0  0.14533  0.34193  0.06518  1.0000
  H   H18       1.0  0.12632  0.32878  0.10564  1.0000
  H   H19       1.0  0.05371  0.34137  0.07240  1.0000
  H   H20       1.0  0.27220  0.47665  0.38011  1.0000
  Fe  Fe5       1.0  0.26713  0.07780  0.29322  1.0000
  Fe  Fe6       1.0  0.05108  0.08221  0.23255  1.0000
  C   C24       1.0  0.26211  0.24181  0.25463  1.0000
  H   H21       1.0  0.14192  0.51171  0.29369  1.0000
  H   H22       1.0  0.26730  0.02802  0.46416  1.0000
  S   S11       1.0  0.19445  0.39038  0.03016  1.0000
  C   C25       1.0  0.26516  0.11870  0.48141  1.0000
  C   C26       1.0  0.24466  0.40421  0.16783  1.0000
  H   H23       1.0  0.27664  0.36867  0.06352  1.0000
  C   C27       1.0  0.25784  0.34671  0.09420  1.0000
  S   S12       1.0  0.23750  0.19418  0.27958  1.0000
  N   N1        1.0  0.05560  0.19135  0.17042  1.0000
  C   C28       1.0  0.06723  0.18167  0.14934  1.0000
  C   C29       1.0  0.05137  0.22357  0.17465  1.0000
  C   C30       1.0  0.07482  0.20449  0.13172  1.0000
  H   H24       1.0  0.05551  0.27260  0.16080  1.0000
  H   H25       1.0  0.25770  0.19315  0.32886  1.0000
  C   C31       1.0  0.04901  0.16713  0.18918  1.0000
  H   H26       1.0  0.23573  0.12014  0.42497  1.0000
  H   H27       1.0  0.03710  0.46410  0.12111  1.0000
  H   H28       1.0  0.06530  0.16196  0.20167  1.0000
  H   H29       1.0  0.25363  0.15189  0.43918  1.0000
  H   H30       1.0  0.03727  0.44712  0.15229  1.0000
  C   C32       1.0  0.20691  0.01695  0.24980  1.0000
  Fe  Fe7       1.0  0.03419  0.32517  0.12272  1.0000
  H   H31       1.0  0.24574  0.06711  0.43632  1.0000
  C   C33       1.0  0.27359  0.20327  0.34001  1.0000
  H   H32       1.0  0.24845  0.44266  0.27532  1.0000
  H   H33       1.0  0.22414  0.14018  0.45216  1.0000
  H   H34       1.0  0.24379  0.41172  0.12820  1.0000
  C   C34       1.0  0.26729  0.48906  0.27589  1.0000
  C   C35       1.0  0.26609  0.05333  0.46949  1.0000
  H   H35       1.0  0.24671  0.25718  0.25920  1.0000
  H   H36       1.0  0.07270  0.35484  0.03199  1.0000
  H   H37       1.0  0.27672  0.43347  0.10547  1.0000
  H   H38       1.0  0.22703  0.39137  0.16779  1.0000
  H   H39       1.0  0.25484  0.25742  0.09547  1.0000
  H   H40       1.0  0.13079  0.02550  0.28731  1.0000
  H   H41       1.0  0.04296  0.10685  0.31889  1.0000
  H   H42       1.0  0.05006  0.15364  0.27101  1.0000
  H   H43       1.0  0.26709  0.24745  0.13972  1.0000
  C   C36       1.0  0.26975  0.49432  0.36463  1.0000
  C   C37       1.0  0.27733  0.09704  0.49755  1.0000
  C   C38       1.0  0.25409  0.07564  0.45376  1.0000
  H   H44       1.0  0.25188  0.50185  0.28367  1.0000
  C   C39       1.0  0.05886  0.24703  0.15749  1.0000
  C   C40       1.0  0.08444  0.34903  0.04802  1.0000
  H   H45       1.0  0.25098  0.40021  0.20768  1.0000
  N   N2        1.0  0.25383  0.10789  0.45980  1.0000
  S   S13       1.0  0.18556  0.31122  0.02571  1.0000
  N   N3        1.0  0.27681  0.43130  0.14540  1.0000
  H   H46       1.0  0.24620  0.03491  0.20478  1.0000
  H   H47       1.0  0.12119  0.48767  0.25594  1.0000
  C   C41       1.0  0.24111  0.13115  0.44330  1.0000
  C   C42       1.0  0.03457  0.10491  0.29982  1.0000
  H   H48       1.0  0.26602  0.48035  0.34717  1.0000
  C   C43       1.0  0.25425  0.41585  0.14550  1.0000
  C   C44       1.0  0.27779  0.06418  0.49147  1.0000
  H   H49       1.0  0.03344  0.17552  0.20061  1.0000
  H   H50       1.0  0.25333  0.50957  0.36833  1.0000
  S   S14       1.0  0.26777  0.12581  0.38146  1.0000
  H   H51       1.0  0.26628  0.21957  0.35451  1.0000
  H   H52       1.0  0.04280  0.14405  0.18015  1.0000
  H   H53       1.0  0.26741  0.26263  0.32156  1.0000
  C   C45       1.0  0.12183  0.51204  0.29150  1.0000
  H   H54       1.0  0.24720  0.31027  0.75995  1.0000
  C   C46       1.0  0.27177  0.07836  0.78561  1.0000
  H   H55       1.0  0.07175  0.48006  0.89579  1.0000
  Fe  Fe8       1.0  0.21052  0.38750  0.99178  1.0000
  S   S15       1.0  0.23483  0.34445  0.00011  1.0000
  S   S16       1.0  0.21558  0.43070  0.96632  1.0000
  Fe  Fe9       1.0  0.20156  0.31454  0.98773  1.0000
  S   S17       1.0  0.19943  0.27661  0.95742  1.0000
  C   C47       1.0  0.17539  0.40631  0.75030  1.0000
  S   S18       1.0  0.17895  0.35742  0.97687  1.0000
  H   H56       1.0  0.11545  0.27897  0.00655  1.0000
  H   H57       1.0  0.11995  0.27525  0.78910  1.0000
  S   S19       1.0  0.23940  0.20511  0.68776  1.0000
  H   H58       1.0  0.23120  0.36484  0.76975  1.0000
  H   H59       1.0  0.05804  0.04448  0.80467  1.0000
  S   S20       1.0  0.26760  0.27358  0.70250  1.0000
  Fe  Fe10      1.0  0.22901  0.25289  0.70487  1.0000
  S   S21       1.0  0.19459  0.27903  0.69069  1.0000
  H   H60       1.0  0.21000  0.33167  0.91540  1.0000
  S   S22       1.0  0.23358  0.23602  0.74452  1.0000
  Fe  Fe11      1.0  0.09274  0.36804  0.77619  1.0000
  S   S23       1.0  0.09140  0.38775  0.81523  1.0000
  S   S24       1.0  0.12905  0.34072  0.77479  1.0000
  H   H61       1.0  0.13600  0.31211  0.97727  1.0000
  Fe  Fe12      1.0  0.07697  0.43334  0.79806  1.0000
  S   S25       1.0  0.09403  0.48238  0.80735  1.0000
  C   C48       1.0  0.03748  0.02435  0.93100  1.0000
  H   H62       1.0  0.20800  0.25997  0.63855  1.0000
  S   S26       1.0  0.08075  0.41525  0.75879  1.0000
  S   S27       1.0  0.05393  0.34743  0.77630  1.0000
  Fe  Fe13      1.0  0.07681  0.10531  0.89833  1.0000
  H   H63       1.0  0.24265  0.07550  0.75730  1.0000
  S   S28       1.0  0.08395  0.05157  0.89333  1.0000
  Fe  Fe14      1.0  0.08839  0.16177  0.93399  1.0000
  S   S29       1.0  0.06271  0.19516  0.91336  1.0000
  S   S30       1.0  0.10725  0.18170  0.96887  1.0000
  H   H64       1.0  0.26876  0.18258  0.63529  1.0000
  Fe  Fe15      1.0  0.07918  0.17421  0.87913  1.0000
  H   H65       1.0  0.26744  0.15453  0.59414  1.0000
  S   S31       1.0  0.06064  0.12080  0.93474  1.0000
  S   S32       1.0  0.10693  0.14338  0.89992  1.0000
  H   H66       1.0  0.25837  0.47790  0.89574  1.0000
  H   H67       1.0  0.22197  0.46658  0.92150  1.0000
  C   C49       1.0  0.09305  0.26484  0.94864  1.0000
  H   H68       1.0  0.23001  0.37586  0.83735  1.0000
  C   C50       1.0  0.07658  0.24432  0.84871  1.0000
  H   H69       1.0  0.17792  0.48725  0.81446  1.0000
  N   N4        1.0  0.16612  0.45245  0.78667  1.0000
  H   H70       1.0  0.21824  0.36920  0.93129  1.0000
  H   H71       1.0  0.15963  0.50462  0.91834  1.0000
  C   C51       1.0  0.25911  0.32786  0.76936  1.0000
  C   C52       1.0  0.15110  0.41359  0.75638  1.0000
  C   C53       1.0  0.19006  0.44579  0.78061  1.0000
  C   C54       1.0  0.06912  0.04818  0.84354  1.0000
  S   S33       1.0  0.03711  0.41808  0.80063  1.0000
  C   C55       1.0  0.12552  0.30031  0.96227  1.0000
  C   C56       1.0  0.08086  0.48069  0.85685  1.0000
  C   C57       1.0  0.26299  0.37025  0.90193  1.0000
  H   H72       1.0  0.08888  0.25774  0.90871  1.0000
  H   H73       1.0  0.08451  0.29198  0.99841  1.0000
  C   C58       1.0  0.08937  0.49945  0.83705  1.0000
  C   C59       1.0  0.17677  0.29835  0.71348  1.0000
  C   C60       1.0  0.15302  0.31019  0.70722  1.0000
  C   C61       1.0  0.13813  0.32402  0.72561  1.0000
  C   C62       1.0  0.14699  0.32592  0.75033  1.0000
  C   C63       1.0  0.17087  0.31469  0.75638  1.0000
  C   C64       1.0  0.18572  0.30120  0.73805  1.0000
  H   H74       1.0  0.14597  0.30820  0.68820  1.0000
  H   H75       1.0  0.11972  0.33261  0.72077  1.0000
  H   H76       1.0  0.17795  0.31631  0.77542  1.0000
  H   H77       1.0  0.20413  0.29298  0.74304  1.0000
  C   C65       1.0  0.17483  0.24851  0.96063  1.0000
  C   C66       1.0  0.16412  0.23337  0.93947  1.0000
  C   C67       1.0  0.14353  0.21245  0.94173  1.0000
  C   C68       1.0  0.13392  0.20608  0.96524  1.0000
  C   C69       1.0  0.14510  0.22049  0.98640  1.0000
  C   C70       1.0  0.16533  0.24180  0.98409  1.0000
  H   H78       1.0  0.17143  0.23828  0.92126  1.0000
  H   H79       1.0  0.13505  0.20143  0.92528  1.0000
  C   C71       1.0  0.22700  0.36195  0.87621  1.0000
  H   H80       1.0  0.17381  0.25254  0.00057  1.0000
  H   H81       1.0  0.19341  0.18027  0.76417  1.0000
  H   H82       1.0  0.20556  0.45808  0.78997  1.0000
  S   S34       1.0  0.05044  0.13477  0.87464  1.0000
  H   H83       1.0  0.10508  0.26176  0.76057  1.0000
  S   S35       1.0  0.09260  0.20744  0.84904  1.0000
  S   S36       1.0  0.23505  0.14052  0.73980  1.0000
  H   H84       1.0  0.06627  0.07408  0.84442  1.0000
  H   H85       1.0  0.14189  0.25222  0.73809  1.0000
  H   H86       1.0  0.17325  0.47271  0.95228  1.0000
  C   C72       1.0  0.19502  0.42272  0.76228  1.0000
  H   H87       1.0  0.14977  0.46522  0.82083  1.0000
  C   C73       1.0  0.07829  0.49474  0.88057  1.0000
  C   C74       1.0  0.09936  0.27479  0.99350  1.0000
  H   H88       1.0  0.05182  0.04228  0.93734  1.0000
  C   C75       1.0  0.09918  0.26989  0.92371  1.0000
  C   C76       1.0  0.26555  0.38185  0.78689  1.0000
  C   C77       1.0  0.07450  0.30072  0.83598  1.0000
  C   C78       1.0  0.23970  0.45607  0.92661  1.0000
  C   C79       1.0  0.24192  0.43655  0.94795  1.0000
  C   C80       1.0  0.05105  0.30343  0.84628  1.0000
  H   H89       1.0  0.08289  0.32125  0.82695  1.0000
  C   C81       1.0  0.11906  0.29022  0.91823  1.0000
  C   C82       1.0  0.25473  0.12487  0.76336  1.0000
  C   C83       1.0  0.23932  0.37431  0.85553  1.0000
  H   H90       1.0  0.10578  0.26980  0.83030  1.0000
  C   C84       1.0  0.07777  0.03149  0.86470  1.0000
  C   C85       1.0  0.08736  0.27140  0.83755  1.0000
  H   H91       1.0  0.26696  0.40862  0.97115  1.0000
  N   N5        1.0  0.13490  0.48122  0.94356  1.0000
  C   C86       1.0  0.06449  0.03135  0.82104  1.0000
  H   H92       1.0  0.23801  0.33411  0.93359  1.0000
  C   C87       1.0  0.05315  0.24695  0.85913  1.0000
  S   S37       1.0  0.26546  0.48474  0.84306  1.0000
  C   C88       1.0  0.22560  0.34823  0.92081  1.0000
  H   H93       1.0  0.12425  0.29373  0.89900  1.0000
  C   C89       1.0  0.25011  0.35884  0.77488  1.0000
  H   H94       1.0  0.21400  0.41747  0.75756  1.0000
  C   C90       1.0  0.22694  0.26166  0.63221  1.0000
  H   H95       1.0  0.07641  0.45531  0.85393  1.0000
  H   H96       1.0  0.12784  0.44201  0.77969  1.0000
  C   C91       1.0  0.16076  0.47658  0.80585  1.0000
  C   C92       1.0  0.13237  0.30556  0.93761  1.0000
  C   C93       1.0  0.25503  0.09141  0.76788  1.0000
  N   N6        1.0  0.23895  0.35984  0.89901  1.0000
  H   H97       1.0  0.17880  0.21871  0.73120  1.0000
  H   H98       1.0  0.04452  0.22599  0.86746  1.0000
  H   H99       1.0  0.17063  0.17642  0.80390  1.0000
  H   H100      1.0  0.09947  0.24028  0.78903  1.0000
  H   H101      1.0  0.14951  0.49654  0.79754  1.0000
  H   H102      1.0  0.25625  0.02930  0.92457  1.0000
  C   C94       1.0  0.25939  0.24468  0.60505  1.0000
  H   H103      1.0  0.16484  0.43519  0.98695  1.0000
  C   C95       1.0  0.13975  0.50394  0.92320  1.0000
  C   C96       1.0  0.14677  0.43675  0.77479  1.0000
  Fe  Fe16      1.0  0.24704  0.19007  0.72744  1.0000
  Fe  Fe17      1.0  0.05207  0.37036  0.81404  1.0000
  H   H104      1.0  0.13796  0.21538  0.00466  1.0000
  H   H105      1.0  0.13571  0.40087  0.74723  1.0000
  H   H106      1.0  0.14821  0.32086  0.93367  1.0000
  N   N7        1.0  0.13528  0.23267  0.77418  1.0000
  C   C97       1.0  0.14334  0.21204  0.79262  1.0000
  C   C98       1.0  0.14788  0.23528  0.75244  1.0000
  C   C99       1.0  0.16428  0.19279  0.78927  1.0000
  C   C100      1.0  0.16884  0.21640  0.74847  1.0000
  C   C101      1.0  0.17706  0.19497  0.76700  1.0000
  C   C102      1.0  0.11387  0.25343  0.77839  1.0000
  H   H107      1.0  0.13356  0.21042  0.81007  1.0000
  C   C103      1.0  0.23482  0.24225  0.61267  1.0000
  H   H108      1.0  0.27033  0.17128  0.77401  1.0000
  S   S38       1.0  0.25380  0.42045  0.79380  1.0000
  H   H109      1.0  0.09298  0.24938  0.99643  1.0000
  H   H110      1.0  0.22203  0.22529  0.60360  1.0000
  H   H111      1.0  0.07800  0.24828  0.95282  1.0000
  C   C104      1.0  0.10563  0.45342  0.96916  1.0000
  H   H112      1.0  0.26539  0.22948  0.58986  1.0000
  N   N8        1.0  0.10633  0.27980  0.96753  1.0000
  H   H113      1.0  0.23753  0.29842  0.65897  1.0000
  H   H114      1.0  0.27348  0.39485  0.84262  1.0000
  H   H115      1.0  0.08657  0.44816  0.97385  1.0000
  C   C105      1.0  0.26500  0.42338  0.95455  1.0000
  C   C106      1.0  0.27511  0.02057  0.92342  1.0000
  C   C107      1.0  0.15415  0.46741  0.95681  1.0000
  H   H116      1.0  0.09565  0.48581  0.93923  1.0000
  H   H117      1.0  0.17898  0.38779  0.73648  1.0000
  H   H118      1.0  0.20786  0.35408  0.87389  1.0000
  C   C108      1.0  0.11090  0.47460  0.94957  1.0000
  Fe  Fe18      1.0  0.27850  0.22402  0.68913  1.0000
  Fe  Fe19      1.0  0.27283  0.25337  0.74099  1.0000
  S   S39       1.0  0.12332  0.35957  0.01714  1.0000
  C   C109      1.0  0.27071  0.14537  0.77713  1.0000
  C   C110      1.0  0.26383  0.38491  0.85841  1.0000
  C   C111      1.0  0.04049  0.27660  0.85813  1.0000
  C   C112      1.0  0.26033  0.46246  0.91191  1.0000
  H   H119      1.0  0.27234  0.36910  0.92005  1.0000
  C   C113      1.0  0.27579  0.38287  0.88171  1.0000
  C   C114      1.0  0.12511  0.43919  0.98271  1.0000
  H   H120      1.0  0.12130  0.42288  0.99804  1.0000
  Fe  Fe20      1.0  0.04153  0.39645  0.76258  1.0000
  C   C115      1.0  0.14953  0.44616  0.97652  1.0000
  H   H121      1.0  0.27223  0.05244  0.78870  1.0000
  C   C116      1.0  0.24361  0.28320  0.64380  1.0000
  Fe  Fe21      1.0  0.16494  0.35617  0.01558  1.0000
  Fe  Fe22      1.0  0.03635  0.15299  0.91117  1.0000
  H   H122      1.0  0.03309  0.06726  0.89437  1.0000
  S   S40       1.0  0.03473  0.34003  0.84369  1.0000
  H   H123      1.0  0.12881  0.49686  0.90616  1.0000
  C   C117      1.0  0.26820  0.28448  0.63610  1.0000
  N   N9        1.0  0.27582  0.26520  0.61704  1.0000
  C   C118      1.0  0.20344  0.95911  0.25577  1.0000
  N   N10       1.0  0.08228  0.52901  0.30623  1.0000
  H   H124      1.0  0.27298  0.80247  0.10725  1.0000
  Fe  Fe23      1.0  0.20888  0.59016  0.30527  1.0000
  S   S41       1.0  0.23749  0.61019  0.27940  1.0000
  S   S42       1.0  0.17221  0.57553  0.28580  1.0000
  Fe  Fe24      1.0  0.24637  0.58999  0.34989  1.0000
  Fe  Fe25      1.0  0.24843  0.64322  0.31100  1.0000
  H   H125      1.0  0.18006  0.99417  0.27340  1.0000
  H   H126      1.0  0.26233  0.00371  0.29352  1.0000
  C   C119      1.0  0.19521  0.99037  0.26079  1.0000
  S   S43       1.0  0.21792  0.62607  0.33589  1.0000
  S   S44       1.0  0.23465  0.55217  0.32139  1.0000
  H   H127      1.0  0.10804  0.73377  0.03077  1.0000
  C   C120      1.0  0.12533  0.86122  0.04386  1.0000
  S   S45       1.0  0.06005  0.61999  0.29602  1.0000
  S   S46       1.0  0.09818  0.77882  0.07438  1.0000
  H   H128      1.0  0.23033  0.93064  0.23646  1.0000
  H   H129      1.0  0.04714  0.90485  0.19017  1.0000
  Fe  Fe26      1.0  0.26355  0.57471  0.29756  1.0000
  C   C121      1.0  0.27660  0.74477  0.27926  1.0000
  C   C122      1.0  0.03167  0.95088  0.17926  1.0000
  C   C123      1.0  0.09582  0.71262  0.03451  1.0000
  C   C124      1.0  0.18634  0.65203  0.25604  1.0000
  C   C125      1.0  0.14185  0.59125  0.28817  1.0000
  C   C126      1.0  0.12437  0.58432  0.26897  1.0000
  C   C127      1.0  0.09940  0.59344  0.27094  1.0000
  C   C128      1.0  0.09165  0.60998  0.29207  1.0000
  C   C129      1.0  0.10926  0.61770  0.31103  1.0000
  C   C130      1.0  0.13424  0.60827  0.30917  1.0000
  H   H130      1.0  0.13004  0.57114  0.25266  1.0000
  H   H131      1.0  0.08615  0.58745  0.25616  1.0000
  H   H132      1.0  0.10345  0.63053  0.32745  1.0000
  H   H133      1.0  0.14743  0.61351  0.32422  1.0000
  C   C131      1.0  0.10748  0.52703  0.30947  1.0000
  S   S47       1.0  0.27399  0.81162  0.05436  1.0000
  H   H134      1.0  0.06630  0.76384  0.03190  1.0000
  H   H135      1.0  0.20552  0.65733  0.22172  1.0000
  H   H136      1.0  0.17776  0.62902  0.25082  1.0000
  C   C132      1.0  0.15423  0.81809  0.03635  1.0000
  C   C133      1.0  0.18244  0.66519  0.27955  1.0000
  N   N11       1.0  0.22616  0.01248  0.23406  1.0000
  H   H137      1.0  0.25052  0.97839  0.21771  1.0000
  S   S48       1.0  0.03305  0.96623  0.20996  1.0000
  C   C134      1.0  0.03924  0.91896  0.17496  1.0000
  C   C135      1.0  0.06756  0.54432  0.32550  1.0000
  H   H138      1.0  0.05020  0.55467  0.31735  1.0000
  H   H139      1.0  0.05069  0.51663  0.28319  1.0000
  H   H140      1.0  0.26959  0.76123  0.29307  1.0000
  C   C136      1.0  0.13846  0.79605  0.04802  1.0000
  C   C137      1.0  0.11613  0.80653  0.05776  1.0000
  C   C138      1.0  0.10929  0.83905  0.05530  1.0000
  S   S49       1.0  0.05303  0.82315  0.12145  1.0000
  C   C139      1.0  0.07070  0.51555  0.28566  1.0000
  H   H141      1.0  0.14384  0.77090  0.04982  1.0000
  H   H142      1.0  0.09207  0.84735  0.06289  1.0000
  N   N12       1.0  0.17191  0.84242  0.09592  1.0000
  C   C140      1.0  0.17770  0.87288  0.08765  1.0000
  C   C141      1.0  0.18849  0.81767  0.09379  1.0000
  C   C142      1.0  0.20057  0.87915  0.07686  1.0000
  C   C143      1.0  0.21154  0.82312  0.08307  1.0000
  C   C144      1.0  0.21759  0.85412  0.07472  1.0000
  C   C145      1.0  0.14844  0.83670  0.10846  1.0000
  H   H143      1.0  0.16440  0.89240  0.08879  1.0000
  H   H144      1.0  0.18387  0.79350  0.10020  1.0000
  H   H145      1.0  0.20478  0.90305  0.06955  1.0000
  H   H146      1.0  0.22464  0.80350  0.08102  1.0000
  H   H147      1.0  0.23537  0.85863  0.06635  1.0000
  H   H148      1.0  0.13372  0.85326  0.10128  1.0000
  H   H149      1.0  0.14145  0.81157  0.10512  1.0000
  H   H150      1.0  0.15101  0.84061  0.12884  1.0000
  S   S50       1.0  0.25538  0.69701  0.30704  1.0000
  Fe  Fe27      1.0  0.06092  0.79626  0.08627  1.0000
  H   H151      1.0  0.17097  0.65241  0.29269  1.0000
  N   N13       1.0  0.21335  0.69673  0.24654  1.0000
  C   C146      1.0  0.14801  0.85084  0.03463  1.0000
  C   C147      1.0  0.20907  0.71023  0.26932  1.0000
  C   C148      1.0  0.20207  0.66813  0.23971  1.0000
  C   C149      1.0  0.19384  0.69447  0.28628  1.0000
  H   H152      1.0  0.19478  0.93834  0.26451  1.0000
  C   C150      1.0  0.22980  0.71296  0.22905  1.0000
  C   C151      1.0  0.22320  0.95478  0.23986  1.0000
  H   H153      1.0  0.21836  0.73257  0.27505  1.0000
  H   H154      1.0  0.27915  0.66427  0.26587  1.0000
  H   H155      1.0  0.19160  0.70443  0.30481  1.0000
  C   C152      1.0  0.23454  0.98192  0.22927  1.0000
  H   H156      1.0  0.21891  0.72237  0.21280  1.0000
  H   H157      1.0  0.24008  0.73360  0.23793  1.0000
  H   H158      1.0  0.24400  0.69575  0.22252  1.0000
  H   H159      1.0  0.11674  0.53796  0.32563  1.0000
  H   H160      1.0  0.12029  0.88654  0.04248  1.0000
  S   S51       1.0  0.03617  0.82685  0.06198  1.0000
  S   S52       1.0  0.25308  0.57443  0.39029  1.0000
  H   H161      1.0  0.10631  0.69051  0.02963  1.0000
  S   S53       1.0  0.27718  0.60971  0.32707  1.0000
  S   S54       1.0  0.03510  0.57725  0.23313  1.0000
  H   H162      1.0  0.06279  0.52630  0.34000  1.0000
  C   C153      1.0  0.27283  0.71127  0.28191  1.0000
  H   H163      1.0  0.17125  0.80960  0.02896  1.0000
  H   H164      1.0  0.25782  0.94432  0.28714  1.0000
  H   H165      1.0  0.07784  0.56504  0.33427  1.0000
  H   H166      1.0  0.27183  0.55868  0.43963  1.0000
  H   H167      1.0  0.09196  0.71202  0.05476  1.0000
  S   S55       1.0  0.16859  0.87930  0.02190  1.0000
  C   C154      1.0  0.05948  0.74356  0.02071  1.0000
  C   C155      1.0  0.03604  0.90482  0.15126  1.0000
  C   C156      1.0  0.27341  0.99161  0.27989  1.0000
  H   H168      1.0  0.04145  0.88003  0.14840  1.0000
  C   C157      1.0  0.27094  0.95798  0.27631  1.0000
  C   C158      1.0  0.27816  0.59068  0.40858  1.0000
  S   S56       1.0  0.03244  0.75750  0.09261  1.0000
  N   N14       1.0  0.07254  0.71528  0.01996  1.0000
  C   C159      1.0  0.17355  0.95550  0.79975  1.0000
  H   H169      1.0  0.24815  0.88084  0.75155  1.0000
  Fe  Fe28      1.0  0.04624  0.86318  0.76483  1.0000
  Fe  Fe29      1.0  0.24821  0.87634  0.97369  1.0000
  S   S57       1.0  0.26498  0.82671  0.97877  1.0000
  S   S58       1.0  0.25836  0.91833  0.94824  1.0000
  Fe  Fe30      1.0  0.22567  0.80830  0.97371  1.0000
  S   S59       1.0  0.21259  0.76813  0.94764  1.0000
  H   H170      1.0  0.14441  0.79986  0.89349  1.0000
  S   S60       1.0  0.20971  0.85723  0.96597  1.0000
  Fe  Fe31      1.0  0.20448  0.86018  0.00706  1.0000
  S   S61       1.0  0.05506  0.62817  0.89131  1.0000
  S   S62       1.0  0.25726  0.69399  0.71117  1.0000
  N   N15       1.0  0.17163  0.68740  0.81453  1.0000
  C   C160      1.0  0.14200  0.82770  0.96761  1.0000
  S   S63       1.0  0.25484  0.76652  0.68613  1.0000
  Fe  Fe32      1.0  0.24154  0.74265  0.72112  1.0000
  S   S64       1.0  0.20253  0.74240  0.73612  1.0000
  C   C161      1.0  0.13357  0.98147  0.79925  1.0000
  H   H171      1.0  0.19046  0.62427  0.85053  1.0000
  Fe  Fe33      1.0  0.10297  0.87339  0.76426  1.0000
  S   S65       1.0  0.10374  0.89765  0.80179  1.0000
  S   S66       1.0  0.13913  0.87140  0.74349  1.0000
  H   H172      1.0  0.11144  0.97432  0.76567  1.0000
  Fe  Fe34      1.0  0.06960  0.92363  0.78840  1.0000
  S   S67       1.0  0.06326  0.97769  0.79076  1.0000
  Fe  Fe35      1.0  0.07737  0.85793  0.81245  1.0000
  S   S68       1.0  0.08163  0.83448  0.85027  1.0000
  S   S69       1.0  0.07060  0.90264  0.74973  1.0000
  S   S70       1.0  0.07876  0.83188  0.77575  1.0000
  Fe  Fe36      1.0  0.07996  0.59916  0.91697  1.0000
  C   C162      1.0  0.12341  0.80898  0.97826  1.0000
  S   S71       1.0  0.08153  0.54441  0.91469  1.0000
  Fe  Fe37      1.0  0.09849  0.65892  0.94551  1.0000
  S   S72       1.0  0.07511  0.69206  0.92212  1.0000
  S   S73       1.0  0.11931  0.68341  0.97739  1.0000
  C   C163      1.0  0.21385  0.67378  0.80613  1.0000
  Fe  Fe38      1.0  0.08767  0.66230  0.88999  1.0000
  S   S74       1.0  0.10013  0.68382  0.85372  1.0000
  S   S75       1.0  0.06732  0.62372  0.95200  1.0000
  S   S76       1.0  0.11345  0.63142  0.91309  1.0000
  C   C164      1.0  0.08926  0.79320  0.85075  1.0000
  C   C165      1.0  0.09347  0.77782  0.87372  1.0000
  C   C166      1.0  0.09785  0.74438  0.87465  1.0000
  C   C167      1.0  0.09742  0.72609  0.85271  1.0000
  C   C168      1.0  0.09389  0.74155  0.82972  1.0000
  C   C169      1.0  0.08991  0.77505  0.82877  1.0000
  C   C170      1.0  0.27556  0.85555  0.73052  1.0000
  H   H173      1.0  0.10162  0.73277  0.89228  1.0000
  H   H174      1.0  0.15385  0.65919  0.84236  1.0000
  H   H175      1.0  0.08664  0.78649  0.81104  1.0000
  H   H176      1.0  0.14808  0.73119  0.00450  1.0000
  C   C171      1.0  0.14991  0.70801  0.81034  1.0000
  C   C172      1.0  0.09209  0.54653  0.86465  1.0000
  H   H177      1.0  0.11969  0.99597  0.80828  1.0000
  S   S77       1.0  0.27157  0.94015  0.76828  1.0000
  C   C173      1.0  0.07688  0.98105  0.84075  1.0000
  H   H178      1.0  0.15125  0.72255  0.79299  1.0000
  H   H179      1.0  0.09646  0.57193  0.86751  1.0000
  H   H180      1.0  0.19378  0.71224  0.78793  1.0000
  H   H181      1.0  0.07998  0.95519  0.83981  1.0000
  C   C174      1.0  0.18578  0.77884  0.73923  1.0000
  C   C175      1.0  0.16188  0.77758  0.74894  1.0000
  C   C176      1.0  0.14759  0.80585  0.75082  1.0000
  C   C177      1.0  0.15695  0.83557  0.74255  1.0000
  C   C178      1.0  0.18086  0.83681  0.73274  1.0000
  C   C179      1.0  0.19531  0.80860  0.73123  1.0000
  H   H182      1.0  0.15420  0.75459  0.75473  1.0000
  H   H183      1.0  0.12916  0.80454  0.75822  1.0000
  H   H184      1.0  0.18823  0.85966  0.72621  1.0000
  H   H185      1.0  0.21366  0.80986  0.72361  1.0000
  C   C180      1.0  0.18735  0.74374  0.95668  1.0000
  C   C181      1.0  0.17659  0.74749  0.97995  1.0000
  C   C182      1.0  0.15616  0.72822  0.98642  1.0000
  C   C183      1.0  0.14591  0.70571  0.96940  1.0000
  C   C184      1.0  0.15647  0.70213  0.94602  1.0000
  C   C185      1.0  0.17733  0.72080  0.93984  1.0000
  H   H186      1.0  0.18399  0.76514  0.99301  1.0000
  C   C186      1.0  0.27502  0.60211  0.80177  1.0000
  H   H187      1.0  0.14875  0.68475  0.93282  1.0000
  H   H188      1.0  0.18564  0.71766  0.92186  1.0000
  C   C187      1.0  0.12383  0.77337  0.94257  1.0000
  C   C188      1.0  0.14695  0.95053  0.76393  1.0000
  C   C189      1.0  0.19289  0.69296  0.80172  1.0000
  C   C190      1.0  0.11425  0.78159  0.96571  1.0000
  N   N16       1.0  0.14226  0.79168  0.93241  1.0000
  H   H189      1.0  0.13408  0.52879  0.92862  1.0000
  H   H190      1.0  0.10021  0.76637  0.97401  1.0000
  C   C191      1.0  0.08158  0.99789  0.86322  1.0000
  H   H191      1.0  0.16585  0.83314  0.93645  1.0000
  H   H192      1.0  0.14796  0.72484  0.82635  1.0000
  Fe  Fe39      1.0  0.04489  0.65508  0.92599  1.0000
  C   C192      1.0  0.26174  0.62152  0.78475  1.0000
  Fe  Fe40      1.0  0.27365  0.71916  0.67820  1.0000
  H   H193      1.0  0.25733  0.94937  0.90073  1.0000
  H   H194      1.0  0.13278  0.69288  0.80861  1.0000
  H   H195      1.0  0.20658  0.93242  0.76830  1.0000
  H   H196      1.0  0.23066  0.67821  0.79592  1.0000
  C   C193      1.0  0.27963  0.91752  0.92372  1.0000
  H   H197      1.0  0.15952  0.98346  0.83043  1.0000
  H   H198      1.0  0.09312  0.79178  0.89080  1.0000
  H   H199      1.0  0.14934  0.84901  0.97723  1.0000
  C   C194      1.0  0.04112  0.69165  0.99285  1.0000
  H   H200      1.0  0.04633  0.70294  0.86614  1.0000
  C   C195      1.0  0.17068  0.66328  0.83202  1.0000
  H   H201      1.0  0.10165  0.54698  0.82584  1.0000
  H   H202      1.0  0.14301  0.94075  0.74545  1.0000
  C   C196      1.0  0.06835  0.99777  0.81956  1.0000
  C   C197      1.0  0.27386  0.64618  0.77166  1.0000
  C   C198      1.0  0.12899  0.96944  0.77525  1.0000
  N   N17       1.0  0.20515  0.71683  0.65347  1.0000
  C   C199      1.0  0.19132  0.72889  0.67232  1.0000
  C   C200      1.0  0.21436  0.73716  0.63571  1.0000
  C   C201      1.0  0.18568  0.76192  0.67326  1.0000
  C   C202      1.0  0.20932  0.77040  0.63626  1.0000
  C   C203      1.0  0.19483  0.78279  0.65517  1.0000
  C   C204      1.0  0.21102  0.68218  0.65308  1.0000
  H   H203      1.0  0.18480  0.71307  0.68698  1.0000
  H   H204      1.0  0.22601  0.72781  0.62120  1.0000
  H   H205      1.0  0.17468  0.77133  0.68825  1.0000
  H   H206      1.0  0.21695  0.78646  0.62235  1.0000
  H   H207      1.0  0.19100  0.80856  0.65608  1.0000
  H   H208      1.0  0.19468  0.66725  0.65812  1.0000
  H   H209      1.0  0.21692  0.67426  0.63432  1.0000
  H   H210      1.0  0.22658  0.67719  0.66647  1.0000
  H   H211      1.0  0.17266  0.78511  0.90858  1.0000
  C   C205      1.0  0.06359  0.68944  0.00635  1.0000
  C   C206      1.0  0.26662  0.88185  0.74420  1.0000
  C   C207      1.0  0.21297  0.64886  0.82372  1.0000
  S   S78       1.0  0.04298  0.88613  0.80246  1.0000
  H   H212      1.0  0.19085  0.94992  0.80954  1.0000
  C   C208      1.0  0.09508  0.53234  0.84108  1.0000
  H   H213      1.0  0.08830  0.98484  0.87952  1.0000
  C   C209      1.0  0.08380  0.52772  0.88451  1.0000
  H   H214      1.0  0.09347  0.72754  0.81266  1.0000
  H   H215      1.0  0.22908  0.63364  0.82724  1.0000
  H   H216      1.0  0.11689  0.75172  0.93320  1.0000
  H   H217      1.0  0.11626  0.81565  0.99626  1.0000
  C   C210      1.0  0.19128  0.64355  0.83679  1.0000
  H   H218      1.0  0.26395  0.83439  0.72726  1.0000
  C   C211      1.0  0.15125  0.81865  0.94453  1.0000
  C   C212      1.0  0.18738  0.92333  0.76440  1.0000
  H   H219      1.0  0.18557  0.89812  0.77151  1.0000
  C   C213      1.0  0.15205  0.78323  0.90802  1.0000
  H   H220      1.0  0.14729  0.75786  0.90268  1.0000
  N   N18       1.0  0.16900  0.94406  0.77609  1.0000
  H   H221      1.0  0.18459  0.92251  0.74379  1.0000
  H   H222      1.0  0.24215  0.61708  0.78138  1.0000
  H   H223      1.0  0.07398  0.66703  0.00560  1.0000
  C   C214      1.0  0.15595  0.97444  0.81165  1.0000
  H   H224      1.0  0.26355  0.66087  0.75844  1.0000
  S   S79       1.0  0.27145  0.69868  0.63889  1.0000
  S   S80       1.0  0.25943  0.57219  0.81864  1.0000
  H   H225      1.0  0.04376  0.73756  0.88583  1.0000
  C   C215      1.0  0.03459  0.72434  0.87001  1.0000
  C   C216      1.0  0.27492  0.93709  0.90272  1.0000
  H   H226      1.0  0.03431  0.00717  0.94656  1.0000
  H   H227      1.0  0.04502  0.01047  0.91514  1.0000
  H   H228      1.0  0.03336  0.95999  0.74284  1.0000
  S   S81       1.0  0.27466  0.75788  0.74472  1.0000
  S   S82       1.0  0.24149  0.88392  0.01474  1.0000
  H   H229      1.0  0.03374  0.70563  0.82241  1.0000
  C   C217      1.0  0.03713  0.74674  0.00714  1.0000
  S   S83       1.0  0.21808  0.81001  0.01437  1.0000
  N   N19       1.0  0.03198  0.74518  0.84793  1.0000
  Fe  Fe41      1.0  0.25563  0.83302  0.01947  1.0000
  H   H230      1.0  0.03413  0.67118  0.98200  1.0000
  C   C218      1.0  0.03143  0.73159  0.82463  1.0000
  H   H231      1.0  0.27956  0.67624  0.58894  1.0000
  H   H232      1.0  0.27261  0.98981  0.95586  1.0000
  Fe  Fe42      1.0  0.34822  0.07398  0.49670  1.0000
  H   H233      1.0  0.32240  0.44297  0.24761  1.0000
  S   S84       1.0  0.33146  0.04840  0.46259  1.0000
  C   C219      1.0  0.50956  0.21099  0.34647  1.0000
  C   C220      1.0  0.31283  0.29011  0.09616  1.0000
  N   N20       1.0  0.29042  0.22085  0.32364  1.0000
  H   H234      1.0  0.33688  0.29353  0.12862  1.0000
  H   H235      1.0  0.49004  0.21335  0.33968  1.0000
  C   C221      1.0  0.50833  0.41900  0.30513  1.0000
  Fe  Fe43      1.0  0.33265  0.36038  0.18189  1.0000
  S   S85       1.0  0.30180  0.33733  0.20286  1.0000
  S   S86       1.0  0.32780  0.37358  0.14080  1.0000
  Fe  Fe44      1.0  0.36811  0.36108  0.22818  1.0000
  S   S87       1.0  0.33922  0.33799  0.25213  1.0000
  S   S88       1.0  0.40309  0.37602  0.25016  1.0000
  Fe  Fe45      1.0  0.33148  0.30559  0.21934  1.0000
  S   S89       1.0  0.32877  0.25121  0.22223  1.0000
  Fe  Fe46      1.0  0.31259  0.37235  0.23347  1.0000
  H   H236      1.0  0.33402  0.26715  0.27965  1.0000
  S   S90       1.0  0.36210  0.32611  0.19635  1.0000
  S   S91       1.0  0.34166  0.39785  0.21146  1.0000
  H   H237      1.0  0.29135  0.42920  0.20709  1.0000
  C   C222      1.0  0.28900  0.50595  0.27013  1.0000
  S   S92       1.0  0.42413  0.14573  0.50806  1.0000
  C   C223      1.0  0.51349  0.15698  0.41387  1.0000
  H   H238      1.0  0.29565  0.29319  0.29421  1.0000
  H   H239      1.0  0.45266  0.04394  0.49645  1.0000
  C   C224      1.0  0.50105  0.16195  0.37051  1.0000
  H   H240      1.0  0.31743  0.18691  0.23858  1.0000
  H   H241      1.0  0.31673  0.23883  0.16530  1.0000
  H   H242      1.0  0.31539  0.18127  0.32048  1.0000
  C   C225      1.0  0.28967  0.27997  0.08678  1.0000
  C   C226      1.0  0.30690  0.45566  0.25523  1.0000
  C   C227      1.0  0.28800  0.10417  0.40177  1.0000
  H   H243      1.0  0.31439  0.38320  0.08902  1.0000
  C   C228      1.0  0.30238  0.23511  0.23630  1.0000
  S   S93       1.0  0.28185  0.39703  0.25401  1.0000
  C   C229      1.0  0.48340  0.34205  0.24475  1.0000
  C   C230      1.0  0.47309  0.34758  0.26801  1.0000
  C   C231      1.0  0.44786  0.35569  0.26956  1.0000
  C   C232      1.0  0.43260  0.35781  0.24796  1.0000
  C   C233      1.0  0.44258  0.35047  0.22484  1.0000
  C   C234      1.0  0.46791  0.34281  0.22326  1.0000
  H   H244      1.0  0.48475  0.34693  0.28470  1.0000
  H   H245      1.0  0.44033  0.36149  0.28749  1.0000
  H   H246      1.0  0.43113  0.35239  0.20804  1.0000
  H   H247      1.0  0.47574  0.33852  0.20519  1.0000
  H   H248      1.0  0.35439  0.02563  0.29298  1.0000
  C   C235      1.0  0.31625  0.07055  0.43848  1.0000
  C   C236      1.0  0.31380  0.10421  0.43989  1.0000
  H   H249      1.0  0.29351  0.26706  0.17516  1.0000
  C   C237      1.0  0.31126  0.20609  0.31528  1.0000
  H   H250      1.0  0.28674  0.10577  0.51444  1.0000
  C   C238      1.0  0.29977  0.12090  0.42163  1.0000
  H   H251      1.0  0.32239  0.11736  0.45527  1.0000
  S   S94       1.0  0.29573  0.05082  0.27164  1.0000
  H   H252      1.0  0.28305  0.18292  0.34989  1.0000
  H   H253      1.0  0.32554  0.30300  0.08427  1.0000
  C   C239      1.0  0.44332  0.12595  0.48684  1.0000
  C   C240      1.0  0.43340  0.10383  0.46946  1.0000
  C   C241      1.0  0.44900  0.08783  0.45298  1.0000
  C   C242      1.0  0.47467  0.09334  0.45407  1.0000
  C   C243      1.0  0.48465  0.11546  0.47147  1.0000
  C   C244      1.0  0.46897  0.13198  0.48763  1.0000
  H   H254      1.0  0.41360  0.09946  0.46838  1.0000
  H   H255      1.0  0.44110  0.07089  0.43949  1.0000
  H   H256      1.0  0.50440  0.11986  0.47261  1.0000
  C   C245      1.0  0.32739  0.22265  0.29959  1.0000
  C   C246      1.0  0.30877  0.48913  0.25984  1.0000
  C   C247      1.0  0.30045  0.26899  0.30057  1.0000
  C   C248      1.0  0.28513  0.43879  0.26067  1.0000
  C   C249      1.0  0.46478  0.42826  0.23846  1.0000
  C   C250      1.0  0.52356  0.18820  0.41305  1.0000
  H   H257      1.0  0.30685  0.02780  0.41699  1.0000
  H   H258      1.0  0.32567  0.50203  0.25552  1.0000
  H   H259      1.0  0.52049  0.19856  0.33205  1.0000
  H   H260      1.0  0.34361  0.21073  0.29249  1.0000
  C   C251      1.0  0.30960  0.26388  0.16287  1.0000
  C   C252      1.0  0.52192  0.20590  0.39081  1.0000
  H   H261      1.0  0.28164  0.34115  0.15367  1.0000
  C   C253      1.0  0.28460  0.25160  0.31603  1.0000
  H   H262      1.0  0.28187  0.16406  0.26138  1.0000
  H   H263      1.0  0.49811  0.05097  0.48680  1.0000
  H   H264      1.0  0.51478  0.14288  0.43092  1.0000
  C   C254      1.0  0.45419  0.43372  0.26151  1.0000
  H   H265      1.0  0.52741  0.42892  0.30327  1.0000
  Fe  Fe47      1.0  0.38890  0.11841  0.51661  1.0000
  C   C255      1.0  0.46888  0.43114  0.28332  1.0000
  H   H266      1.0  0.49803  0.41460  0.21974  1.0000
  H   H267      1.0  0.50020  0.43137  0.32137  1.0000
  C   C256      1.0  0.30067  0.36314  0.12320  1.0000
  C   C257      1.0  0.48987  0.42058  0.23743  1.0000
  H   H268      1.0  0.49245  0.15136  0.35388  1.0000
  C   C258      1.0  0.50210  0.14373  0.39253  1.0000
  C   C259      1.0  0.30196  0.20225  0.24298  1.0000
  C   C260      1.0  0.29900  0.37103  0.09769  1.0000
  S   S95       1.0  0.49366  0.07095  0.43416  1.0000
  C   C261      1.0  0.31909  0.28478  0.12131  1.0000
  H   H269      1.0  0.46025  0.43403  0.30119  1.0000
  H   H270      1.0  0.29776  0.14690  0.42312  1.0000
  C   C262      1.0  0.32201  0.25438  0.29239  1.0000
  C   C263      1.0  0.45545  0.01878  0.48967  1.0000
  C   C264      1.0  0.30505  0.05386  0.41821  1.0000
  N   N21       1.0  0.51082  0.19266  0.36990  1.0000
  H   H271      1.0  0.30809  0.44798  0.16713  1.0000
  H   H272      1.0  0.32425  0.28105  0.16967  1.0000
  C   C265      1.0  0.28661  0.44399  0.12207  1.0000
  H   H273      1.0  0.45358  0.01870  0.46897  1.0000
  N   N22       1.0  0.49351  0.42371  0.28213  1.0000
  H   H274      1.0  0.47675  0.14924  0.50093  1.0000
  S   S96       1.0  0.51585  0.33796  0.24148  1.0000
  H   H275      1.0  0.43441  0.43807  0.26251  1.0000
  C   C266      1.0  0.50402  0.41825  0.25958  1.0000
  S   S97       1.0  0.35026  0.12801  0.50156  1.0000
  H   H276      1.0  0.52317  0.41061  0.25865  1.0000
  H   H277      1.0  0.45327  0.42845  0.22155  1.0000
  S   S98       1.0  0.38778  0.06494  0.50930  1.0000
  C   C267      1.0  0.29097  0.07060  0.39987  1.0000
  H   H278      1.0  0.32155  0.02277  0.32440  1.0000
  N   N23       1.0  0.30268  0.26981  0.13667  1.0000
  H   H279      1.0  0.51678  0.49156  0.46954  1.0000
  C   C268      1.0  0.52411  0.01606  0.50087  1.0000
  H   H280      1.0  0.30652  0.43753  0.12060  1.0000
  H   H281      1.0  0.50963  0.39270  0.30946  1.0000
  H   H282      1.0  0.28189  0.05743  0.38471  1.0000
  H   H283      1.0  0.49438  0.11933  0.39306  1.0000
  H   H284      1.0  0.50507  0.46880  0.49560  1.0000
  H   H285      1.0  0.28254  0.28024  0.23686  1.0000
  C   C269      1.0  0.51556  0.49091  0.49019  1.0000
  C   C270      1.0  0.29009  0.43605  0.16720  1.0000
  C   C271      1.0  0.28191  0.18933  0.25597  1.0000
  C   C272      1.0  0.28233  0.25485  0.24192  1.0000
  H   H286      1.0  0.50475  0.51212  0.49632  1.0000
  C   C273      1.0  0.50029  0.02681  0.49437  1.0000
  H   H287      1.0  0.28791  0.04724  0.50333  1.0000
  H   H288      1.0  0.51752  0.23586  0.34859  1.0000
  H   H289      1.0  0.28476  0.47077  0.12152  1.0000
  H   H290      1.0  0.53001  0.23003  0.39029  1.0000
  C   C274      1.0  0.28072  0.34732  0.13415  1.0000
  H   H291      1.0  0.28413  0.28509  0.06757  1.0000
  C   C275      1.0  0.28085  0.42522  0.18985  1.0000
  C   C276      1.0  0.28584  0.43042  0.94010  1.0000
  S   S99       1.0  0.31669  0.44654  0.83101  1.0000
  H   H292      1.0  0.47377  0.33244  0.62869  1.0000
  S   S100      1.0  0.38648  0.51203  0.54224  1.0000
  C   C277      1.0  0.28338  0.31953  0.77642  1.0000
  H   H293      1.0  0.44023  0.07898  0.63916  1.0000
  H   H294      1.0  0.47912  0.05357  0.69329  1.0000
  C   C278      1.0  0.44985  0.10376  0.55745  1.0000
  Fe  Fe48      1.0  0.30268  0.47781  0.86163  1.0000
  H   H295      1.0  0.50811  0.20768  0.65480  1.0000
  C   C279      1.0  0.34617  0.14302  0.72953  1.0000
  N   N24       1.0  0.33634  0.11890  0.74385  1.0000
  C   C280      1.0  0.37629  0.44597  0.85986  1.0000
  Fe  Fe49      1.0  0.37313  0.06129  0.54789  1.0000
  S   S101      1.0  0.37693  0.11437  0.55637  1.0000
  C   C281      1.0  0.28353  0.44989  0.91866  1.0000
  Fe  Fe50      1.0  0.33803  0.11846  0.54086  1.0000
  H   H296      1.0  0.34100  0.05048  0.88787  1.0000
  S   S102      1.0  0.33340  0.06477  0.53493  1.0000
  Fe  Fe51      1.0  0.49725  0.12143  0.73829  1.0000
  S   S103      1.0  0.48590  0.14783  0.70323  1.0000
  S   S104      1.0  0.47048  0.10962  0.76912  1.0000
  C   C282      1.0  0.50010  0.48147  0.69607  1.0000
  H   H297      1.0  0.48565  0.27505  0.71964  1.0000
  H   H298      1.0  0.44740  0.09668  0.53807  1.0000
  C   C283      1.0  0.41111  0.02943  0.76025  1.0000
  Fe  Fe52      1.0  0.52184  0.17531  0.70832  1.0000
  C   C284      1.0  0.49066  0.51298  0.69731  1.0000
  Fe  Fe53      1.0  0.51199  0.42409  0.57748  1.0000
  H   H299      1.0  0.35889  0.44062  0.86984  1.0000
  S   S105      1.0  0.49639  0.45907  0.54878  1.0000
  H   H300      1.0  0.50788  0.37311  0.70355  1.0000
  S   S106      1.0  0.28683  0.20560  0.72773  1.0000
  S   S107      1.0  0.29488  0.28071  0.77027  1.0000
  H   H301      1.0  0.29951  0.14835  0.80571  1.0000
  H   H302      1.0  0.48812  0.36820  0.66173  1.0000
  S   S108      1.0  0.49560  0.39438  0.60819  1.0000
  C   C285      1.0  0.32974  0.18793  0.62123  1.0000
  H   H303      1.0  0.43290  0.06053  0.57138  1.0000
  S   S109      1.0  0.51428  0.30343  0.60046  1.0000
  C   C286      1.0  0.51201  0.24934  0.63053  1.0000
  C   C287      1.0  0.29867  0.34235  0.78874  1.0000
  H   H304      1.0  0.30692  0.24593  0.59810  1.0000
  H   H305      1.0  0.50490  0.46856  0.71306  1.0000
  S   S110      1.0  0.29531  0.50048  0.79142  1.0000
  H   H306      1.0  0.50360  0.23734  0.61445  1.0000
  S   S111      1.0  0.49533  0.08616  0.64905  1.0000
  H   H307      1.0  0.31748  0.33597  0.79413  1.0000
  H   H308      1.0  0.34595  0.16876  0.58789  1.0000
  C   C288      1.0  0.45499  0.12160  0.60715  1.0000
  H   H309      1.0  0.49089  0.03078  0.61666  1.0000
  C   C289      1.0  0.46428  0.31658  0.64228  1.0000
  S   S112      1.0  0.51851  0.42932  0.67159  1.0000
  C   C290      1.0  0.42215  0.46861  0.55783  1.0000
  C   C291      1.0  0.44660  0.45700  0.56007  1.0000
  C   C292      1.0  0.46598  0.47430  0.54929  1.0000
  S   S113      1.0  0.32117  0.01442  0.77076  1.0000
  C   C293      1.0  0.32934  0.02952  0.88170  1.0000
  H   H310      1.0  0.40708  0.45477  0.56559  1.0000
  H   H311      1.0  0.45031  0.43416  0.56931  1.0000
  H   H312      1.0  0.34712  0.19787  0.62843  1.0000
  H   H313      1.0  0.39077  0.42901  0.86683  1.0000
  H   H314      1.0  0.31801  0.03703  0.86507  1.0000
  H   H315      1.0  0.34127  0.17299  0.69658  1.0000
  C   C294      1.0  0.32913  0.17144  0.59824  1.0000
  H   H316      1.0  0.46621  0.27098  0.67757  1.0000
  H   H317      1.0  0.41700  0.49550  0.77704  1.0000
  H   H318      1.0  0.44013  0.04618  0.61738  1.0000
  H   H319      1.0  0.30575  0.08682  0.74906  1.0000
  H   H320      1.0  0.30370  0.28954  0.59687  1.0000
  H   H321      1.0  0.30060  0.14842  0.68469  1.0000
  H   H322      1.0  0.28122  0.30068  0.64568  1.0000
  C   C295      1.0  0.30798  0.19235  0.63459  1.0000
  C   C296      1.0  0.51462  0.23247  0.65332  1.0000
  H   H323      1.0  0.36971  0.11038  0.76525  1.0000
  H   H324      1.0  0.35640  0.49092  0.88938  1.0000
  C   C297      1.0  0.47475  0.29375  0.68339  1.0000
  C   C298      1.0  0.33367  0.15358  0.70782  1.0000
  C   C299      1.0  0.48724  0.34778  0.67444  1.0000
  H   H325      1.0  0.41397  0.47504  0.83800  1.0000
  C   C300      1.0  0.49770  0.32457  0.71463  1.0000
  S   S114      1.0  0.30935  0.21678  0.66170  1.0000
  C   C301      1.0  0.48675  0.04574  0.65477  1.0000
  C   C302      1.0  0.41713  0.49776  0.54519  1.0000
  C   C303      1.0  0.42873  0.03424  0.74173  1.0000
  C   C304      1.0  0.49842  0.35075  0.69818  1.0000
  H   H326      1.0  0.47220  0.16551  0.59371  1.0000
  C   C305      1.0  0.46068  0.13362  0.56362  1.0000
  C   C306      1.0  0.44650  0.05933  0.74395  1.0000
  C   C307      1.0  0.44713  0.07954  0.76487  1.0000
  C   C308      1.0  0.42943  0.07491  0.78331  1.0000
  C   C309      1.0  0.41137  0.05013  0.78094  1.0000
  C   C310      1.0  0.28988  0.37357  0.79368  1.0000
  H   H327      1.0  0.46001  0.06280  0.72972  1.0000
  H   H328      1.0  0.42980  0.09040  0.79961  1.0000
  H   H329      1.0  0.39800  0.04670  0.79538  1.0000
  C   C311      1.0  0.48005  0.03591  0.67861  1.0000
  S   S115      1.0  0.30978  0.45785  0.90047  1.0000
  H   H330      1.0  0.50683  0.32618  0.73286  1.0000
  S   S116      1.0  0.51839  0.08289  0.71887  1.0000
  Fe  Fe54      1.0  0.52429  0.35698  0.59930  1.0000
  C   C312      1.0  0.44157  0.08346  0.57639  1.0000
  H   H331      1.0  0.45733  0.12865  0.62657  1.0000
  H   H332      1.0  0.34354  0.12465  0.78266  1.0000
  H   H333      1.0  0.49482  0.05120  0.78467  1.0000
  H   H334      1.0  0.46585  0.29148  0.63492  1.0000
  Fe  Fe55      1.0  0.50923  0.11099  0.68421  1.0000
  C   C313      1.0  0.30146  0.26777  0.60878  1.0000
  H   H335      1.0  0.30376  0.42075  0.94554  1.0000
  H   H336      1.0  0.36369  0.15443  0.73496  1.0000
  H   H337      1.0  0.44446  0.32339  0.64290  1.0000
  S   S117      1.0  0.30464  0.14260  0.55791  1.0000
  Fe  Fe56      1.0  0.31924  0.03149  0.81030  1.0000
  H   H338      1.0  0.30201  0.39110  0.80270  1.0000
  H   H339      1.0  0.37025  0.01902  0.66374  1.0000
  N   N25       1.0  0.44407  0.09255  0.60085  1.0000
  C   C314      1.0  0.31379  0.10543  0.73748  1.0000
  C   C315      1.0  0.46095  0.50375  0.53715  1.0000
  N   N26       1.0  0.38460  0.47959  0.86360  1.0000
  C   C316      1.0  0.34924  0.10893  0.76700  1.0000
  C   C317      1.0  0.43388  0.07147  0.62011  1.0000
  C   C318      1.0  0.30058  0.11579  0.71617  1.0000
  H   H340      1.0  0.34465  0.08342  0.77191  1.0000
  C   C319      1.0  0.48563  0.29595  0.70730  1.0000
  H   H341      1.0  0.37260  0.44137  0.83964  1.0000
  C   C320      1.0  0.49740  0.48364  0.65101  1.0000
  H   H342      1.0  0.41329  0.07190  0.61890  1.0000
  C   C321      1.0  0.48628  0.02319  0.63530  1.0000
  H   H343      1.0  0.52596  0.09402  0.78863  1.0000
  C   C322      1.0  0.50390  0.46702  0.67291  1.0000
  H   H344      1.0  0.29476  0.39149  0.88418  1.0000
  C   C323      1.0  0.30663  0.15973  0.58818  1.0000
  Fe  Fe57      1.0  0.52622  0.41547  0.63217  1.0000
  C   C324      1.0  0.46353  0.14252  0.58865  1.0000
  S   S118      1.0  0.36846  0.49114  0.79680  1.0000
  C   C325      1.0  0.51981  0.28183  0.62860  1.0000
  C   C326      1.0  0.31076  0.13978  0.70112  1.0000
  H   H345      1.0  0.49992  0.47241  0.63305  1.0000
  Fe  Fe58      1.0  0.33050  0.49303  0.81406  1.0000
  C   C327      1.0  0.40477  0.49065  0.85111  1.0000
  C   C328      1.0  0.28562  0.17947  0.62509  1.0000
  C   C329      1.0  0.50760  0.03828  0.77302  1.0000
  S   S119      1.0  0.38765  0.02846  0.57856  1.0000
  S   S120      1.0  0.31020  0.08274  0.82001  1.0000
  N   N27       1.0  0.47595  0.31934  0.66720  1.0000
  C   C330      1.0  0.37244  0.49961  0.87947  1.0000
  H   H346      1.0  0.46659  0.14989  0.54898  1.0000
  N   N28       1.0  0.31369  0.01869  0.90206  1.0000
  H   H347      1.0  0.31454  0.26941  0.62514  1.0000
  C   C331      1.0  0.28793  0.09887  0.79917  1.0000
  C   C332      1.0  0.29018  0.03054  0.90394  1.0000
  C   C333      1.0  0.28713  0.13240  0.79517  1.0000
  C   C334      1.0  0.52510  0.24806  0.67431  1.0000
  H   H348      1.0  0.28230  0.10580  0.71173  1.0000
  S   S121      1.0  0.52568  0.22978  0.70411  1.0000
  C   C335      1.0  0.28490  0.16365  0.60177  1.0000
  H   H349      1.0  0.42874  0.01852  0.72561  1.0000
  Fe  Fe59      1.0  0.28058  0.45673  0.81124  1.0000
  H   H350      1.0  0.28286  0.04747  0.89015  1.0000
  Fe  Fe60      1.0  0.36319  0.61327  0.49196  1.0000
  N   N29       1.0  0.48009  0.00708  0.49734  1.0000
  S   S122      1.0  0.34613  0.62807  0.45429  1.0000
  S   S123      1.0  0.29235  0.54787  0.27591  1.0000
  H   H351      1.0  0.36105  0.81043  0.14192  1.0000
  S   S124      1.0  0.39629  0.58050  0.49040  1.0000
  C   C336      1.0  0.52723  0.98484  0.51039  1.0000
  C   C337      1.0  0.32981  0.77677  0.09332  1.0000
  H   H352      1.0  0.36847  0.97533  0.27263  1.0000
  Fe  Fe61      1.0  0.33339  0.86137  0.18190  1.0000
  C   C338      1.0  0.29844  0.73617  0.24080  1.0000
  S   S125      1.0  0.33459  0.87938  0.14201  1.0000
  Fe  Fe62      1.0  0.36414  0.85440  0.23064  1.0000
  S   S126      1.0  0.33146  0.83380  0.25066  1.0000
  S   S127      1.0  0.39748  0.86447  0.25642  1.0000
  Fe  Fe63      1.0  0.32379  0.80472  0.21604  1.0000
  H   H353      1.0  0.41979  0.57015  0.41960  1.0000
  Fe  Fe64      1.0  0.30939  0.87299  0.23165  1.0000
  H   H354      1.0  0.37828  0.81046  0.08749  1.0000
  S   S128      1.0  0.35831  0.82206  0.19721  1.0000
  S   S129      1.0  0.34236  0.89556  0.21371  1.0000
  C   C339      1.0  0.31581  0.75347  0.10583  1.0000
  S   S130      1.0  0.52568  0.82719  0.31008  1.0000
  H   H355      1.0  0.30830  0.57840  0.46491  1.0000
  S   S131      1.0  0.45448  0.63979  0.50260  1.0000
  C   C340      1.0  0.32344  0.54823  0.38246  1.0000
  C   C341      1.0  0.30215  0.95980  0.24478  1.0000
  C   C342      1.0  0.30335  0.52670  0.38388  1.0000
  C   C343      1.0  0.29468  0.70261  0.24342  1.0000
  H   H356      1.0  0.31298  0.94788  0.23092  1.0000
  H   H357      1.0  0.42703  0.79089  0.29712  1.0000
  H   H358      1.0  0.36356  0.92004  0.26386  1.0000
  C   C344      1.0  0.30493  0.99330  0.24866  1.0000
  H   H359      1.0  0.51408  0.72523  0.26111  1.0000
  H   H360      1.0  0.47860  0.53993  0.46014  1.0000
  H   H361      1.0  0.33500  0.90128  0.27245  1.0000
  C   C345      1.0  0.32820  0.00069  0.31590  1.0000
  C   C346      1.0  0.47990  0.84500  0.24319  1.0000
  C   C347      1.0  0.47202  0.85676  0.26609  1.0000
  C   C348      1.0  0.44677  0.86309  0.26958  1.0000
  C   C349      1.0  0.42909  0.85764  0.25031  1.0000
  C   C350      1.0  0.43695  0.84628  0.22725  1.0000
  C   C351      1.0  0.46229  0.84006  0.22371  1.0000
  H   H362      1.0  0.48535  0.86091  0.28118  1.0000
  H   H363      1.0  0.44089  0.87201  0.28744  1.0000
  H   H364      1.0  0.42351  0.84218  0.21222  1.0000
  H   H365      1.0  0.46825  0.83109  0.20590  1.0000
  H   H366      1.0  0.46469  0.57884  0.41168  1.0000
  C   C352      1.0  0.31961  0.61322  0.43748  1.0000
  C   C353      1.0  0.29756  0.83857  0.12354  1.0000
  H   H367      1.0  0.30743  0.73312  0.14182  1.0000
  H   H368      1.0  0.30222  0.87214  0.05606  1.0000
  C   C354      1.0  0.28935  0.75719  0.25880  1.0000
  C   C355      1.0  0.44887  0.77844  0.26557  1.0000
  C   C356      1.0  0.31417  0.87761  0.09466  1.0000
  H   H369      1.0  0.29672  0.82856  0.14214  1.0000
  H   H370      1.0  0.33198  0.55819  0.39938  1.0000
  S   S132      1.0  0.38451  0.65386  0.51129  1.0000
  C   C357      1.0  0.47533  0.61419  0.48749  1.0000
  C   C358      1.0  0.49871  0.62629  0.48106  1.0000
  C   C359      1.0  0.51483  0.60735  0.46701  1.0000
  C   C360      1.0  0.50748  0.57633  0.45917  1.0000
  C   C361      1.0  0.48439  0.56394  0.46614  1.0000
  C   C362      1.0  0.46841  0.58272  0.48039  1.0000
  H   H371      1.0  0.50417  0.65061  0.48657  1.0000
  H   H372      1.0  0.46713  0.96026  0.50831  1.0000
  H   H373      1.0  0.30269  0.73818  0.09550  1.0000
  H   H374      1.0  0.45055  0.57307  0.48541  1.0000
  C   C363      1.0  0.31837  0.75074  0.13172  1.0000
  C   C364      1.0  0.46365  0.77462  0.30828  1.0000
  H   H375      1.0  0.32628  0.89800  0.09097  1.0000
  C   C365      1.0  0.36038  0.82111  0.09290  1.0000
  H   H376      1.0  0.32566  0.64549  0.40656  1.0000
  C   C366      1.0  0.44475  0.78199  0.29097  1.0000
  S   S133      1.0  0.52602  0.55284  0.43972  1.0000
  C   C367      1.0  0.48656  0.76408  0.29983  1.0000
  C   C368      1.0  0.31335  0.86480  0.11891  1.0000
  S   S134      1.0  0.51126  0.83437  0.23890  1.0000
  H   H377      1.0  0.34650  0.57561  0.35775  1.0000
  C   C369      1.0  0.29964  0.52457  0.33973  1.0000
  C   C370      1.0  0.33491  0.77109  0.14474  1.0000
  N   N30       1.0  0.34363  0.94462  0.29227  1.0000
  C   C371      1.0  0.51490  0.75132  0.26613  1.0000
  N   N31       1.0  0.29175  0.51516  0.36266  1.0000
  N   N32       1.0  0.34570  0.79702  0.10631  1.0000
  H   H378      1.0  0.31682  0.91967  0.31375  1.0000
  C   C372      1.0  0.35433  0.97382  0.28660  1.0000
  C   C373      1.0  0.32559  0.94279  0.30967  1.0000
  H   H379      1.0  0.32548  0.55387  0.31930  1.0000
  H   H380      1.0  0.29194  0.78308  0.25688  1.0000
  H   H381      1.0  0.36198  0.89919  0.29315  1.0000
  S   S135      1.0  0.31374  0.75139  0.21452  1.0000
  H   H382      1.0  0.32718  0.77934  0.07327  1.0000
  H   H383      1.0  0.46074  0.77747  0.32809  1.0000
  H   H384      1.0  0.30172  0.68621  0.22960  1.0000
  S   S136      1.0  0.29864  0.84194  0.19857  1.0000
  C   C374      1.0  0.28409  0.82385  0.10373  1.0000
  C   C375      1.0  0.31967  0.54604  0.33760  1.0000
  C   C376      1.0  0.35145  0.91491  0.27986  1.0000
  N   N33       1.0  0.42620  0.64704  0.44099  1.0000
  C   C377      1.0  0.41498  0.61821  0.43466  1.0000
  C   C378      1.0  0.45085  0.65195  0.43679  1.0000
  C   C379      1.0  0.42858  0.59328  0.42394  1.0000
  C   C380      1.0  0.46490  0.62776  0.42571  1.0000
  C   C381      1.0  0.45369  0.59820  0.41938  1.0000
  C   C382      1.0  0.41203  0.67298  0.45253  1.0000
  H   H385      1.0  0.39549  0.61415  0.43822  1.0000
  H   H386      1.0  0.45992  0.67434  0.44268  1.0000
  C   C383      1.0  0.30430  0.58868  0.44670  1.0000
  H   H387      1.0  0.48459  0.63138  0.42299  1.0000
  C   C384      1.0  0.47217  0.76854  0.25776  1.0000
  H   H388      1.0  0.42004  0.67853  0.47139  1.0000
  H   H389      1.0  0.41256  0.69520  0.44088  1.0000
  H   H390      1.0  0.39224  0.66608  0.45476  1.0000
  C   C385      1.0  0.31405  0.62637  0.41382  1.0000
  H   H391      1.0  0.43438  0.78451  0.25198  1.0000
  C   C386      1.0  0.34860  0.79417  0.13164  1.0000
  C   C387      1.0  0.50653  0.96479  0.51331  1.0000
  N   N34       1.0  0.49074  0.76194  0.27483  1.0000
  H   H392      1.0  0.33681  0.76922  0.16491  1.0000
  C   C388      1.0  0.30047  0.86309  0.07488  1.0000
  H   H393      1.0  0.36413  0.84293  0.10468  1.0000
  C   C389      1.0  0.28527  0.94200  0.25872  1.0000
  C   C390      1.0  0.31765  0.97075  0.32180  1.0000
  H   H394      1.0  0.35017  0.82977  0.07591  1.0000
  H   H395      1.0  0.47560  0.76727  0.23794  1.0000
  H   H396      1.0  0.31825  0.00689  0.23801  1.0000
  Fe  Fe65      1.0  0.41662  0.61972  0.51158  1.0000
  C   C391      1.0  0.33149  0.55812  0.35914  1.0000
  C   C392      1.0  0.28361  0.57759  0.43234  1.0000
  H   H397      1.0  0.50118  0.75842  0.31341  1.0000
  H   H398      1.0  0.52050  0.76580  0.24968  1.0000
  H   H399      1.0  0.28951  0.62562  0.38129  1.0000
  C   C393      1.0  0.34667  0.00230  0.29821  1.0000
  C   C394      1.0  0.48299  0.97627  0.50639  1.0000
  C   C395      1.0  0.28193  0.69015  0.26395  1.0000
  C   C396      1.0  0.29350  0.61517  0.39943  1.0000
  C   C397      1.0  0.29068  0.00924  0.26628  1.0000
  C   C398      1.0  0.28606  0.83547  0.07924  1.0000
  H   H400      1.0  0.30288  0.96937  0.33511  1.0000
  H   H401      1.0  0.44037  0.00355  0.49735  1.0000
  H   H402      1.0  0.29643  0.52037  0.40207  1.0000
  H   H403      1.0  0.52297  0.96140  0.37619  1.0000
  S   S137      1.0  0.28131  0.90000  0.25432  1.0000
  H   H404      1.0  0.29018  0.51592  0.32292  1.0000
  H   H405      1.0  0.52970  0.75488  0.28069  1.0000
  Fe  Fe66      1.0  0.30356  0.96878  0.78505  1.0000
  S   S138      1.0  0.33979  0.94497  0.79466  1.0000
  C   C399      1.0  0.41282  0.51891  0.78497  1.0000
  H   H406      1.0  0.33194  0.63710  0.79680  1.0000
  C   C400      1.0  0.51476  0.99634  0.74270  1.0000
  H   H407      1.0  0.40019  0.93945  0.62272  1.0000
  H   H408      1.0  0.37546  0.99007  0.62349  1.0000
  H   H409      1.0  0.33903  0.89653  0.91119  1.0000
  Fe  Fe67      1.0  0.33494  0.96714  0.83251  1.0000
  C   C401      1.0  0.30516  0.87036  0.80677  1.0000
  S   S139      1.0  0.31193  0.82324  0.70588  1.0000
  C   C402      1.0  0.29639  0.86269  0.85026  1.0000
  S   S140      1.0  0.30897  0.73229  0.69860  1.0000
  H   H410      1.0  0.39474  0.53439  0.73330  1.0000
  S   S141      1.0  0.40766  0.59994  0.54907  1.0000
  Fe  Fe68      1.0  0.48796  0.59668  0.71213  1.0000
  Fe  Fe69      1.0  0.37356  0.63086  0.54736  1.0000
  S   S142      1.0  0.36949  0.65746  0.58430  1.0000
  C   C403      1.0  0.28182  0.90900  0.74892  1.0000
  Fe  Fe70      1.0  0.47725  0.61101  0.76598  1.0000
  S   S143      1.0  0.46318  0.63277  0.73000  1.0000
  S   S144      1.0  0.44794  0.60569  0.79551  1.0000
  C   C404      1.0  0.48540  0.73658  0.69951  1.0000
  H   H411      1.0  0.42884  0.53151  0.84379  1.0000
  S   S145      1.0  0.49697  0.71901  0.72733  1.0000
  H   H412      1.0  0.47627  0.69160  0.68093  1.0000
  H   H413      1.0  0.47712  0.81168  0.67424  1.0000
  H   H414      1.0  0.32253  0.69013  0.65670  1.0000
  Fe  Fe71      1.0  0.47619  0.89301  0.58464  1.0000
  H   H415      1.0  0.29129  0.87237  0.86822  1.0000
  S   S146      1.0  0.46000  0.91522  0.54951  1.0000
  Fe  Fe72      1.0  0.47556  0.83620  0.62093  1.0000
  C   C405      1.0  0.48557  0.77045  0.69744  1.0000
  H   H416      1.0  0.34155  0.98788  0.91788  1.0000
  H   H417      1.0  0.39339  0.73154  0.58440  1.0000
  Fe  Fe73      1.0  0.35736  0.99257  0.78363  1.0000
  S   S147      1.0  0.45175  0.88038  0.61650  1.0000
  C   C406      1.0  0.39186  0.98428  0.68507  1.0000
  C   C407      1.0  0.30744  0.81753  0.82424  1.0000
  C   C408      1.0  0.40775  0.54155  0.60095  1.0000
  H   H418      1.0  0.41308  0.76381  0.64616  1.0000
  C   C409      1.0  0.46863  0.76688  0.65517  1.0000
  C   C410      1.0  0.29846  0.68474  0.62432  1.0000
  H   H419      1.0  0.35193  0.73560  0.59894  1.0000
  H   H420      1.0  0.38443  0.78873  0.67585  1.0000
  Fe  Fe74      1.0  0.49685  0.66475  0.73279  1.0000
  S   S148      1.0  0.50412  0.92119  0.60764  1.0000
  H   H421      1.0  0.46991  0.99579  0.70206  1.0000
  H   H422      1.0  0.43289  0.61983  0.63211  1.0000
  S   S149      1.0  0.46015  0.78548  0.62664  1.0000
  Fe  Fe75      1.0  0.48112  0.90566  0.63980  1.0000
  C   C411      1.0  0.30080  0.82960  0.84753  1.0000
  Fe  Fe76      1.0  0.29130  0.71110  0.73235  1.0000
  C   C412      1.0  0.42393  0.98411  0.58775  1.0000
  C   C413      1.0  0.43977  0.95879  0.58154  1.0000
  C   C414      1.0  0.43994  0.94697  0.55714  1.0000
  C   C415      1.0  0.42417  0.96074  0.53888  1.0000
  C   C416      1.0  0.40830  0.98626  0.54509  1.0000
  H   H423      1.0  0.36272  0.54727  0.58220  1.0000
  H   H424      1.0  0.45189  0.94839  0.59568  1.0000
  H   H425      1.0  0.31069  0.59271  0.81909  1.0000
  C   C417      1.0  0.31658  0.92819  0.88809  1.0000
  C   C418      1.0  0.29854  0.88325  0.82976  1.0000
  H   H426      1.0  0.32784  0.80277  0.78180  1.0000
  C   C419      1.0  0.31859  0.66571  0.58670  1.0000
  C   C420      1.0  0.34150  0.66534  0.59949  1.0000
  C   C421      1.0  0.34268  0.67381  0.62487  1.0000
  C   C422      1.0  0.32128  0.68344  0.63724  1.0000
  C   C423      1.0  0.36105  0.61235  0.75220  1.0000
  H   H427      1.0  0.31747  0.65938  0.56711  1.0000
  H   H428      1.0  0.36032  0.67358  0.63493  1.0000
  C   C424      1.0  0.40127  0.73298  0.60375  1.0000
  H   H429      1.0  0.30660  0.88647  0.79092  1.0000
  H   H430      1.0  0.35783  0.58760  0.59289  1.0000
  H   H431      1.0  0.43305  0.53819  0.52570  1.0000
  C   C425      1.0  0.29959  0.85664  0.72134  1.0000
  C   C426      1.0  0.31452  0.88410  0.72558  1.0000
  C   C427      1.0  0.30573  0.91015  0.73951  1.0000
  C   C428      1.0  0.47445  0.00327  0.68341  1.0000
  H   H432      1.0  0.41915  0.74654  0.60293  1.0000
  C   C429      1.0  0.32102  0.90759  0.90859  1.0000
  N   N35       1.0  0.38556  0.61361  0.74636  1.0000
  H   H433      1.0  0.47988  0.97360  0.62487  1.0000
  C   C430      1.0  0.44221  0.57279  0.61790  1.0000
  N   N36       1.0  0.39209  0.56677  0.60525  1.0000
  H   H434      1.0  0.33311  0.88498  0.71848  1.0000
  C   C431      1.0  0.46798  0.73295  0.65730  1.0000
  C   C432      1.0  0.30853  0.98732  0.93936  1.0000
  C   C433      1.0  0.43055  0.54407  0.78414  1.0000
  C   C434      1.0  0.42556  0.57419  0.79476  1.0000
  C   C435      1.0  0.40253  0.57912  0.80580  1.0000
  S   S150      1.0  0.31928  0.52387  0.84637  1.0000
  S   S151      1.0  0.47595  0.57096  0.67663  1.0000
  C   C436      1.0  0.47642  0.71777  0.67944  1.0000
  H   H435      1.0  0.39856  0.60238  0.81407  1.0000
  H   H436      1.0  0.42390  0.91905  0.70545  1.0000
  C   C437      1.0  0.42596  0.59785  0.62318  1.0000
  S   S152      1.0  0.34096  0.93711  0.86764  1.0000
  H   H437      1.0  0.30654  0.88733  0.94257  1.0000
  H   H438      1.0  0.41955  0.91861  0.66171  1.0000
  C   C438      1.0  0.38455  0.55416  0.80613  1.0000
  H   H439      1.0  0.46149  0.71833  0.64166  1.0000
  S   S153      1.0  0.50972  0.64584  0.77023  1.0000
  H   H440      1.0  0.41428  0.64247  0.76283  1.0000
  C   C439      1.0  0.40836  0.94033  0.66237  1.0000
  C   C440      1.0  0.29321  0.94224  0.88493  1.0000
  H   H441      1.0  0.31746  0.93116  0.74295  1.0000
  Fe  Fe77      1.0  0.38457  0.56341  0.52808  1.0000
  H   H442      1.0  0.39578  0.99634  0.53109  1.0000
  S   S154      1.0  0.52038  0.63080  0.71145  1.0000
  C   C441      1.0  0.31628  0.82487  0.77994  1.0000
  H   H443      1.0  0.33896  0.78692  0.66700  1.0000
  C   C442      1.0  0.49860  0.01262  0.75818  1.0000
  H   H444      1.0  0.41714  0.58700  0.73517  1.0000
  H   H445      1.0  0.29910  0.81865  0.76906  1.0000
  H   H446      1.0  0.46179  0.57542  0.62264  1.0000
  S   S155      1.0  0.50292  0.86038  0.64723  1.0000
  H   H447      1.0  0.42374  0.95117  0.52010  1.0000
  H   H448      1.0  0.48375  0.52816  0.63525  1.0000
  H   H449      1.0  0.37012  0.54781  0.89493  1.0000
  C   C443      1.0  0.38499  0.55630  0.73822  1.0000
  C   C444      1.0  0.29715  0.67544  0.59909  1.0000
  H   H450      1.0  0.32708  0.84282  0.76908  1.0000
  H   H451      1.0  0.35151  0.63416  0.75749  1.0000
  S   S156      1.0  0.50009  0.57252  0.74788  1.0000
  S   S157      1.0  0.31499  0.68180  0.75907  1.0000
  C   C445      1.0  0.41722  0.94432  0.70750  1.0000
  S   S158      1.0  0.34947  0.59279  0.52839  1.0000
  C   C446      1.0  0.40077  0.59438  0.61676  1.0000
  S   S159      1.0  0.38954  0.99693  0.75716  1.0000
  C   C447      1.0  0.52870  0.77895  0.62595  1.0000
  C   C448      1.0  0.38370  0.98050  0.64066  1.0000
  H   H452      1.0  0.32270  0.75970  0.62840  1.0000
  H   H453      1.0  0.31067  0.79174  0.82220  1.0000
  H   H454      1.0  0.38826  0.61403  0.62078  1.0000
  S   S160      1.0  0.47037  0.93909  0.67093  1.0000
  H   H455      1.0  0.36685  0.55823  0.81457  1.0000
  H   H456      1.0  0.40404  0.94473  0.72311  1.0000
  H   H457      1.0  0.42413  0.99315  0.60665  1.0000
  H   H458      1.0  0.40492  0.70786  0.61028  1.0000
  N   N37       1.0  0.38420  0.74894  0.62059  1.0000
  C   C449      1.0  0.35919  0.74772  0.61560  1.0000
  C   C450      1.0  0.39327  0.76325  0.64201  1.0000
  C   C451      1.0  0.34255  0.76131  0.63219  1.0000
  C   C452      1.0  0.37718  0.77731  0.65891  1.0000
  C   C453      1.0  0.35166  0.77631  0.65393  1.0000
  C   C454      1.0  0.39752  0.95206  0.64021  1.0000
  N   N38       1.0  0.40530  0.95630  0.68445  1.0000
  C   C455      1.0  0.39937  0.64432  0.74816  1.0000
  H   H459      1.0  0.38730  0.66494  0.75319  1.0000
  H   H460      1.0  0.49226  0.78509  0.71301  1.0000
  C   C456      1.0  0.30256  0.90210  0.92629  1.0000
  C   C457      1.0  0.47529  0.98036  0.66421  1.0000
  C   C458      1.0  0.29925  0.65165  0.77572  1.0000
  S   S161      1.0  0.49761  0.84644  0.58670  1.0000
  H   H461      1.0  0.38963  0.99705  0.70257  1.0000
  H   H462      1.0  0.40790  0.65014  0.73007  1.0000
  H   H463      1.0  0.43350  0.95983  0.71249  1.0000
  C   C459      1.0  0.38085  0.99679  0.66321  1.0000
  C   C460      1.0  0.47714  0.78555  0.67542  1.0000
  C   C461      1.0  0.39755  0.58613  0.73930  1.0000
  H   H464      1.0  0.35532  0.55403  0.61450  1.0000
  Fe  Fe78      1.0  0.52335  0.87381  0.61282  1.0000
  C   C462      1.0  0.48037  0.99063  0.64000  1.0000
  H   H465      1.0  0.29525  0.90906  0.83167  1.0000
  H   H466      1.0  0.31555  0.96953  0.95263  1.0000
  C   C463      1.0  0.36017  0.55464  0.74484  1.0000
  H   H467      1.0  0.44829  0.53995  0.77576  1.0000
  N   N39       1.0  0.30988  0.83798  0.80434  1.0000
  H   H468      1.0  0.47912  0.00590  0.75838  1.0000
  H   H469      1.0  0.48761  0.52377  0.71521  1.0000
  C   C464      1.0  0.34802  0.58287  0.75173  1.0000
  C   C465      1.0  0.36566  0.56372  0.59849  1.0000
  H   H470      1.0  0.40667  0.56844  0.87201  1.0000
  C   C466      1.0  0.38977  0.52383  0.79590  1.0000
  C   C467      1.0  0.32305  0.99767  0.91960  1.0000
  S   S162      1.0  0.29783  0.98841  0.82338  1.0000
  H   H471      1.0  0.28945  0.95816  0.86939  1.0000
  C   C468      1.0  0.48509  0.53019  0.67544  1.0000
  C   C469      1.0  0.43310  0.54433  0.60681  1.0000
  H   H472      1.0  0.32873  0.58193  0.75702  1.0000
  C   C470      1.0  0.30044  0.60739  0.80574  1.0000
  H   H473      1.0  0.40075  0.51922  0.59267  1.0000
  C   C471      1.0  0.31244  0.63248  0.79302  1.0000
  C   C472      1.0  0.38018  0.53184  0.88277  1.0000
  C   C473      1.0  0.40800  0.99772  0.56965  1.0000
  Fe  Fe79      1.0  0.28928  0.77769  0.70899  1.0000
  C   C474      1.0  0.48797  0.51516  0.65228  1.0000
  C   C475      1.0  0.41323  0.52258  0.85426  1.0000
  H   H474      1.0  0.29910  0.81346  0.86339  1.0000
  H   H475      1.0  0.50791  0.97696  0.73057  1.0000
  C   C476      1.0  0.52224  0.76918  0.60165  1.0000
  H   H476      1.0  0.50336  0.76142  0.59711  1.0000
  H   H477      1.0  0.51470  0.77857  0.63999  1.0000
  H   H478      1.0  0.47584  0.51749  0.52905  1.0000
  H   H479      1.0  0.35054  0.53141  0.74518  1.0000
  H   H480      1.0  0.52987  0.57063  0.66427  1.0000
  H   H481      1.0  0.44552  0.52456  0.60267  1.0000
  C   C477      1.0  0.40068  0.54335  0.87001  1.0000
  H   H482      1.0  0.34157  0.00958  0.87565  1.0000
  C   C478      1.0  0.43667  0.51558  0.53529  1.0000
  Fe  Fe80      1.0  0.28292  0.52793  0.82492  1.0000
  S   S163      1.0  0.35638  0.01234  0.82259  1.0000
  H   H483      1.0  0.50851  0.94044  0.52079  1.0000
  C   C479      1.0  0.28436  0.99871  0.94116  1.0000
  Fe  Fe81      1.0  0.56662  0.28992  0.31365  1.0000
  S   S164      1.0  0.57613  0.30233  0.27416  1.0000
  S   S165      1.0  0.56632  0.23651  0.32376  1.0000
  Fe  Fe82      1.0  0.55687  0.36025  0.32588  1.0000
  S   S166      1.0  0.56559  0.37828  0.28762  1.0000
  H   H484      1.0  0.65849  0.39507  0.47815  1.0000
  H   H485      1.0  0.67887  0.29602  0.46283  1.0000
  Fe  Fe83      1.0  0.59780  0.34424  0.29073  1.0000
  S   S167      1.0  0.63823  0.35466  0.28258  1.0000
  S   S168      1.0  0.59066  0.32930  0.33032  1.0000
  C   C480      1.0  0.76980  0.28365  0.41573  1.0000
  S   S169      1.0  0.55672  0.10322  0.46594  1.0000
  Fe  Fe84      1.0  0.58261  0.05274  0.41163  1.0000
  S   S170      1.0  0.60746  0.07983  0.43872  1.0000
  H   H486      1.0  0.68106  0.29700  0.25476  1.0000
  Fe  Fe85      1.0  0.58207  0.06007  0.46761  1.0000
  Fe  Fe86      1.0  0.76669  0.43708  0.19754  1.0000
  Fe  Fe87      1.0  0.57977  0.12016  0.43382  1.0000
  S   S171      1.0  0.58971  0.17358  0.42977  1.0000
  C   C481      1.0  0.71101  0.32182  0.23655  1.0000
  C   C482      1.0  0.69939  0.49856  0.45589  1.0000
  Fe  Fe88      1.0  0.72066  0.47413  0.20882  1.0000
  S   S172      1.0  0.74811  0.44808  0.23332  1.0000
  S   S173      1.0  0.67935  0.46867  0.21507  1.0000
  H   H487      1.0  0.64824  0.32671  0.23127  1.0000
  S   S174      1.0  0.59294  0.03092  0.50181  1.0000
  H   H488      1.0  0.77878  0.09476  0.20395  1.0000
  H   H489      1.0  0.62121  0.45486  0.33831  1.0000
  S   S175      1.0  0.73814  0.46110  0.17256  1.0000
  H   H490      1.0  0.76411  0.33513  0.33930  1.0000
  H   H491      1.0  0.71132  0.50409  0.44053  1.0000
  H   H492      1.0  0.61298  0.39009  0.48275  1.0000
  C   C483      1.0  0.64968  0.46687  0.41250  1.0000
  C   C484      1.0  0.60684  0.02367  0.31739  1.0000
  Fe  Fe89      1.0  0.73307  0.39938  0.48279  1.0000
  S   S176      1.0  0.70820  0.36471  0.46196  1.0000
  S   S177      1.0  0.73213  0.44992  0.46684  1.0000
  Fe  Fe90      1.0  0.69855  0.34631  0.49956  1.0000
  Fe  Fe91      1.0  0.74039  0.33054  0.46357  1.0000
  H   H493      1.0  0.75443  0.35145  0.38275  1.0000
  H   H494      1.0  0.65741  0.48014  0.51174  1.0000
  C   C485      1.0  0.70542  0.38761  0.18874  1.0000
  N   N40       1.0  0.54047  0.49206  0.50176  1.0000
  C   C486      1.0  0.64323  0.02792  0.49635  1.0000
  H   H495      1.0  0.56987  0.50204  0.38609  1.0000
  C   C487      1.0  0.69393  0.49501  0.27807  1.0000
  H   H496      1.0  0.64292  0.49197  0.41539  1.0000
  H   H497      1.0  0.72294  0.38199  0.17918  1.0000
  S   S178      1.0  0.72838  0.30899  0.49971  1.0000
  C   C488      1.0  0.59762  0.48148  0.36275  1.0000
  C   C489      1.0  0.64600  0.40824  0.46572  1.0000
  H   H498      1.0  0.60224  0.45533  0.42091  1.0000
  S   S179      1.0  0.74298  0.30214  0.42743  1.0000
  C   C490      1.0  0.64830  0.26202  0.46268  1.0000
  C   C491      1.0  0.55891  0.45472  0.37274  1.0000
  C   C492      1.0  0.71703  0.34559  0.21904  1.0000
  H   H499      1.0  0.65769  0.02100  0.44536  1.0000
  C   C493      1.0  0.67430  0.35506  0.21021  1.0000
  H   H500      1.0  0.70727  0.48852  0.33940  1.0000
  C   C494      1.0  0.65542  0.42822  0.44709  1.0000
  C   C495      1.0  0.70548  0.47306  0.47218  1.0000
  C   C496      1.0  0.69002  0.46609  0.49207  1.0000
  C   C497      1.0  0.76595  0.08822  0.25933  1.0000
  H   H501      1.0  0.72557  0.30927  0.24693  1.0000
  H   H502      1.0  0.75188  0.07499  0.24883  1.0000
  H   H503      1.0  0.69460  0.44654  0.50475  1.0000
  H   H504      1.0  0.64266  0.05398  0.49399  1.0000
  C   C498      1.0  0.64870  0.38831  0.26534  1.0000
  C   C499      1.0  0.63261  0.40722  0.25065  1.0000
  C   C500      1.0  0.64219  0.43197  0.23544  1.0000
  C   C501      1.0  0.66786  0.43783  0.23474  1.0000
  C   C502      1.0  0.68380  0.41932  0.24987  1.0000
  C   C503      1.0  0.67427  0.39476  0.26509  1.0000
  H   H505      1.0  0.61287  0.40235  0.25062  1.0000
  H   H506      1.0  0.62967  0.44629  0.22391  1.0000
  H   H507      1.0  0.70348  0.42364  0.24983  1.0000
  H   H508      1.0  0.68683  0.38018  0.27637  1.0000
  C   C504      1.0  0.56508  0.42825  0.35787  1.0000
  C   C505      1.0  0.58754  0.42842  0.34539  1.0000
  C   C506      1.0  0.60381  0.45500  0.34786  1.0000
  H   H509      1.0  0.62015  0.22491  0.45726  1.0000
  C   C507      1.0  0.57509  0.48138  0.37507  1.0000
  H   H510      1.0  0.57111  0.17118  0.33966  1.0000
  H   H511      1.0  0.59247  0.40796  0.33396  1.0000
  H   H512      1.0  0.75072  0.26914  0.38166  1.0000
  S   S180      1.0  0.55678  0.09426  0.40440  1.0000
  C   C508      1.0  0.57479  0.22022  0.35315  1.0000
  C   C509      1.0  0.57496  0.18640  0.35577  1.0000
  C   C510      1.0  0.58004  0.17203  0.37904  1.0000
  C   C511      1.0  0.58472  0.19132  0.40006  1.0000
  C   C512      1.0  0.58504  0.22526  0.39744  1.0000
  C   C513      1.0  0.58011  0.23972  0.37401  1.0000
  C   C514      1.0  0.60456  0.42248  0.45203  1.0000
  H   H513      1.0  0.58051  0.14598  0.38057  1.0000
  H   H514      1.0  0.58861  0.24045  0.41360  1.0000
  H   H515      1.0  0.57997  0.26586  0.37214  1.0000
  H   H516      1.0  0.73641  0.35133  0.21609  1.0000
  H   H517      1.0  0.70799  0.41062  0.19922  1.0000
  C   C515      1.0  0.77890  0.33860  0.35316  1.0000
  C   C516      1.0  0.76547  0.12223  0.25972  1.0000
  C   C517      1.0  0.68612  0.31475  0.24079  1.0000
  H   H518      1.0  0.65980  0.36886  0.20080  1.0000
  H   H519      1.0  0.64533  0.01867  0.41400  1.0000
  H   H520      1.0  0.67536  0.43012  0.44529  1.0000
  S   S181      1.0  0.60111  0.02180  0.38305  1.0000
  S   S182      1.0  0.77633  0.38478  0.19181  1.0000
  N   N41       1.0  0.69875  0.36163  0.20599  1.0000
  C   C518      1.0  0.66764  0.33128  0.22744  1.0000
  C   C519      1.0  0.54944  0.46625  0.51519  1.0000
  N   N42       1.0  0.63976  0.44529  0.43158  1.0000
  H   H521      1.0  0.61165  0.04543  0.32791  1.0000
  H   H522      1.0  0.67028  0.46789  0.41324  1.0000
  N   N43       1.0  0.66595  0.24137  0.41711  1.0000
  C   C520      1.0  0.64566  0.22648  0.42692  1.0000
  C   C521      1.0  0.67801  0.26578  0.42991  1.0000
  C   C522      1.0  0.63642  0.23669  0.44973  1.0000
  C   C523      1.0  0.66932  0.27656  0.45279  1.0000
  S   S183      1.0  0.76646  0.36667  0.48193  1.0000
  C   C524      1.0  0.67555  0.22989  0.39338  1.0000
  H   H523      1.0  0.63643  0.20657  0.41709  1.0000
  H   H524      1.0  0.69446  0.27708  0.42248  1.0000
  H   H525      1.0  0.74148  0.48734  0.27974  1.0000
  S   S184      1.0  0.65929  0.33119  0.50723  1.0000
  C   C525      1.0  0.62041  0.40550  0.46828  1.0000
  H   H526      1.0  0.68629  0.24923  0.38392  1.0000
  H   H527      1.0  0.68788  0.20880  0.39676  1.0000
  H   H528      1.0  0.66010  0.22256  0.38035  1.0000
  C   C526      1.0  0.76826  0.26961  0.39190  1.0000
  H   H529      1.0  0.64137  0.27031  0.48039  1.0000
  C   C527      1.0  0.77350  0.34797  0.37741  1.0000
  H   H530      1.0  0.75115  0.13498  0.24927  1.0000
  C   C528      1.0  0.61462  0.44231  0.43362  1.0000
  Fe  Fe92      1.0  0.76200  0.50595  0.17769  1.0000
  H   H531      1.0  0.64345  0.45854  0.39363  1.0000
  S   S185      1.0  0.73730  0.02825  0.21247  1.0000
  Fe  Fe93      1.0  0.54290  0.33507  0.27464  1.0000
  S   S186      1.0  0.55886  0.03067  0.44075  1.0000
  Fe  Fe94      1.0  0.77014  0.49424  0.23297  1.0000
  C   C529      1.0  0.66897  0.48514  0.49599  1.0000
  H   H532      1.0  0.69080  0.39127  0.17405  1.0000
  S   S187      1.0  0.54445  0.39532  0.35486  1.0000
  H   H533      1.0  0.74065  0.46540  0.30846  1.0000
  Fe  Fe95      1.0  0.53542  0.07513  0.43669  1.0000
  H   H534      1.0  0.53305  0.19836  0.42940  1.0000
  H   H535      1.0  0.58461  0.42029  0.45361  1.0000
  C   C530      1.0  0.66293  0.51070  0.47971  1.0000
  H   H536      1.0  0.68316  0.02586  0.49639  1.0000
  H   H537      1.0  0.63632  0.49877  0.30230  1.0000
  H   H538      1.0  0.56815  0.02658  0.32519  1.0000
  H   H539      1.0  0.54146  0.45477  0.38225  1.0000
  H   H540      1.0  0.70280  0.49550  0.26015  1.0000
  H   H541      1.0  0.74396  0.50918  0.30856  1.0000
  H   H542      1.0  0.54003  0.03183  0.49836  1.0000
  N   N44       1.0  0.70767  0.49145  0.29971  1.0000
  S   S188      1.0  0.76769  0.04628  0.15160  1.0000
  C   C531      1.0  0.73469  0.48818  0.29910  1.0000
  C   C532      1.0  0.69635  0.49103  0.32224  1.0000
  Fe  Fe96      1.0  0.75207  0.34768  0.51850  1.0000
  H   H543      1.0  0.65728  0.49997  0.26137  1.0000
  C   C533      1.0  0.67057  0.49373  0.32349  1.0000
  H   H544      1.0  0.66160  0.49333  0.34136  1.0000
  C   C534      1.0  0.66810  0.49769  0.27865  1.0000
  C   C535      1.0  0.65637  0.49691  0.30153  1.0000
  S   S189      1.0  0.53181  0.31961  0.31282  1.0000
  S   S190      1.0  0.61849  0.51408  0.36653  1.0000
  H   H545      1.0  0.53799  0.44488  0.51801  1.0000
  H   H546      1.0  0.72219  0.30440  0.55715  1.0000
  S   S191      1.0  0.77236  0.32818  0.55299  1.0000
  H   H547      1.0  0.67023  0.40663  0.60985  1.0000
  H   H548      1.0  0.56758  0.03793  0.75767  1.0000
  Fe  Fe97      1.0  0.71240  0.11912  0.81271  1.0000
  S   S192      1.0  0.73873  0.13338  0.78284  1.0000
  S   S193      1.0  0.67262  0.13717  0.81046  1.0000
  S   S194      1.0  0.53756  0.38443  0.56561  1.0000
  H   H549      1.0  0.69306  0.18684  0.77876  1.0000
  N   N45       1.0  0.53196  0.04768  0.77222  1.0000
  C   C536      1.0  0.64292  0.35769  0.52635  1.0000
  S   S195      1.0  0.72815  0.06898  0.81842  1.0000
  S   S196      1.0  0.73614  0.14087  0.84381  1.0000
  Fe  Fe98      1.0  0.55175  0.11560  0.72321  1.0000
  H   H550      1.0  0.63224  0.03833  0.55633  1.0000
  S   S197      1.0  0.58838  0.09054  0.73244  1.0000
  S   S198      1.0  0.55414  0.37697  0.62495  1.0000
  S   S199      1.0  0.60392  0.42167  0.58223  1.0000
  Fe  Fe99      1.0  0.56503  0.40740  0.59234  1.0000
  H   H551      1.0  0.65654  0.31364  0.57631  1.0000
  C   C537      1.0  0.70735  0.21606  0.74921  1.0000
  H   H552      1.0  0.59039  0.35942  0.56036  1.0000
  H   H553      1.0  0.70240  0.19386  0.82115  1.0000
  H   H554      1.0  0.72476  0.24943  0.72388  1.0000
  C   C538      1.0  0.64973  0.12447  0.78809  1.0000
  C   C539      1.0  0.62682  0.14054  0.78691  1.0000
  C   C540      1.0  0.60799  0.13090  0.76966  1.0000
  C   C541      1.0  0.61186  0.10482  0.75358  1.0000
  C   C542      1.0  0.63478  0.08878  0.75475  1.0000
  C   C543      1.0  0.65370  0.09867  0.77179  1.0000
  H   H555      1.0  0.62356  0.16051  0.79945  1.0000
  H   H556      1.0  0.59046  0.14347  0.76896  1.0000
  H   H557      1.0  0.63791  0.06856  0.74241  1.0000
  H   H558      1.0  0.67121  0.08605  0.77255  1.0000
  C   C544      1.0  0.75025  0.09434  0.96072  1.0000
  C   C545      1.0  0.73019  0.25204  0.78709  1.0000
  H   H559      1.0  0.69117  0.29792  0.54528  1.0000
  H   H560      1.0  0.69852  0.20152  0.73459  1.0000
  H   H561      1.0  0.55905  0.49261  0.65208  1.0000
  H   H562      1.0  0.57163  0.47101  0.72958  1.0000
  C   C546      1.0  0.56652  0.47845  0.68999  1.0000
  H   H563      1.0  0.66987  0.39643  0.52516  1.0000
  C   C547      1.0  0.71291  0.21696  0.81906  1.0000
  Fe  Fe100     1.0  0.76345  0.15161  0.81410  1.0000
  C   C548      1.0  0.62014  0.34773  0.53585  1.0000
  H   H564      1.0  0.54682  0.06750  0.80597  1.0000
  H   H565      1.0  0.74487  0.28194  0.75773  1.0000
  C   C549      1.0  0.76131  0.11397  0.97914  1.0000
  H   H566      1.0  0.64129  0.36151  0.59897  1.0000
  Fe  Fe101     1.0  0.75437  0.09243  0.84682  1.0000
  C   C550      1.0  0.61766  0.39782  0.55939  1.0000
  C   C551      1.0  0.63998  0.40825  0.54917  1.0000
  C   C552      1.0  0.54817  0.03089  0.75796  1.0000
  C   C553      1.0  0.70443  0.20779  0.77428  1.0000
  H   H567      1.0  0.72961  0.35368  0.57752  1.0000
  C   C554      1.0  0.60754  0.36774  0.55241  1.0000
  H   H568      1.0  0.64782  0.43159  0.55443  1.0000
  C   C555      1.0  0.73315  0.26133  0.76225  1.0000
  H   H569      1.0  0.75376  0.48216  0.72525  1.0000
  C   C556      1.0  0.72187  0.24299  0.74322  1.0000
  H   H570      1.0  0.77087  0.02142  0.98144  1.0000
  C   C557      1.0  0.76646  0.50934  0.75750  1.0000
  S   S200      1.0  0.54443  0.14044  0.68638  1.0000
  S   S201      1.0  0.54035  0.44838  0.60258  1.0000
  H   H571      1.0  0.70107  0.28036  0.57486  1.0000
  H   H572      1.0  0.71487  0.40243  0.59915  1.0000
  C   C558      1.0  0.76685  0.48309  0.74087  1.0000
  N   N46       1.0  0.71596  0.22560  0.79281  1.0000
  H   H573      1.0  0.70263  0.23628  0.82870  1.0000
  H   H574      1.0  0.73136  0.21379  0.82843  1.0000
  H   H575      1.0  0.77807  0.21626  0.72638  1.0000
  H   H576      1.0  0.57173  0.45395  0.68504  1.0000
  H   H577      1.0  0.73979  0.26571  0.80175  1.0000
  C   C559      1.0  0.76800  0.04742  0.98107  1.0000
  Fe  Fe102     1.0  0.75627  0.08482  0.79060  1.0000
  H   H578      1.0  0.55664  0.08791  0.77800  1.0000
  H   H579      1.0  0.54159  0.29240  0.68829  1.0000
  N   N47       1.0  0.69392  0.33083  0.57567  1.0000
  C   C560      1.0  0.71019  0.35527  0.58211  1.0000
  C   C561      1.0  0.66950  0.33280  0.58171  1.0000
  C   C562      1.0  0.70197  0.38291  0.59447  1.0000
  C   C563      1.0  0.66075  0.35981  0.59447  1.0000
  C   C564      1.0  0.67705  0.38517  0.60059  1.0000
  C   C565      1.0  0.70252  0.30196  0.56262  1.0000
  H   H580      1.0  0.75961  0.14014  0.97810  1.0000
  C   C566      1.0  0.75365  0.06086  0.96160  1.0000
  H   H581      1.0  0.76109  0.04062  0.67689  1.0000
  H   H582      1.0  0.60688  0.49578  0.53065  1.0000
  H   H583      1.0  0.61250  0.32417  0.53092  1.0000
  H   H584      1.0  0.76917  0.13719  0.89411  1.0000
  H   H585      1.0  0.74582  0.04561  0.94682  1.0000
  S   S202      1.0  0.77141  0.05551  0.75888  1.0000
  C   C567      1.0  0.76316  0.03289  0.69666  1.0000
  C   C568      1.0  0.53344  0.28020  0.67216  1.0000
  C   C569      1.0  0.57339  0.46721  0.52588  1.0000
  H   H586      1.0  0.73980  0.10512  0.94529  1.0000
  H   H587      1.0  0.74833  0.04475  0.70737  1.0000
  C   C570      1.0  0.65259  0.38822  0.53270  1.0000
  S   S203      1.0  0.76764  0.06824  0.88279  1.0000
  C   C571      1.0  0.55920  0.50044  0.67139  1.0000
  H   H588      1.0  0.77376  0.18375  0.76495  1.0000
  H   H589      1.0  0.58033  0.44688  0.53677  1.0000
  H   H590      1.0  0.53659  0.32196  0.64850  1.0000
  C   C572      1.0  0.56622  0.48790  0.71496  1.0000
  S   S204      1.0  0.72104  0.38354  0.52077  1.0000
  C   C573      1.0  0.54079  0.07554  0.78704  1.0000
  C   C574      1.0  0.58818  0.49473  0.52266  1.0000
  C   C575      1.0  0.77571  0.09976  0.99821  1.0000
  N   N48       1.0  0.77860  0.06682  0.99918  1.0000
  S   S205      1.0  0.53137  0.15234  0.74557  1.0000
  C   C576      1.0  0.53068  0.29703  0.64951  1.0000
  Fe  Fe103     1.0  0.55987  0.79694  0.31479  1.0000
  S   S206      1.0  0.57147  0.80504  0.27531  1.0000
  S   S207      1.0  0.55213  0.74627  0.32926  1.0000
  Fe  Fe104     1.0  0.54977  0.86895  0.32211  1.0000
  S   S208      1.0  0.56042  0.88268  0.28332  1.0000
  H   H591      1.0  0.76304  0.58150  0.07154  1.0000
  H   H592      1.0  0.65996  0.80705  0.46686  1.0000
  Fe  Fe105     1.0  0.59220  0.84870  0.29054  1.0000
  S   S209      1.0  0.63294  0.85878  0.28382  1.0000
  S   S210      1.0  0.58290  0.83801  0.33056  1.0000
  H   H593      1.0  0.63304  0.96328  0.28429  1.0000
  S   S211      1.0  0.59098  0.59994  0.45458  1.0000
  Fe  Fe106     1.0  0.60678  0.54688  0.39749  1.0000
  S   S212      1.0  0.63552  0.57733  0.41747  1.0000
  H   H594      1.0  0.68951  0.75638  0.43972  1.0000
  Fe  Fe107     1.0  0.61828  0.55901  0.45237  1.0000
  H   H595      1.0  0.53262  0.61707  0.46173  1.0000
  Fe  Fe108     1.0  0.60590  0.61562  0.41736  1.0000
  S   S213      1.0  0.61798  0.66733  0.40817  1.0000
  C   C577      1.0  0.55022  0.97366  0.30189  1.0000
  H   H596      1.0  0.66139  0.86636  0.22104  1.0000
  Fe  Fe109     1.0  0.71857  0.97932  0.21366  1.0000
  S   S214      1.0  0.74595  0.95958  0.24168  1.0000
  S   S215      1.0  0.67702  0.97130  0.21689  1.0000
  H   H597      1.0  0.74439  0.89473  0.24268  1.0000
  C   C578      1.0  0.75072  0.78202  0.44926  1.0000
  C   C579      1.0  0.74318  0.58988  0.27953  1.0000
  H   H598      1.0  0.65096  0.63874  0.36823  1.0000
  S   S216      1.0  0.73818  0.96117  0.17987  1.0000
  C   C580      1.0  0.59403  0.96714  0.29204  1.0000
  C   C581      1.0  0.76828  0.58365  0.05219  1.0000
  H   H599      1.0  0.54768  0.53965  0.48804  1.0000
  Fe  Fe110     1.0  0.56549  0.56776  0.43162  1.0000
  C   C582      1.0  0.67800  0.51706  0.45943  1.0000
  C   C583      1.0  0.62120  0.01039  0.49919  1.0000
  S   S217      1.0  0.67380  0.87490  0.48485  1.0000
  S   S218      1.0  0.69624  0.95974  0.50513  1.0000
  N   N49       1.0  0.65388  0.75813  0.45517  1.0000
  Fe  Fe111     1.0  0.70629  0.84127  0.48526  1.0000
  S   S219      1.0  0.71039  0.82365  0.44546  1.0000
  C   C584      1.0  0.68022  0.74981  0.45727  1.0000
  C   C585      1.0  0.75115  0.85462  0.26713  1.0000
  S   S220      1.0  0.57831  0.58607  0.39449  1.0000
  H   H600      1.0  0.54169  0.98070  0.28364  1.0000
  C   C586      1.0  0.76706  0.61351  0.04001  1.0000
  S   S221      1.0  0.63702  0.53503  0.48559  1.0000
  C   C587      1.0  0.67628  0.96369  0.44072  1.0000
  C   C588      1.0  0.68461  0.93186  0.43813  1.0000
  C   C589      1.0  0.55267  0.93583  0.35896  1.0000
  S   S222      1.0  0.59169  0.52588  0.43237  1.0000
  C   C590      1.0  0.58264  0.98831  0.37446  1.0000
  C   C591      1.0  0.61192  0.74349  0.44355  1.0000
  H   H601      1.0  0.67649  0.89785  0.18714  1.0000
  H   H602      1.0  0.70193  0.92442  0.44713  1.0000
  C   C592      1.0  0.69600  0.89102  0.19168  1.0000
  C   C593      1.0  0.64652  0.78899  0.46048  1.0000
  H   H603      1.0  0.75340  0.90991  0.31697  1.0000
  H   H604      1.0  0.53917  0.98392  0.31719  1.0000
  C   C594      1.0  0.57792  0.93616  0.35360  1.0000
  C   C595      1.0  0.64506  0.96067  0.50374  1.0000
  C   C596      1.0  0.66713  0.97845  0.50182  1.0000
  H   H605      1.0  0.64584  0.67779  0.35400  1.0000
  H   H606      1.0  0.63651  0.90240  0.40243  1.0000
  S   S223      1.0  0.74120  0.52163  0.21139  1.0000
  Fe  Fe112     1.0  0.76655  0.00641  0.23747  1.0000
  H   H607      1.0  0.72418  0.59616  0.27481  1.0000
  H   H608      1.0  0.54610  0.68417  0.35153  1.0000
  C   C597      1.0  0.64420  0.89204  0.26668  1.0000
  C   C598      1.0  0.62893  0.90955  0.25015  1.0000
  C   C599      1.0  0.63917  0.93416  0.23528  1.0000
  C   C600      1.0  0.66469  0.94134  0.23675  1.0000
  C   C601      1.0  0.67983  0.92409  0.25355  1.0000
  C   C602      1.0  0.66961  0.89962  0.26847  1.0000
  H   H609      1.0  0.60941  0.90356  0.24833  1.0000
  H   H610      1.0  0.62735  0.94733  0.22224  1.0000
  H   H611      1.0  0.69944  0.92935  0.25495  1.0000
  H   H612      1.0  0.68156  0.88602  0.28111  1.0000
  H   H613      1.0  0.70461  0.91109  0.20278  1.0000
  S   S224      1.0  0.75982  0.80531  0.29933  1.0000
  H   H614      1.0  0.61579  0.82203  0.46263  1.0000
  C   C603      1.0  0.64783  0.91944  0.41327  1.0000
  C   C604      1.0  0.73383  0.79847  0.43368  1.0000
  H   H615      1.0  0.57110  0.65306  0.38235  1.0000
  C   C605      1.0  0.62158  0.79769  0.45785  1.0000
  C   C606      1.0  0.77701  0.55658  0.03948  1.0000
  Fe  Fe113     1.0  0.53853  0.83819  0.27180  1.0000
  C   C607      1.0  0.57091  0.72535  0.35138  1.0000
  C   C608      1.0  0.56321  0.69445  0.35909  1.0000
  C   C609      1.0  0.57745  0.67667  0.37652  1.0000
  C   C610      1.0  0.59965  0.68951  0.38637  1.0000
  C   C611      1.0  0.60739  0.72055  0.37879  1.0000
  C   C612      1.0  0.59306  0.73846  0.36133  1.0000
  H   H616      1.0  0.74111  0.54408  0.26053  1.0000
  C   C613      1.0  0.67030  0.90963  0.42428  1.0000
  H   H617      1.0  0.62450  0.73080  0.38632  1.0000
  H   H618      1.0  0.59914  0.76228  0.35549  1.0000
  C   C614      1.0  0.73480  0.79402  0.40777  1.0000
  C   C615      1.0  0.63999  0.95145  0.41636  1.0000
  H   H619      1.0  0.68756  0.98069  0.45162  1.0000
  C   C616      1.0  0.70803  0.69941  0.39392  1.0000
  H   H620      1.0  0.73421  0.85057  0.19501  1.0000
  C   C617      1.0  0.57877  0.52100  0.50912  1.0000
  S   S225      1.0  0.77175  0.54858  0.15288  1.0000
  H   H621      1.0  0.61238  0.96288  0.35702  1.0000
  C   C618      1.0  0.55746  0.98782  0.37984  1.0000
  C   C619      1.0  0.60420  0.77476  0.44929  1.0000
  C   C620      1.0  0.58221  0.01283  0.31580  1.0000
  H   H622      1.0  0.54569  0.97627  0.51530  1.0000
  H   H623      1.0  0.62650  0.00672  0.43987  1.0000
  C   C621      1.0  0.72780  0.66455  0.36448  1.0000
  C   C622      1.0  0.64558  0.00649  0.43248  1.0000
  C   C623      1.0  0.59293  0.96242  0.36141  1.0000
  H   H624      1.0  0.75879  0.62375  0.22372  1.0000
  H   H625      1.0  0.67366  0.53695  0.44698  1.0000
  H   H626      1.0  0.59003  0.54261  0.50663  1.0000
  H   H627      1.0  0.67661  0.88480  0.42228  1.0000
  C   C624      1.0  0.62214  0.97670  0.50270  1.0000
  H   H628      1.0  0.64278  0.71118  0.44203  1.0000
  N   N50       1.0  0.57614  0.98465  0.30352  1.0000
  H   H629      1.0  0.75011  0.78511  0.46926  1.0000
  H   H630      1.0  0.62249  0.95902  0.40783  1.0000
  C   C625      1.0  0.76969  0.75740  0.41287  1.0000
  C   C626      1.0  0.66613  0.01200  0.49784  1.0000
  C   C627      1.0  0.75285  0.56051  0.27118  1.0000
  C   C628      1.0  0.63699  0.73555  0.44658  1.0000
  H   H631      1.0  0.72181  0.80661  0.39555  1.0000
  H   H632      1.0  0.70430  0.78723  0.25032  1.0000
  H   H633      1.0  0.64566  0.93475  0.50680  1.0000
  H   H634      1.0  0.68963  0.76344  0.47277  1.0000
  H   H635      1.0  0.74449  0.65488  0.35649  1.0000
  H   H636      1.0  0.68282  0.72358  0.46117  1.0000
  S   S226      1.0  0.74584  0.64872  0.30244  1.0000
  C   C629      1.0  0.76852  0.76145  0.43886  1.0000
  H   H637      1.0  0.76728  0.87139  0.32257  1.0000
  C   C630      1.0  0.54254  0.96155  0.37219  1.0000
  H   H638      1.0  0.73847  0.80244  0.22228  1.0000
  C   C631      1.0  0.62524  0.00579  0.30599  1.0000
  H   H639      1.0  0.70587  0.88883  0.17384  1.0000
  H   H640      1.0  0.70338  0.63838  0.33942  1.0000
  H   H641      1.0  0.66539  0.81951  0.24947  1.0000
  H   H642      1.0  0.66810  0.69861  0.39220  1.0000
  H   H643      1.0  0.74765  0.69445  0.39132  1.0000
  N   N51       1.0  0.69738  0.86089  0.20611  1.0000
  C   C632      1.0  0.67821  0.85215  0.22098  1.0000
  C   C633      1.0  0.71868  0.84309  0.20623  1.0000
  C   C634      1.0  0.68033  0.82549  0.23701  1.0000
  C   C635      1.0  0.72125  0.81590  0.22168  1.0000
  C   C636      1.0  0.70209  0.80740  0.23745  1.0000
  H   H644      1.0  0.58576  0.91637  0.34324  1.0000
  C   C637      1.0  0.70441  0.65532  0.35491  1.0000
  C   C638      1.0  0.72957  0.68681  0.38401  1.0000
  C   C639      1.0  0.68488  0.68923  0.38421  1.0000
  C   C640      1.0  0.75814  0.61143  0.29347  1.0000
  H   H645      1.0  0.73593  0.86048  0.27905  1.0000
  Fe  Fe114     1.0  0.69595  0.90570  0.51129  1.0000
  H   H646      1.0  0.59863  0.72545  0.43667  1.0000
  N   N52       1.0  0.65416  0.97305  0.42999  1.0000
  C   C641      1.0  0.75272  0.77385  0.39740  1.0000
  N   N53       1.0  0.68333  0.66774  0.36476  1.0000
  H   H647      1.0  0.58925  0.94499  0.28207  1.0000
  C   C642      1.0  0.76562  0.82728  0.27216  1.0000
  S   S227      1.0  0.69185  0.81223  0.51728  1.0000
  H   H648      1.0  0.65975  0.64620  0.33640  1.0000
  C   C643      1.0  0.77742  0.55234  0.27706  1.0000
  C   C644      1.0  0.65884  0.65701  0.35533  1.0000
  C   C645      1.0  0.77594  0.86746  0.23136  1.0000
  C   C646      1.0  0.61884  0.97736  0.29319  1.0000
  H   H649      1.0  0.77637  0.95278  0.29497  1.0000
  S   S228      1.0  0.72998  0.87448  0.50959  1.0000
  H   H650      1.0  0.76082  0.63484  0.04981  1.0000
  H   H651      1.0  0.54895  0.94689  0.30397  1.0000
  Fe  Fe115     1.0  0.77391  0.68688  0.31387  1.0000
  S   S229      1.0  0.75932  0.72867  0.33528  1.0000
  H   H652      1.0  0.58480  0.78123  0.44709  1.0000
  C   C647      1.0  0.75626  0.87454  0.24678  1.0000
  H   H653      1.0  0.75351  0.77134  0.37740  1.0000
  Fe  Fe116     1.0  0.76651  0.94351  0.20816  1.0000
  H   H654      1.0  0.60516  0.96305  0.50507  1.0000
  H   H655      1.0  0.77840  0.53359  0.04925  1.0000
  H   H656      1.0  0.77935  0.90665  0.33904  1.0000
  C   C648      1.0  0.77142  0.89782  0.32095  1.0000
  S   S230      1.0  0.53301  0.90468  0.34811  1.0000
  H   H657      1.0  0.70943  0.71700  0.40892  1.0000
  Fe  Fe117     1.0  0.75972  0.00832  0.18117  1.0000
  H   H658      1.0  0.54930  0.00796  0.38947  1.0000
  S   S231      1.0  0.62073  0.83512  0.51720  1.0000
  Fe  Fe118     1.0  0.66122  0.84842  0.51846  1.0000
  H   H659      1.0  0.64443  0.01385  0.30713  1.0000
  C   C649      1.0  0.55480  0.51919  0.49866  1.0000
  H   H660      1.0  0.77912  0.57681  0.20439  1.0000
  C   C650      1.0  0.77810  0.61867  0.22815  1.0000
  S   S232      1.0  0.73064  0.82806  0.57774  1.0000
  H   H661      1.0  0.54585  0.56479  0.70684  1.0000
  H   H662      1.0  0.55584  0.82787  0.65777  1.0000
  Fe  Fe119     1.0  0.75650  0.60029  0.83409  1.0000
  Fe  Fe120     1.0  0.70208  0.60495  0.81540  1.0000
  S   S233      1.0  0.71308  0.61742  0.77663  1.0000
  S   S234      1.0  0.66187  0.60574  0.82725  1.0000
  Fe  Fe121     1.0  0.74191  0.57871  0.78165  1.0000
  H   H663      1.0  0.74810  0.76501  0.75921  1.0000
  Fe  Fe122     1.0  0.74120  0.65068  0.79491  1.0000
  H   H664      1.0  0.76689  0.51505  0.67042  1.0000
  S   S235      1.0  0.72876  0.56343  0.81921  1.0000
  S   S236      1.0  0.72865  0.64059  0.83382  1.0000
  H   H665      1.0  0.57767  0.79533  0.66271  1.0000
  H   H666      1.0  0.59390  0.00641  0.56137  1.0000
  S   S237      1.0  0.57223  0.59566  0.74777  1.0000
  H   H667      1.0  0.63713  0.67027  0.83963  1.0000
  S   S238      1.0  0.56503  0.87171  0.61515  1.0000
  C   C651      1.0  0.55156  0.54052  0.70196  1.0000
  H   H668      1.0  0.55867  0.52701  0.74036  1.0000
  H   H669      1.0  0.67500  0.95148  0.56563  1.0000
  H   H670      1.0  0.54680  0.85853  0.56469  1.0000
  C   C652      1.0  0.55823  0.80111  0.65713  1.0000
  H   H671      1.0  0.76504  0.88160  0.56829  1.0000
  C   C653      1.0  0.63693  0.60153  0.80530  1.0000
  C   C654      1.0  0.64102  0.59443  0.78027  1.0000
  C   C655      1.0  0.62091  0.59250  0.76307  1.0000
  C   C656      1.0  0.59654  0.59814  0.77056  1.0000
  C   C657      1.0  0.59239  0.60537  0.79559  1.0000
  C   C658      1.0  0.61251  0.60673  0.81292  1.0000
  H   H672      1.0  0.65966  0.59016  0.77418  1.0000
  H   H673      1.0  0.62429  0.58669  0.74379  1.0000
  H   H674      1.0  0.57370  0.60950  0.80163  1.0000
  H   H675      1.0  0.60916  0.61203  0.83230  1.0000
  H   H676      1.0  0.73462  0.93784  0.73171  1.0000
  H   H677      1.0  0.53513  0.76358  0.56421  1.0000
  H   H678      1.0  0.76185  0.90416  0.70576  1.0000
  Fe  Fe123     1.0  0.71298  0.84805  0.54198  1.0000
  H   H679      1.0  0.76437  0.85754  0.79896  1.0000
  H   H680      1.0  0.69118  0.68818  0.80224  1.0000
  C   C659      1.0  0.67401  0.68169  0.76604  1.0000
  H   H681      1.0  0.76952  0.77951  0.57873  1.0000
  N   N54       1.0  0.76202  0.99744  0.69864  1.0000
  C   C660      1.0  0.65199  0.68560  0.83159  1.0000
  H   H682      1.0  0.63607  0.92010  0.57087  1.0000
  H   H683      1.0  0.64933  0.71129  0.83693  1.0000
  C   C661      1.0  0.65725  0.96373  0.56537  1.0000
  S   S239      1.0  0.68080  0.88209  0.54535  1.0000
  H   H684      1.0  0.61219  0.66965  0.75538  1.0000
  H   H685      1.0  0.65183  0.67272  0.73269  1.0000
  C   C662      1.0  0.58010  0.86216  0.58761  1.0000
  C   C663      1.0  0.60597  0.85969  0.58823  1.0000
  C   C664      1.0  0.61854  0.85147  0.56662  1.0000
  H   H686      1.0  0.77347  0.63898  0.00555  1.0000
  C   C665      1.0  0.65625  0.99712  0.56136  1.0000
  C   C666      1.0  0.56677  0.85652  0.56531  1.0000
  H   H687      1.0  0.61632  0.86385  0.60552  1.0000
  H   H688      1.0  0.63847  0.84894  0.56735  1.0000
  C   C667      1.0  0.53977  0.00530  0.74273  1.0000
  H   H689      1.0  0.75213  0.75765  0.81892  1.0000
  H   H690      1.0  0.75543  0.94617  0.79146  1.0000
  C   C668      1.0  0.76718  0.96113  0.78006  1.0000
  N   N55       1.0  0.61277  0.96142  0.56674  1.0000
  C   C669      1.0  0.59002  0.94222  0.56950  1.0000
  H   H691      1.0  0.53688  0.54129  0.64108  1.0000
  C   C670      1.0  0.60526  0.84564  0.54432  1.0000
  C   C671      1.0  0.77718  0.94524  0.68648  1.0000
  H   H692      1.0  0.73594  0.81361  0.81296  1.0000
  S   S240      1.0  0.74126  0.70333  0.78259  1.0000
  N   N56       1.0  0.55225  0.78931  0.63187  1.0000
  N   N57       1.0  0.55156  0.53090  0.67756  1.0000
  H   H693      1.0  0.58820  0.80020  0.61839  1.0000
  C   C672      1.0  0.57935  0.84804  0.54370  1.0000
  C   C673      1.0  0.54003  0.77042  0.58326  1.0000
  C   C674      1.0  0.75290  0.84878  0.59676  1.0000
  C   C675      1.0  0.55878  0.51917  0.72102  1.0000
  H   H694      1.0  0.69149  0.68293  0.75646  1.0000
  H   H695      1.0  0.67317  0.01081  0.55835  1.0000
  C   C676      1.0  0.63332  0.01254  0.56023  1.0000
  H   H696      1.0  0.56101  0.56863  0.65269  1.0000
  H   H697      1.0  0.57786  0.78307  0.57514  1.0000
  H   H698      1.0  0.76864  0.64535  0.88567  1.0000
  C   C677      1.0  0.63519  0.94614  0.56809  1.0000
  H   H699      1.0  0.66968  0.67656  0.84008  1.0000
  H   H700      1.0  0.61265  0.67633  0.80113  1.0000
  H   H701      1.0  0.56903  0.84353  0.52645  1.0000
  C   C678      1.0  0.76445  0.77726  0.81358  1.0000
  C   C679      1.0  0.56982  0.79065  0.61395  1.0000
  S   S241      1.0  0.77128  0.61319  0.79635  1.0000
  S   S242      1.0  0.74749  0.54286  0.75038  1.0000
  H   H702      1.0  0.74558  0.81899  0.62879  1.0000
  C   C680      1.0  0.54457  0.55402  0.65788  1.0000
  C   C681      1.0  0.76801  0.87330  0.58728  1.0000
  N   N58       1.0  0.65193  0.68241  0.80436  1.0000
  C   C682      1.0  0.67374  0.68469  0.79201  1.0000
  C   C683      1.0  0.62995  0.67822  0.79137  1.0000
  H   H703      1.0  0.57305  0.95679  0.56602  1.0000
  C   C684      1.0  0.62957  0.67461  0.76543  1.0000
  C   C685      1.0  0.65179  0.67617  0.75274  1.0000
  C   C686      1.0  0.74662  0.98295  0.71526  1.0000
  C   C687      1.0  0.77122  0.83314  0.80214  1.0000
  C   C688      1.0  0.74610  0.94918  0.71782  1.0000
  C   C689      1.0  0.61162  0.99422  0.56296  1.0000
  C   C690      1.0  0.75716  0.83802  0.62135  1.0000
  H   H704      1.0  0.58924  0.93230  0.58877  1.0000
  C   C691      1.0  0.76568  0.71869  0.76472  1.0000
  C   C692      1.0  0.76442  0.75071  0.75590  1.0000
  C   C693      1.0  0.56402  0.78115  0.58941  1.0000
  C   C694      1.0  0.76378  0.99496  0.77950  1.0000
  C   C695      1.0  0.77417  0.61585  0.01524  1.0000
  C   C696      1.0  0.75534  0.80854  0.81000  1.0000
  C   C697      1.0  0.77663  0.85118  0.63623  1.0000
  H   H705      1.0  0.73533  0.99753  0.72735  1.0000
  H   H706      1.0  0.54595  0.78981  0.67112  1.0000
  H   H707      1.0  0.77775  0.51681  0.99402  1.0000
  H   H708      1.0  0.58959  0.92169  0.55604  1.0000
  C   C698      1.0  0.77725  0.97907  0.68441  1.0000
  C   C699      1.0  0.77825  0.01431  0.76403  1.0000
  C   C700      1.0  0.76155  0.93028  0.70338  1.0000
  H   H709      1.0  0.55250  0.99302  0.73065  1.0000
  H   H710      1.0  0.77989  0.67152  0.92627  1.0000
  H   H711      1.0  0.74936  0.00587  0.79027  1.0000
  H   H712      1.0  0.77463  0.75093  0.61749  1.0000
  H   H713      1.0  0.77994  0.84222  0.65494  1.0000
  Fe  Fe124     1.0  0.53136  0.60930  0.74867  1.0000
  C   C701      1.0  0.78017  0.63271  0.89926  1.0000
  Fe  Fe125     1.0  0.99662  0.06898  0.24475  1.0000
  S   S243      1.0  0.98864  0.04257  0.20871  1.0000
  S   S244      1.0  0.96778  0.07672  0.27417  1.0000
  H   H714      1.0  0.92545  0.25437  0.23095  1.0000
  C   C702      1.0  0.98308  0.47306  0.20725  1.0000
  H   H715      1.0  0.87314  0.32988  0.24505  1.0000
  C   C703      1.0  0.98650  0.21312  0.17303  1.0000
  C   C704      1.0  0.97175  0.45427  0.18821  1.0000
  H   H716      1.0  0.01331  0.43586  0.13040  1.0000
  C   C705      1.0  0.81706  0.34501  0.38849  1.0000
  H   H717      1.0  0.79824  0.06937  0.03450  1.0000
  C   C706      1.0  0.82157  0.03850  0.08691  1.0000
  S   S245      1.0  0.96363  0.31667  0.13300  1.0000
  S   S246      1.0  0.02139  0.48779  0.24061  1.0000
  Fe  Fe126     1.0  0.98447  0.30926  0.09785  1.0000
  S   S247      1.0  0.96665  0.29061  0.06205  1.0000
  S   S248      1.0  0.83919  0.24135  0.38017  1.0000
  C   C707      1.0  0.98053  0.18940  0.19055  1.0000
  H   H718      1.0  0.93488  0.25553  0.02737  1.0000
  C   C708      1.0  0.81369  0.27043  0.41794  1.0000
  H   H719      1.0  0.99776  0.22181  0.13544  1.0000
  S   S249      1.0  0.01613  0.11072  0.22707  1.0000
  Fe  Fe127     1.0  0.87907  0.14429  0.04475  1.0000
  S   S250      1.0  0.89439  0.09430  0.04802  1.0000
  S   S251      1.0  0.89079  0.17499  0.07776  1.0000
  Fe  Fe128     1.0  0.85578  0.07720  0.03907  1.0000
  C   C709      1.0  0.98536  0.16832  0.29763  1.0000
  S   S252      1.0  0.83976  0.12712  0.03830  1.0000
  Fe  Fe129     1.0  0.87098  0.21840  0.29232  1.0000
  S   S253      1.0  0.84133  0.23675  0.26591  1.0000
  S   S254      1.0  0.90569  0.20672  0.27117  1.0000
  Fe  Fe130     1.0  0.83966  0.23449  0.33811  1.0000
  Fe  Fe131     1.0  0.81522  0.20972  0.29043  1.0000
  C   C710      1.0  0.80228  0.08905  0.28669  1.0000
  Fe  Fe132     1.0  0.83738  0.27784  0.29254  1.0000
  S   S255      1.0  0.83707  0.33146  0.28527  1.0000
  S   S256      1.0  0.84505  0.18872  0.31556  1.0000
  S   S257      1.0  0.86886  0.26186  0.31737  1.0000
  H   H720      1.0  0.97391  0.49437  0.21407  1.0000
  H   H721      1.0  0.86257  0.15937  0.25505  1.0000
  N   N59       1.0  0.02122  0.13473  0.29344  1.0000
  C   C711      1.0  0.99631  0.17089  0.14341  1.0000
  C   C712      1.0  0.81973  0.34542  0.25934  1.0000
  C   C713      1.0  0.80961  0.32397  0.24152  1.0000
  C   C714      1.0  0.01765  0.43609  0.20869  1.0000
  H   H722      1.0  0.81209  0.29812  0.24373  1.0000
  H   H723      1.0  0.86119  0.13349  0.11021  1.0000
  C   C715      1.0  0.79316  0.36963  0.21769  1.0000
  Fe  Fe133     1.0  0.98810  0.36041  0.13896  1.0000
  C   C716      1.0  0.00616  0.46414  0.21742  1.0000
  C   C717      1.0  0.79282  0.06938  0.11150  1.0000
  H   H724      1.0  0.81665  0.07630  0.29708  1.0000
  C   C718      1.0  0.80309  0.39094  0.23566  1.0000
  H   H725      1.0  0.97458  0.19643  0.20886  1.0000
  C   C719      1.0  0.80915  0.06743  0.09153  1.0000
  S   S258      1.0  0.84184  0.03469  0.06164  1.0000
  H   H726      1.0  0.81579  0.13633  0.29766  1.0000
  C   C720      1.0  0.97221  0.18085  0.07119  1.0000
  H   H727      1.0  0.85085  0.33317  0.33783  1.0000
  H   H728      1.0  0.81183  0.08822  0.07961  1.0000
  C   C721      1.0  0.99149  0.14732  0.16138  1.0000
  H   H729      1.0  0.94933  0.13795  0.07396  1.0000
  C   C722      1.0  0.94430  0.25997  0.06653  1.0000
  C   C723      1.0  0.94011  0.24775  0.09039  1.0000
  C   C724      1.0  0.92325  0.22212  0.09361  1.0000
  C   C725      1.0  0.91087  0.20807  0.07295  1.0000
  C   C726      1.0  0.91515  0.22006  0.04903  1.0000
  C   C727      1.0  0.93168  0.24618  0.04586  1.0000
  H   H730      1.0  0.95003  0.25778  0.10638  1.0000
  H   H731      1.0  0.92006  0.21291  0.11215  1.0000
  C   C728      1.0  0.93864  0.07980  0.12439  1.0000
  H   H732      1.0  0.82728  0.18332  0.23069  1.0000
  C   C729      1.0  0.94834  0.11097  0.27159  1.0000
  C   C730      1.0  0.93019  0.11631  0.28945  1.0000
  C   C731      1.0  0.91613  0.14500  0.28904  1.0000
  C   C732      1.0  0.92041  0.16865  0.27091  1.0000
  C   C733      1.0  0.93809  0.16289  0.25274  1.0000
  C   C734      1.0  0.95186  0.13411  0.25297  1.0000
  H   H733      1.0  0.92737  0.09852  0.30396  1.0000
  H   H734      1.0  0.90262  0.14927  0.30321  1.0000
  H   H735      1.0  0.94141  0.18100  0.23860  1.0000
  H   H736      1.0  0.96569  0.13024  0.23918  1.0000
  C   C735      1.0  0.78361  0.13980  0.27328  1.0000
  C   C736      1.0  0.84786  0.32936  0.35806  1.0000
  S   S259      1.0  0.98668  0.25398  0.18203  1.0000
  H   H737      1.0  0.86664  0.09943  0.25730  1.0000
  C   C737      1.0  0.90165  0.34111  0.21867  1.0000
  H   H738      1.0  0.96698  0.17193  0.30490  1.0000
  S   S260      1.0  0.99851  0.10676  0.15559  1.0000
  H   H739      1.0  0.88891  0.27426  0.25341  1.0000
  S   S261      1.0  0.01391  0.27843  0.11570  1.0000
  H   H740      1.0  0.78880  0.31959  0.20669  1.0000
  C   C738      1.0  0.93055  0.29938  0.21083  1.0000
  H   H741      1.0  0.88393  0.04931  0.10151  1.0000
  C   C739      1.0  0.00644  0.41752  0.18946  1.0000
  H   H742      1.0  0.83126  0.27060  0.42815  1.0000
  C   C740      1.0  0.93468  0.35140  0.18902  1.0000
  H   H743      1.0  0.97412  0.18434  0.09120  1.0000
  C   C741      1.0  0.98694  0.48821  0.13544  1.0000
  H   H744      1.0  0.85781  0.09884  0.09045  1.0000
  H   H745      1.0  0.80755  0.32532  0.32820  1.0000
  C   C742      1.0  0.99363  0.20380  0.14920  1.0000
  C   C743      1.0  0.81222  0.25701  0.39382  1.0000
  H   H746      1.0  0.93379  0.37734  0.19462  1.0000
  Fe  Fe134     1.0  0.99468  0.28914  0.15124  1.0000
  H   H747      1.0  0.98989  0.12168  0.31485  1.0000
  S   S262      1.0  0.78371  0.18241  0.27143  1.0000
  H   H748      1.0  0.83172  0.34631  0.40269  1.0000
  H   H749      1.0  0.90069  0.14477  0.12773  1.0000
  C   C744      1.0  0.78879  0.04253  0.12708  1.0000
  C   C745      1.0  0.98272  0.20321  0.05486  1.0000
  H   H750      1.0  0.79143  0.49324  0.12588  1.0000
  C   C746      1.0  0.88937  0.32117  0.23559  1.0000
  C   C747      1.0  0.80353  0.33291  0.34702  1.0000
  H   H751      1.0  0.92741  0.03282  0.11024  1.0000
  H   H752      1.0  0.95771  0.07278  0.12844  1.0000
  C   C748      1.0  0.89812  0.28992  0.24020  1.0000
  C   C749      1.0  0.85163  0.11013  0.24632  1.0000
  C   C750      1.0  0.99844  0.13996  0.30324  1.0000
  H   H753      1.0  0.99289  0.22392  0.06253  1.0000
  N   N60       1.0  0.01045  0.48392  0.14506  1.0000
  H   H754      1.0  0.97775  0.13821  0.19794  1.0000
  Fe  Fe135     1.0  0.01062  0.08269  0.19153  1.0000
  H   H755      1.0  0.82438  0.39553  0.27002  1.0000
  C   C751      1.0  0.90639  0.12006  0.12409  1.0000
  N   N61       1.0  0.81480  0.10389  0.22039  1.0000
  H   H756      1.0  0.89461  0.36530  0.21508  1.0000
  H   H757      1.0  0.80077  0.41682  0.23348  1.0000
  H   H758      1.0  0.94412  0.12891  0.13721  1.0000
  C   C752      1.0  0.91873  0.27881  0.22765  1.0000
  C   C753      1.0  0.95823  0.15493  0.06153  1.0000
  S   S263      1.0  0.80808  0.25314  0.31446  1.0000
  C   C754      1.0  0.82972  0.15725  0.23125  1.0000
  C   C755      1.0  0.81649  0.37886  0.25634  1.0000
  H   H759      1.0  0.02721  0.20363  0.25975  1.0000
  H   H760      1.0  0.86118  0.34539  0.36840  1.0000
  C   C756      1.0  0.93102  0.11135  0.12932  1.0000
  C   C757      1.0  0.92164  0.05737  0.11429  1.0000
  C   C758      1.0  0.86389  0.10680  0.10943  1.0000
  C   C759      1.0  0.84935  0.14378  0.24506  1.0000
  C   C760      1.0  0.98357  0.42675  0.17898  1.0000
  C   C761      1.0  0.83409  0.09041  0.23375  1.0000
  N   N62       1.0  0.88983  0.09788  0.11424  1.0000
  C   C762      1.0  0.89711  0.06683  0.10943  1.0000
  S   S264      1.0  0.97014  0.40606  0.15314  1.0000
  H   H761      1.0  0.94644  0.29047  0.20100  1.0000
  H   H762      1.0  0.80429  0.07637  0.18824  1.0000
  C   C763      1.0  0.79707  0.08285  0.20678  1.0000
  S   S265      1.0  0.01758  0.33325  0.16017  1.0000
  H   H763      1.0  0.85213  0.30373  0.36270  1.0000
  N   N63       1.0  0.92224  0.33030  0.20690  1.0000
  C   C764      1.0  0.80187  0.12310  0.28699  1.0000
  H   H764      1.0  0.85181  0.09498  0.12327  1.0000
  H   H765      1.0  0.78416  0.03106  0.02747  1.0000
  C   C765      1.0  0.02531  0.45650  0.13675  1.0000
  C   C766      1.0  0.79268  0.35135  0.39519  1.0000
  C   C767      1.0  0.79644  0.33613  0.22060  1.0000
  H   H766      1.0  0.78849  0.35738  0.41433  1.0000
  H   H767      1.0  0.95397  0.46147  0.18030  1.0000
  S   S266      1.0  0.00639  0.35587  0.10180  1.0000
  H   H768      1.0  0.83563  0.06426  0.23523  1.0000
  S   S267      1.0  0.79202  0.48054  0.19968  1.0000
  H   H769      1.0  0.79703  0.14761  0.20874  1.0000
  H   H770      1.0  0.92586  0.34870  0.17016  1.0000
  H   H771      1.0  0.95470  0.34550  0.18779  1.0000
  S   S268      1.0  0.78705  0.02912  0.27023  1.0000
  C   C768      1.0  0.81256  0.13686  0.21890  1.0000
  N   N64       1.0  0.82225  0.33648  0.36454  1.0000
  C   C769      1.0  0.98269  0.15651  0.18456  1.0000
  C   C770      1.0  0.99560  0.19121  0.28169  1.0000
  H   H772      1.0  0.01580  0.39649  0.18247  1.0000
  H   H773      1.0  0.00306  0.16377  0.12542  1.0000
  H   H774      1.0  0.97871  0.47049  0.12266  1.0000
  H   H775      1.0  0.79397  0.29450  0.44729  1.0000
  H   H776      1.0  0.98521  0.21278  0.27662  1.0000
  H   H777      1.0  0.81683  0.49049  0.08795  1.0000
  C   C771      1.0  0.78460  0.07155  0.27247  1.0000
  Fe  Fe136     1.0  0.02589  0.01964  0.21528  1.0000
  C   C772      1.0  0.79258  0.28388  0.42885  1.0000
  H   H778      1.0  0.90555  0.20947  0.03303  1.0000
  C   C773      1.0  0.01905  0.18596  0.27213  1.0000
  C   C774      1.0  0.95530  0.15136  0.03577  1.0000
  H   H779      1.0  0.78775  0.24547  0.36274  1.0000
  H   H780      1.0  0.02170  0.08368  0.29899  1.0000
  N   N65       1.0  0.97904  0.20011  0.02962  1.0000
  H   H781      1.0  0.94453  0.13125  0.02810  1.0000
  H   H782      1.0  0.79351  0.06026  0.21741  1.0000
  C   C775      1.0  0.78935  0.25651  0.38096  1.0000
  H   H783      1.0  0.78305  0.09174  0.11481  1.0000
  C   C776      1.0  0.02063  0.50591  0.16157  1.0000
  C   C777      1.0  0.96602  0.17418  0.01995  1.0000
  H   H784      1.0  0.98857  0.24905  0.02115  1.0000
  C   C778      1.0  0.81216  0.51385  0.09564  1.0000
  Fe  Fe137     1.0  0.84926  0.12686  0.99755  1.0000
  H   H785      1.0  0.80175  0.04922  0.92191  1.0000
  S   S269      1.0  0.82343  0.14913  0.96829  1.0000
  H   H786      1.0  0.90624  0.26769  0.65316  1.0000
  S   S270      1.0  0.93648  0.07946  0.99401  1.0000
  S   S271      1.0  0.88733  0.14895  0.00412  1.0000
  H   H787      1.0  0.92090  0.13041  0.95995  1.0000
  S   S272      1.0  0.01065  0.40849  0.73455  1.0000
  S   S273      1.0  0.99545  0.16194  0.91591  1.0000
  Fe  Fe138     1.0  0.87112  0.35050  0.71540  1.0000
  S   S274      1.0  0.84451  0.34465  0.74660  1.0000
  S   S275      1.0  0.90960  0.32902  0.72111  1.0000
  Fe  Fe139     1.0  0.83113  0.38029  0.68050  1.0000
  C   C779      1.0  0.80111  0.48579  0.78072  1.0000
  S   S276      1.0  0.82242  0.40604  0.64390  1.0000
  Fe  Fe140     1.0  0.83143  0.39459  0.73590  1.0000
  S   S277      1.0  0.82759  0.43354  0.76516  1.0000
  Fe  Fe141     1.0  0.81730  0.32716  0.71713  1.0000
  C   C780      1.0  0.79697  0.48137  0.67566  1.0000
  S   S278      1.0  0.86020  0.40174  0.70681  1.0000
  S   S279      1.0  0.84467  0.32949  0.68633  1.0000
  H   H788      1.0  0.78321  0.39742  0.56028  1.0000
  H   H789      1.0  0.97771  0.41543  0.79131  1.0000
  H   H790      1.0  0.79041  0.16796  0.92834  1.0000
  C   C781      1.0  0.78367  0.50930  0.68104  1.0000
  H   H791      1.0  0.97393  0.28392  0.80594  1.0000
  C   C782      1.0  0.79342  0.25819  0.74537  1.0000
  C   C783      1.0  0.79219  0.33439  0.60030  1.0000
  C   C784      1.0  0.80088  0.27124  0.76847  1.0000
  C   C785      1.0  0.97142  0.05212  0.92737  1.0000
  C   C786      1.0  0.96812  0.39228  0.79268  1.0000
  C   C787      1.0  0.79949  0.07522  0.92317  1.0000
  H   H792      1.0  0.89522  0.39871  0.64737  1.0000
  C   C788      1.0  0.99468  0.07991  0.89594  1.0000
  C   C789      1.0  0.79318  0.14209  0.92685  1.0000
  C   C790      1.0  0.98256  0.38624  0.73165  1.0000
  C   C791      1.0  0.98140  0.35313  0.73719  1.0000
  C   C792      1.0  0.95897  0.33589  0.73354  1.0000
  C   C793      1.0  0.93736  0.35175  0.72509  1.0000
  C   C794      1.0  0.93841  0.38494  0.71988  1.0000
  C   C795      1.0  0.96103  0.40198  0.72283  1.0000
  H   H793      1.0  0.99793  0.34071  0.74371  1.0000
  H   H794      1.0  0.95832  0.31017  0.73747  1.0000
  H   H795      1.0  0.92192  0.39742  0.71334  1.0000
  H   H796      1.0  0.96186  0.42756  0.71839  1.0000
  H   H797      1.0  0.82372  0.08014  0.95571  1.0000
  H   H798      1.0  0.86409  0.19712  0.92808  1.0000
  C   C796      1.0  0.80862  0.12617  0.94435  1.0000
  C   C797      1.0  0.81190  0.09267  0.94236  1.0000
  C   C798      1.0  0.78406  0.09116  0.90566  1.0000
  C   C799      1.0  0.83246  0.12053  0.86810  1.0000
  H   H799      1.0  0.92260  0.29604  0.67306  1.0000
  H   H800      1.0  0.78943  0.30842  0.60147  1.0000
  S   S280      1.0  0.78333  0.19998  0.81710  1.0000
  C   C800      1.0  0.94333  0.38929  0.78486  1.0000
  S   S281      1.0  0.86222  0.07518  0.99769  1.0000
  H   H801      1.0  0.85175  0.33112  0.60335  1.0000
  C   C801      1.0  0.95308  0.10553  0.97456  1.0000
  C   C802      1.0  0.97887  0.10244  0.97341  1.0000
  C   C803      1.0  0.99228  0.12077  0.95623  1.0000
  C   C804      1.0  0.97989  0.14207  0.94000  1.0000
  C   C805      1.0  0.95421  0.14613  0.94188  1.0000
  C   C806      1.0  0.94081  0.12796  0.95919  1.0000
  H   H802      1.0  0.98843  0.08523  0.98540  1.0000
  H   H803      1.0  0.01204  0.11764  0.95505  1.0000
  H   H804      1.0  0.94458  0.16268  0.92940  1.0000
  H   H805      1.0  0.91391  0.35292  0.67080  1.0000
  C   C807      1.0  0.80243  0.46054  0.76327  1.0000
  C   C808      1.0  0.87649  0.31051  0.63147  1.0000
  H   H806      1.0  0.00947  0.21853  0.00967  1.0000
  C   C809      1.0  0.78388  0.22646  0.74421  1.0000
  C   C810      1.0  0.97237  0.07445  0.90786  1.0000
  H   H807      1.0  0.02234  0.27853  0.86608  1.0000
  N   N66       1.0  0.89394  0.31668  0.64991  1.0000
  H   H808      1.0  0.93552  0.30882  0.79519  1.0000
  C   C811      1.0  0.89023  0.37394  0.64247  1.0000
  C   C812      1.0  0.87284  0.36782  0.62330  1.0000
  C   C813      1.0  0.94477  0.33224  0.79479  1.0000
  S   S282      1.0  0.80170  0.37667  0.70914  1.0000
  N   N67       1.0  0.84284  0.17306  0.89931  1.0000
  C   C814      1.0  0.85103  0.14281  0.90585  1.0000
  C   C815      1.0  0.82950  0.17757  0.87753  1.0000
  H   H809      1.0  0.81172  0.04358  0.01154  1.0000
  C   C816      1.0  0.82435  0.15148  0.86152  1.0000
  C   C817      1.0  0.98975  0.22430  0.01292  1.0000
  H   H810      1.0  0.95608  0.08840  0.90259  1.0000
  H   H811      1.0  0.86067  0.13897  0.92362  1.0000
  H   H812      1.0  0.97951  0.22506  0.99466  1.0000
  C   C818      1.0  0.90406  0.28976  0.66474  1.0000
  H   H813      1.0  0.93348  0.41011  0.77736  1.0000
  S   S283      1.0  0.79348  0.28181  0.71801  1.0000
  C   C819      1.0  0.98075  0.36492  0.80151  1.0000
  H   H814      1.0  0.80297  0.42709  0.59610  1.0000
  C   C820      1.0  0.81815  0.47393  0.68990  1.0000
  C   C821      1.0  0.80710  0.38463  0.61928  1.0000
  H   H815      1.0  0.81372  0.15523  0.84433  1.0000
  H   H816      1.0  0.82242  0.20132  0.87247  1.0000
  C   C822      1.0  0.93148  0.35914  0.78605  1.0000
  H   H817      1.0  0.91237  0.35642  0.77942  1.0000
  H   H818      1.0  0.86425  0.38780  0.61318  1.0000
  C   C823      1.0  0.99301  0.03578  0.93487  1.0000
  H   H819      1.0  0.98480  0.30830  0.83218  1.0000
  N   N68       1.0  0.96919  0.33533  0.80212  1.0000
  H   H820      1.0  0.80802  0.29578  0.76957  1.0000
  H   H821      1.0  0.80360  0.26331  0.80820  1.0000
  H   H822      1.0  0.87041  0.28586  0.62754  1.0000
  H   H823      1.0  0.84841  0.22361  0.90645  1.0000
  C   C824      1.0  0.80296  0.35119  0.62075  1.0000
  C   C825      1.0  0.84596  0.11611  0.89037  1.0000
  H   H824      1.0  0.00205  0.30708  0.80397  1.0000
  C   C826      1.0  0.79824  0.25286  0.79034  1.0000
  C   C827      1.0  0.98301  0.30717  0.81149  1.0000
  H   H825      1.0  0.99999  0.36734  0.80759  1.0000
  H   H826      1.0  0.78542  0.43920  0.73037  1.0000
  H   H827      1.0  0.83102  0.20158  0.92951  1.0000
  H   H828      1.0  0.99223  0.01919  0.95052  1.0000
  H   H829      1.0  0.89149  0.28416  0.68031  1.0000
  C   C828      1.0  0.90068  0.34793  0.65567  1.0000
  H   H830      1.0  0.85169  0.09199  0.89601  1.0000
  H   H831      1.0  0.82780  0.09990  0.85625  1.0000
  Fe  Fe142     1.0  0.89959  0.09726  0.00691  1.0000
  H   H832      1.0  0.99580  0.09803  0.88131  1.0000
  C   C829      1.0  0.84679  0.20025  0.91662  1.0000
  C   C830      1.0  0.01580  0.06280  0.90367  1.0000
  H   H833      1.0  0.80837  0.33816  0.63751  1.0000
  C   C831      1.0  0.86582  0.33595  0.61777  1.0000
  C   C832      1.0  0.78114  0.12473  0.90742  1.0000
  C   C833      1.0  0.78823  0.22137  0.78921  1.0000
  C   C834      1.0  0.79977  0.40122  0.59743  1.0000
  H   H834      1.0  0.82835  0.45210  0.68596  1.0000
  H   H835      1.0  0.84174  0.48778  0.72101  1.0000
  H   H836      1.0  0.81452  0.48709  0.79607  1.0000
  C   C835      1.0  0.78502  0.35088  0.57837  1.0000
  H   H837      1.0  0.96356  0.17123  0.99992  1.0000
  C   C836      1.0  0.82570  0.49440  0.70952  1.0000
  N   N69       1.0  0.01481  0.04120  0.92298  1.0000
  C   C837      1.0  0.78478  0.45874  0.74373  1.0000
  H   H838      1.0  0.95436  0.04852  0.93735  1.0000
  S   S284      1.0  0.78343  0.10458  0.81918  1.0000
  H   H839      1.0  0.79083  0.46521  0.66068  1.0000
  C   C838      1.0  0.78132  0.20806  0.76605  1.0000
  C   C839      1.0  0.78312  0.51010  0.77791  1.0000
  C   C840      1.0  0.78856  0.38448  0.57710  1.0000
  H   H840      1.0  0.78491  0.11538  0.01193  1.0000
  H   H841      1.0  0.78116  0.04197  0.70458  1.0000
  C   C841      1.0  0.79391  0.05207  0.01907  1.0000
  H   H842      1.0  0.80817  0.01473  0.73823  1.0000
  Fe  Fe143     1.0  0.97263  0.58938  0.26685  1.0000
  S   S285      1.0  0.97460  0.56354  0.22998  1.0000
  S   S286      1.0  0.93688  0.59197  0.28855  1.0000
  C   C842      1.0  0.98907  0.85450  0.17215  1.0000
  C   C843      1.0  0.92023  0.66686  0.34721  1.0000
  C   C844      1.0  0.80515  0.94011  0.27004  1.0000
  Fe  Fe144     1.0  0.02182  0.78744  0.12546  1.0000
  H   H843      1.0  0.01514  0.55028  0.18218  1.0000
  C   C845      1.0  0.92410  0.70972  0.03390  1.0000
  N   N70       1.0  0.95563  0.68771  0.31390  1.0000
  C   C846      1.0  0.82699  0.60385  0.24025  1.0000
  H   H844      1.0  0.83398  0.86720  0.26919  1.0000
  S   S287      1.0  0.99361  0.81663  0.10403  1.0000
  H   H845      1.0  0.99161  0.68577  0.29814  1.0000
  Fe  Fe145     1.0  0.00690  0.78982  0.07061  1.0000
  S   S288      1.0  0.98521  0.76672  0.03877  1.0000
  H   H846      1.0  0.98870  0.83571  0.15799  1.0000
  H   H847      1.0  0.82038  0.59450  0.08518  1.0000
  N   N71       1.0  0.78885  0.90422  0.30099  1.0000
  C   C847      1.0  0.98000  0.68105  0.07369  1.0000
  H   H848      1.0  0.94784  0.88449  0.14267  1.0000
  C   C848      1.0  0.00752  0.71671  0.19239  1.0000
  Fe  Fe146     1.0  0.87483  0.65082  0.03811  1.0000
  S   S289      1.0  0.89071  0.60090  0.04143  1.0000
  S   S290      1.0  0.88877  0.68786  0.06620  1.0000
  Fe  Fe147     1.0  0.85156  0.58334  0.03563  1.0000
  S   S291      1.0  0.83648  0.53929  0.05571  1.0000
  S   S292      1.0  0.83523  0.63318  0.03558  1.0000
  Fe  Fe148     1.0  0.82565  0.71498  0.31186  1.0000
  S   S293      1.0  0.79235  0.71839  0.28566  1.0000
  S   S294      1.0  0.86342  0.71114  0.29390  1.0000
  Fe  Fe149     1.0  0.79431  0.72581  0.35820  1.0000
  H   H849      1.0  0.98949  0.69868  0.08563  1.0000
  H   H850      1.0  0.79452  0.59725  0.12278  1.0000
  C   C849      1.0  0.81611  0.63095  0.25109  1.0000
  C   C850      1.0  0.78479  0.81926  0.25628  1.0000
  S   S295      1.0  0.80766  0.68068  0.33881  1.0000
  S   S296      1.0  0.81549  0.75979  0.33366  1.0000
  C   C851      1.0  0.02556  0.92266  0.13153  1.0000
  S   S297      1.0  0.78336  0.89357  0.20667  1.0000
  C   C852      1.0  0.00724  0.70825  0.14773  1.0000
  H   H851      1.0  0.84541  0.56060  0.20963  1.0000
  H   H852      1.0  0.97246  0.55817  0.16530  1.0000
  H   H853      1.0  0.81663  0.54996  0.19427  1.0000
  C   C853      1.0  0.97583  0.65443  0.03366  1.0000
  H   H854      1.0  0.79596  0.79803  0.26006  1.0000
  C   C854      1.0  0.78902  0.93386  0.28948  1.0000
  S   S298      1.0  0.79207  0.73110  0.40031  1.0000
  C   C855      1.0  0.97345  0.69800  0.29523  1.0000
  C   C856      1.0  0.01858  0.95492  0.13566  1.0000
  H   H855      1.0  0.97698  0.87719  0.12781  1.0000
  C   C857      1.0  0.91838  0.69747  0.33628  1.0000
  H   H856      1.0  0.91559  0.69389  0.02012  1.0000
  C   C858      1.0  0.93628  0.70750  0.31946  1.0000
  C   C859      1.0  0.81420  0.57240  0.09402  1.0000
  C   C860      1.0  0.82035  0.54233  0.08393  1.0000
  H   H857      1.0  0.93083  0.63063  0.07286  1.0000
  H   H858      1.0  0.97233  0.93184  0.18125  1.0000
  C   C861      1.0  0.00712  0.53292  0.16900  1.0000
  C   C862      1.0  0.97286  0.51486  0.14261  1.0000
  H   H859      1.0  0.80484  0.96339  0.26061  1.0000
  H   H860      1.0  0.95743  0.69383  0.11483  1.0000
  C   C863      1.0  0.95717  0.74741  0.04600  1.0000
  H   H861      1.0  0.83319  0.92008  0.24682  1.0000
  H   H862      1.0  0.00390  0.69040  0.04283  1.0000
  C   C864      1.0  0.91421  0.71204  0.05766  1.0000
  C   C865      1.0  0.92559  0.73265  0.07543  1.0000
  C   C866      1.0  0.94722  0.75003  0.06972  1.0000
  C   C867      1.0  0.00097  0.87179  0.21378  1.0000
  S   S299      1.0  0.00459  0.56128  0.28384  1.0000
  H   H863      1.0  0.91793  0.73468  0.09381  1.0000
  H   H864      1.0  0.95620  0.76532  0.08368  1.0000
  C   C868      1.0  0.91439  0.62309  0.28646  1.0000
  C   C869      1.0  0.89317  0.62088  0.30110  1.0000
  C   C870      1.0  0.87650  0.64696  0.30250  1.0000
  C   C871      1.0  0.88105  0.67561  0.28938  1.0000
  C   C872      1.0  0.90161  0.67719  0.27381  1.0000
  C   C873      1.0  0.91813  0.65101  0.27223  1.0000
  H   H865      1.0  0.89006  0.59928  0.31207  1.0000
  H   H866      1.0  0.86077  0.64539  0.31457  1.0000
  H   H867      1.0  0.90512  0.69915  0.26338  1.0000
  H   H868      1.0  0.93411  0.65275  0.26053  1.0000
  S   S300      1.0  0.78987  0.51574  0.26658  1.0000
  H   H869      1.0  0.99163  0.92115  0.22264  1.0000
  C   C874      1.0  0.93983  0.64668  0.34119  1.0000
  H   H870      1.0  0.95713  0.65047  0.11965  1.0000
  C   C875      1.0  0.94727  0.64310  0.06650  1.0000
  C   C876      1.0  0.78986  0.83932  0.23577  1.0000
  C   C877      1.0  0.02154  0.96899  0.15948  1.0000
  H   H871      1.0  0.82322  0.53546  0.22558  1.0000
  C   C878      1.0  0.00413  0.67478  0.15149  1.0000
  H   H872      1.0  0.81115  0.56712  0.29642  1.0000
  Fe  Fe150     1.0  0.02551  0.85080  0.09791  1.0000
  H   H873      1.0  0.95406  0.51782  0.13534  1.0000
  C   C879      1.0  0.80540  0.88089  0.29449  1.0000
  C   C880      1.0  0.79116  0.54541  0.12690  1.0000
  S   S301      1.0  0.78987  0.98876  0.20639  1.0000
  C   C881      1.0  0.94536  0.72763  0.02800  1.0000
  H   H874      1.0  0.94076  0.62217  0.34852  1.0000
  H   H875      1.0  0.00840  0.82424  0.19900  1.0000
  C   C882      1.0  0.95523  0.63755  0.04223  1.0000
  H   H876      1.0  0.80492  0.83345  0.22366  1.0000
  C   C883      1.0  0.82536  0.55636  0.21270  1.0000
  S   S302      1.0  0.99685  0.63136  0.25593  1.0000
  H   H877      1.0  0.00359  0.67385  0.21483  1.0000
  C   C884      1.0  0.00899  0.72923  0.16821  1.0000
  C   C885      1.0  0.00018  0.84779  0.19543  1.0000
  H   H878      1.0  0.79837  0.99283  0.13442  1.0000
  C   C886      1.0  0.79951  0.57390  0.11531  1.0000
  C   C887      1.0  0.95740  0.65749  0.32429  1.0000
  H   H879      1.0  0.97697  0.72455  0.29628  1.0000
  H   H880      1.0  0.90250  0.71269  0.33982  1.0000
  Fe  Fe151     1.0  0.02917  0.60118  0.26991  1.0000
  C   C888      1.0  0.98837  0.67629  0.04949  1.0000
  C   C889      1.0  0.96782  0.89109  0.14268  1.0000
  N   N72       1.0  0.95946  0.66489  0.08176  1.0000
  H   H881      1.0  0.93403  0.73073  0.31022  1.0000
  H   H882      1.0  0.01569  0.99367  0.16261  1.0000
  S   S303      1.0  0.01289  0.77119  0.16418  1.0000
  H   H883      1.0  0.97186  0.64098  0.31879  1.0000
  H   H884      1.0  0.00818  0.71780  0.12907  1.0000
  C   C890      1.0  0.99045  0.90196  0.20878  1.0000
  S   S304      1.0  0.01968  0.90480  0.10201  1.0000
  H   H885      1.0  0.94518  0.62080  0.02994  1.0000
  N   N73       1.0  0.97937  0.88445  0.16718  1.0000
  C   C891      1.0  0.97962  0.90791  0.18524  1.0000
  H   H886      1.0  0.93003  0.67112  0.10696  1.0000
  Fe  Fe152     1.0  0.00095  0.60360  0.22002  1.0000
  Fe  Fe153     1.0  0.00846  0.53922  0.24591  1.0000
  H   H887      1.0  0.00887  0.73287  0.20827  1.0000
  N   N74       1.0  0.81386  0.58510  0.22338  1.0000
  C   C892      1.0  0.00454  0.68328  0.19615  1.0000
  H   H888      1.0  0.01009  0.86723  0.23169  1.0000
  C   C893      1.0  0.79219  0.57348  0.29164  1.0000
  S   S305      1.0  0.99873  0.62035  0.18003  1.0000
  C   C894      1.0  0.78966  0.59202  0.21743  1.0000
  C   C895      1.0  0.82130  0.91596  0.26254  1.0000
  C   C896      1.0  0.95067  0.67025  0.10707  1.0000
  H   H889      1.0  0.96609  0.69187  0.27625  1.0000
  H   H890      1.0  0.82707  0.98914  0.09901  1.0000
  H   H891      1.0  0.01054  0.96892  0.12046  1.0000
  H   H892      1.0  0.84596  0.59780  0.24556  1.0000
  H   H893      1.0  0.00300  0.65854  0.13567  1.0000
  H   H894      1.0  0.90591  0.65829  0.35948  1.0000
  C   C897      1.0  0.00279  0.66226  0.17573  1.0000
  H   H895      1.0  0.97000  0.91707  0.13754  1.0000
  H   H896      1.0  0.82655  0.64578  0.26451  1.0000
  C   C898      1.0  0.82172  0.88631  0.27505  1.0000
  H   H897      1.0  0.80538  0.85742  0.30370  1.0000
  H   H898      1.0  0.79424  0.61963  0.31056  1.0000
  C   C899      1.0  0.98310  0.53735  0.15947  1.0000
  C   C900      1.0  0.81763  0.01168  0.10252  1.0000
  C   C901      1.0  0.78263  0.60318  0.29967  1.0000
  C   C902      1.0  0.79147  0.63829  0.24499  1.0000
  C   C903      1.0  0.79776  0.51534  0.11713  1.0000
  H   H899      1.0  0.78252  0.65861  0.25381  1.0000
  C   C904      1.0  0.80139  0.01369  0.12261  1.0000
  H   H900      1.0  0.78155  0.74879  0.45098  1.0000
  Fe  Fe154     1.0  0.78090  0.76004  0.30951  1.0000
  Fe  Fe155     1.0  0.84079  0.63199  0.99409  1.0000
  H   H901      1.0  0.98173  0.65097  0.01465  1.0000
  S   S306      1.0  0.81146  0.65209  0.96740  1.0000
  C   C905      1.0  0.00150  0.92236  0.71716  1.0000
  S   S307      1.0  0.92615  0.58437  0.98082  1.0000
  S   S308      1.0  0.87886  0.65453  0.99666  1.0000
  H   H902      1.0  0.92993  0.65504  0.97732  1.0000
  H   H903      1.0  0.83987  0.61621  0.87187  1.0000
  S   S309      1.0  0.00789  0.67681  0.93524  1.0000
  Fe  Fe156     1.0  0.86889  0.87518  0.72450  1.0000
  S   S310      1.0  0.84430  0.84998  0.75163  1.0000
  S   S311      1.0  0.90528  0.89706  0.73937  1.0000
  Fe  Fe157     1.0  0.82807  0.87290  0.68298  1.0000
  S   S312      1.0  0.80072  0.84788  0.70729  1.0000
  H   H904      1.0  0.86422  0.66683  0.93829  1.0000
  Fe  Fe158     1.0  0.81421  0.88267  0.73705  1.0000
  H   H905      1.0  0.79315  0.74961  0.66038  1.0000
  Fe  Fe159     1.0  0.83312  0.81764  0.71961  1.0000
  S   S313      1.0  0.83104  0.76319  0.72350  1.0000
  S   S314      1.0  0.83923  0.91017  0.71181  1.0000
  S   S315      1.0  0.86012  0.84025  0.69319  1.0000
  C   C906      1.0  0.86881  0.59335  0.89416  1.0000
  H   H906      1.0  0.01067  0.98267  0.75883  1.0000
  C   C907      1.0  0.80551  0.74629  0.73889  1.0000
  H   H907      1.0  0.90200  0.55066  0.90653  1.0000
  C   C908      1.0  0.78772  0.88616  0.60205  1.0000
  H   H908      1.0  0.01969  0.91127  0.71786  1.0000
  H   H909      1.0  0.86925  0.57223  0.88212  1.0000
  H   H910      1.0  0.84319  0.80888  0.80163  1.0000
  H   H911      1.0  0.95301  0.72549  0.00963  1.0000
  H   H912      1.0  0.94498  0.91239  0.68848  1.0000
  H   H913      1.0  0.78947  0.93076  0.67535  1.0000
  H   H914      1.0  0.96782  0.97785  0.74686  1.0000
  Fe  Fe160     1.0  0.89237  0.60347  0.99982  1.0000
  H   H915      1.0  0.84607  0.82219  0.63904  1.0000
  C   C909      1.0  0.98291  0.85273  0.74510  1.0000
  C   C910      1.0  0.97627  0.87789  0.76099  1.0000
  C   C911      1.0  0.95192  0.88995  0.76002  1.0000
  C   C912      1.0  0.93393  0.87681  0.74337  1.0000
  C   C913      1.0  0.94026  0.85057  0.72835  1.0000
  C   C914      1.0  0.96469  0.83865  0.72919  1.0000
  H   H916      1.0  0.99002  0.88869  0.77351  1.0000
  H   H917      1.0  0.94713  0.91021  0.77174  1.0000
  H   H918      1.0  0.92664  0.84035  0.71537  1.0000
  H   H919      1.0  0.96966  0.81907  0.71691  1.0000
  H   H920      1.0  0.79601  0.74629  0.81095  1.0000
  C   C915      1.0  0.79183  0.52942  0.70068  1.0000
  C   C916      1.0  0.80222  0.63169  0.93968  1.0000
  H   H921      1.0  0.93514  0.95645  0.71792  1.0000
  H   H922      1.0  0.01608  0.71567  0.87592  1.0000
  C   C917      1.0  0.78917  0.60191  0.89371  1.0000
  C   C918      1.0  0.80410  0.58572  0.91152  1.0000
  C   C919      1.0  0.81069  0.60056  0.93438  1.0000
  H   H923      1.0  0.80817  0.84537  0.79169  1.0000
  H   H924      1.0  0.79975  0.90451  0.59435  1.0000
  C   C920      1.0  0.78946  0.78666  0.57903  1.0000
  H   H925      1.0  0.82272  0.58815  0.94760  1.0000
  C   C921      1.0  0.94920  0.61075  0.96956  1.0000
  C   C922      1.0  0.97069  0.59744  0.95967  1.0000
  C   C923      1.0  0.98903  0.61755  0.94956  1.0000
  C   C924      1.0  0.98580  0.65114  0.94897  1.0000
  C   C925      1.0  0.96449  0.66455  0.95920  1.0000
  C   C926      1.0  0.94628  0.64443  0.96960  1.0000
  H   H926      1.0  0.97310  0.57140  0.95963  1.0000
  H   H927      1.0  0.00539  0.60697  0.94173  1.0000
  H   H928      1.0  0.96195  0.69056  0.95892  1.0000
  H   H929      1.0  0.78841  0.59041  0.98391  1.0000
  C   C927      1.0  0.80029  0.96622  0.75081  1.0000
  C   C928      1.0  0.88247  0.62149  0.93072  1.0000
  C   C929      1.0  0.80655  0.71404  0.74719  1.0000
  C   C930      1.0  0.90091  0.56902  0.92161  1.0000
  C   C931      1.0  0.83081  0.78818  0.79632  1.0000
  C   C932      1.0  0.79609  0.82606  0.79801  1.0000
  H   H930      1.0  0.83751  0.76654  0.80676  1.0000
  C   C933      1.0  0.02786  0.72055  0.99320  1.0000
  H   H931      1.0  0.78982  0.99055  0.67160  1.0000
  H   H932      1.0  0.83445  0.56108  0.72813  1.0000
  C   C934      1.0  0.86588  0.64664  0.92545  1.0000
  C   C935      1.0  0.95401  0.94760  0.71699  1.0000
  H   H933      1.0  0.91994  0.57888  0.92521  1.0000
  N   N75       1.0  0.80493  0.79535  0.80171  1.0000
  H   H934      1.0  0.78100  0.55062  0.70521  1.0000
  C   C936      1.0  0.98342  0.91003  0.70046  1.0000
  C   C937      1.0  0.81995  0.80622  0.61034  1.0000
  C   C938      1.0  0.97254  0.95937  0.73345  1.0000
  C   C939      1.0  0.02604  0.79803  0.82986  1.0000
  C   C940      1.0  0.82108  0.78538  0.65241  1.0000
  N   N76       1.0  0.99598  0.94691  0.73321  1.0000
  C   C941      1.0  0.83072  0.80595  0.63436  1.0000
  H   H935      1.0  0.79978  0.76962  0.56720  1.0000
  H   H936      1.0  0.01043  0.72260  0.98270  1.0000
  H   H937      1.0  0.78791  0.67562  0.76694  1.0000
  S   S316      1.0  0.01406  0.83991  0.74312  1.0000
  C   C942      1.0  0.82089  0.54314  0.73512  1.0000
  H   H938      1.0  0.83730  0.66387  0.90004  1.0000
  H   H939      1.0  0.89483  0.55663  0.93886  1.0000
  H   H940      1.0  0.81110  0.56186  0.90731  1.0000
  C   C943      1.0  0.78939  0.77099  0.80912  1.0000
  N   N77       1.0  0.78462  0.55930  0.01542  1.0000
  S   S317      1.0  0.85459  0.58089  0.99382  1.0000
  C   C944      1.0  0.85081  0.64505  0.90392  1.0000
  H   H941      1.0  0.82724  0.82283  0.59660  1.0000
  H   H942      1.0  0.98762  0.88967  0.68851  1.0000
  H   H943      1.0  0.78337  0.78947  0.73699  1.0000
  C   C945      1.0  0.85228  0.61830  0.88811  1.0000
  H   H944      1.0  0.01615  0.94107  0.76739  1.0000
  H   H945      1.0  0.82286  0.69973  0.74381  1.0000
  C   C946      1.0  0.01487  0.95819  0.75142  1.0000
  H   H946      1.0  0.89410  0.62277  0.94751  1.0000
  N   N78       1.0  0.81244  0.52161  0.71480  1.0000
  N   N79       1.0  0.79998  0.78673  0.60453  1.0000
  C   C947      1.0  0.79048  0.76634  0.62208  1.0000
  H   H947      1.0  0.82963  0.52900  0.75063  1.0000
  H   H948      1.0  0.81438  0.95552  0.73970  1.0000
  N   N80       1.0  0.88380  0.59534  0.91513  1.0000
  C   C948      1.0  0.78516  0.94660  0.76535  1.0000
  H   H949      1.0  0.83259  0.78336  0.77607  1.0000
  C   C949      1.0  0.79230  0.87490  0.62647  1.0000
  S   S318      1.0  0.81870  0.88939  0.64348  1.0000
  C   C950      1.0  0.79362  0.53060  0.00243  1.0000
  C   C951      1.0  0.95954  0.92276  0.70044  1.0000
  H   H950      1.0  0.80414  0.51455  0.01556  1.0000
  H   H951      1.0  0.82916  0.78495  0.67116  1.0000
  H   H952      1.0  0.02686  0.76927  0.00771  1.0000
  C   C952      1.0  0.79676  0.99988  0.75005  1.0000
  S   S319      1.0  0.78691  0.90388  0.76378  1.0000
  C   C953      1.0  0.02566  0.78445  0.80603  1.0000
  H   H953      1.0  0.80503  0.55625  0.74323  1.0000
  H   H954      1.0  0.78281  0.53010  0.79097  1.0000
  C   C954      1.0  0.80081  0.76547  0.64631  1.0000
  H   H955      1.0  0.02344  0.79984  0.78968  1.0000
  H   H956      1.0  0.80662  0.53747  0.98754  1.0000
  H   H957      1.0  0.79022  0.81135  0.57070  1.0000
  C   C955      1.0  0.78676  0.70031  0.76023  1.0000
  C   C956      1.0  0.78439  0.76463  0.74333  1.0000
  C   C957      1.0  0.78282  0.58829  0.00312  1.0000
  S   S320      1.0  0.78428  0.58387  0.86412  1.0000
  C   C958      1.0  0.78663  0.64749  0.92223  1.0000
  H   H958      1.0  0.02455  0.82408  0.83220  1.0000
  C   C959      1.0  0.02836  0.75101  0.80334  1.0000
  H   H959      1.0  0.02824  0.74029  0.78486  1.0000
  C   C960      1.0  0.02910  0.77792  0.85073  1.0000
  H   H960      1.0  0.02984  0.78886  0.86914  1.0000
