data_image0
_chemical_formula_structural       FeS2NH3CSH4CHCHFeC2H2C4HC3H2C3SHC6NC2H2CS2CHCHC3H2SFeSCFeS2Fe2S3HCNC6H6CSC2H5CHCHC4H2SCHCHCHC2HCHC2NC2HC2H3CFeNH3CHC3H3CH3S2FeSFeHSFeS2HFe2S4FeSNC6FeH3C6H4CHCSHC4HFeNC6H12CFeHC2HS2HS2NC3HC2H2C2SCH5CH3SHC2HCH3NHSC2H3CH3C4HC3HNC3FeCHCSC2H4CH4C2SH3CH2SHCHNFeSCHSFeSCS2FeSHSHFeHC7HCH2CH3CH4SHFeHSCFeSFeHCHFeS2FeH2CSHFeSHSFeSFeSHC6H4CHSHC2HSFeNFeHC2SCH2CSCH2CH2CHC2H3C3HNCH4C4SHSH2C3HCSHCHC3FeHCH2C4HFeH2C2NCHCHNHCHCHCHC3FeS2CHFeHFeS3FeSCFeSFeSH2C6H4C6H5SHCNCHCNC6H6S2H2FeCFeCSHCSC2H3CNH3CH2CS2HC6H3CFeS2FeS3C6H9CH4C5H3NSNC3SHC3H2CH2CHCH2C2H5CH2CHSCFeSC2HSHCFeC2SHCSNSH2CFeHC3SH2C4H2C6H4NC3H5NCSHSHC4HC2HC2HS2HC2HCSH3FeH2NSFeH
_chemical_formula_sum              "Fe48 S96 N24 H288 C288"
_cell_length_a       29.5444
_cell_length_b       41.9216
_cell_length_c       26.1969
_cell_angle_alpha    89.7861
_cell_angle_beta     102.963
_cell_angle_gamma    89.859

_space_group_name_H-M_alt    "P 1"
_space_group_IT_number       1

loop_
  _space_group_symop_operation_xyz
  'x, y, z'

loop_
  _atom_site_type_symbol
  _atom_site_label
  _atom_site_symmetry_multiplicity
  _atom_site_fract_x
  _atom_site_fract_y
  _atom_site_fract_z
  _atom_site_occupancy
  Fe  Fe1       1.0  0.15432  0.32987  0.35939  1.0000
  S   S1        1.0  0.40457  0.07329  0.10784  1.0000
  S   S2        1.0  0.13916  0.28499  0.30899  1.0000
  N   N1        1.0  0.15972  0.13666  0.04302  1.0000
  H   H1        1.0  0.41876  0.14195  0.12728  1.0000
  H   H2        1.0  0.09897  0.16031  0.05519  1.0000
  H   H3        1.0  0.06266  0.25712  0.11486  1.0000
  C   C1        1.0  0.44761  0.02858  0.39749  1.0000
  S   S3        1.0  0.16424  0.33993  0.44624  1.0000
  H   H4        1.0  0.11681  0.23421  0.23539  1.0000
  H   H5        1.0  0.00561  0.25806  0.07112  1.0000
  H   H6        1.0  0.02041  0.31145  0.25218  1.0000
  H   H7        1.0  0.19699  0.17855  0.07142  1.0000
  C   C2        1.0  0.99908  0.04273  0.03375  1.0000
  H   H8        1.0  0.09973  0.05850  0.07015  1.0000
  C   C3        1.0  0.47449  0.03574  0.50676  1.0000
  H   H9        1.0  0.06517  0.27052  0.36452  1.0000
  Fe  Fe2       1.0  0.47060  0.07066  0.17269  1.0000
  C   C4        1.0  0.11679  0.08039  0.06268  1.0000
  C   C5        1.0  0.00390  0.29315  0.22514  1.0000
  H   H10       1.0  0.05423  0.19354  0.21832  1.0000
  H   H11       1.0  0.32565  0.08031  0.02300  1.0000
  C   C6        1.0  0.18210  0.10811  0.04215  1.0000
  C   C7        1.0  0.37514  0.10787  0.07829  1.0000
  C   C8        1.0  0.11681  0.13772  0.05459  1.0000
  C   C9        1.0  0.01677  0.01265  0.02509  1.0000
  H   H12       1.0  0.43708  0.02562  0.35548  1.0000
  C   C10       1.0  0.36727  0.16540  0.06669  1.0000
  C   C11       1.0  0.38974  0.13869  0.09425  1.0000
  C   C12       1.0  0.02620  0.24881  0.10912  1.0000
  H   H13       1.0  0.05588  0.29481  0.17981  1.0000
  H   H14       1.0  0.37925  0.18915  0.07881  1.0000
  C   C13       1.0  0.02398  0.28347  0.18415  1.0000
  C   C14       1.0  0.43737  0.01559  0.48569  1.0000
  C   C15       1.0  0.16091  0.07954  0.05177  1.0000
  S   S4        1.0  0.99431  0.14947  0.13101  1.0000
  H   H15       1.0  0.00350  0.22899  0.34858  1.0000
  C   C16       1.0  0.02421  0.20857  0.28186  1.0000
  C   C17       1.0  0.02804  0.23022  0.32357  1.0000
  C   C18       1.0  0.06298  0.25380  0.33273  1.0000
  C   C19       1.0  0.09510  0.25546  0.30086  1.0000
  C   C20       1.0  0.09188  0.23331  0.25995  1.0000
  C   C21       1.0  0.05638  0.21025  0.25009  1.0000
  N   N2        1.0  0.00487  0.25912  0.15175  1.0000
  C   C22       1.0  0.09460  0.10963  0.06419  1.0000
  C   C23       1.0  0.42397  0.01229  0.43090  1.0000
  H   H16       1.0  0.06011  0.11049  0.07221  1.0000
  H   H17       1.0  0.02671  0.22231  0.10703  1.0000
  C   C24       1.0  0.33721  0.10408  0.03552  1.0000
  S   S5        1.0  0.00605  0.05662  0.09874  1.0000
  S   S6        1.0  0.47753  0.03078  0.23241  1.0000
  C   C25       1.0  0.18237  0.16652  0.03365  1.0000
  H   H18       1.0  0.17858  0.05691  0.05089  1.0000
  C   C26       1.0  0.33026  0.16156  0.02287  1.0000
  H   H19       1.0  0.27120  0.06161  0.51533  1.0000
  C   C27       1.0  0.47784  0.12469  0.03402  1.0000
  C   C28       1.0  0.48478  0.04866  0.41856  1.0000
  C   C29       1.0  0.47284  0.15760  0.02669  1.0000
  H   H20       1.0  0.21648  0.10731  0.03389  1.0000
  H   H21       1.0  0.16187  0.07718  0.79667  1.0000
  S   S7        1.0  0.41170  0.06779  0.75831  1.0000
  Fe  Fe3       1.0  0.14281  0.17382  0.88784  1.0000
  S   S8        1.0  0.17691  0.22031  0.91595  1.0000
  C   C30       1.0  0.14559  0.06188  0.82072  1.0000
  Fe  Fe4       1.0  0.20474  0.16139  0.81231  1.0000
  S   S9        1.0  0.24465  0.20666  0.83376  1.0000
  S   S10       1.0  0.21232  0.12277  0.75544  1.0000
  Fe  Fe5       1.0  0.24361  0.19338  0.91712  1.0000
  Fe  Fe6       1.0  0.17440  0.22952  0.83021  1.0000
  S   S11       1.0  0.15334  0.27338  0.77788  1.0000
  S   S12       1.0  0.20903  0.14665  0.89509  1.0000
  S   S13       1.0  0.13502  0.18461  0.80280  1.0000
  H   H22       1.0  0.21106  0.16239  0.01322  1.0000
  C   C31       1.0  0.30531  0.10538  0.62624  1.0000
  N   N3        1.0  0.15932  0.03076  0.82962  1.0000
  C   C32       1.0  0.35658  0.08170  0.76260  1.0000
  C   C33       1.0  0.31687  0.06409  0.74097  1.0000
  C   C34       1.0  0.27273  0.07683  0.73950  1.0000
  C   C35       1.0  0.26809  0.10678  0.76127  1.0000
  C   C36       1.0  0.30778  0.12389  0.78506  1.0000
  C   C37       1.0  0.35204  0.11151  0.78512  1.0000
  H   H23       1.0  0.32000  0.04089  0.72434  1.0000
  H   H24       1.0  0.24212  0.06358  0.72088  1.0000
  H   H25       1.0  0.30428  0.14715  0.80158  1.0000
  H   H26       1.0  0.38271  0.12529  0.80163  1.0000
  H   H27       1.0  0.37631  0.07277  0.94571  1.0000
  H   H28       1.0  0.48601  0.03809  0.54874  1.0000
  C   C38       1.0  0.09373  0.32189  0.73655  1.0000
  S   S14       1.0  0.30605  0.19562  0.98616  1.0000
  C   C39       1.0  0.09235  0.30686  0.82531  1.0000
  C   C40       1.0  0.34213  0.06870  0.55737  1.0000
  H   H29       1.0  0.35029  0.10566  0.90622  1.0000
  H   H30       1.0  0.10492  0.29221  0.85968  1.0000
  H   H31       1.0  0.43339  0.19515  0.98024  1.0000
  H   H32       1.0  0.42889  0.05259  0.59671  1.0000
  H   H33       1.0  0.45149  0.07867  0.00700  1.0000
  C   C41       1.0  0.29398  0.07285  0.54863  1.0000
  H   H34       1.0  0.09951  0.09920  0.83534  1.0000
  C   C42       1.0  0.01306  0.26999  0.67990  1.0000
  H   H35       1.0  0.43658  0.09471  0.58638  1.0000
  C   C43       1.0  0.10225  0.02310  0.88102  1.0000
  C   C44       1.0  0.00964  0.20893  0.96964  1.0000
  C   C45       1.0  0.01875  0.24819  0.76653  1.0000
  C   C46       1.0  0.11021  0.30245  0.78071  1.0000
  H   H36       1.0  0.38238  0.15802  0.92087  1.0000
  H   H37       1.0  0.06734  0.21117  0.93123  1.0000
  S   S15       1.0  0.09131  0.14423  0.91735  1.0000
  C   C47       1.0  0.04390  0.19577  0.94610  1.0000
  H   H38       1.0  0.37613  0.11136  0.66768  1.0000
  C   C48       1.0  0.04769  0.16257  0.94239  1.0000
  H   H39       1.0  0.28695  0.12726  0.97412  1.0000
  C   C49       1.0  0.27553  0.09119  0.58352  1.0000
  H   H40       1.0  0.23823  0.09433  0.57765  1.0000
  C   C50       1.0  0.01746  0.14279  0.96167  1.0000
  C   C51       1.0  0.42121  0.07696  0.60908  1.0000
  H   H41       1.0  0.10707  0.31843  0.70175  1.0000
  C   C52       1.0  0.11020  0.07446  0.84233  1.0000
  H   H42       1.0  0.21148  0.32678  0.58401  1.0000
  C   C53       1.0  0.99090  0.01960  0.93067  1.0000
  C   C54       1.0  0.05853  0.33065  0.82569  1.0000
  N   N4        1.0  0.37096  0.08200  0.60021  1.0000
  C   C55       1.0  0.03239  0.24784  0.71888  1.0000
  C   C56       1.0  0.08847  0.05493  0.87276  1.0000
  H   H43       1.0  0.43825  0.07893  0.65141  1.0000
  C   C57       1.0  0.44823  0.10419  0.99998  1.0000
  C   C58       1.0  0.38417  0.09425  0.92427  1.0000
  H   H44       1.0  0.18013  0.00849  0.76600  1.0000
  H   H45       1.0  0.02030  0.11717  0.95863  1.0000
  H   H46       1.0  0.22159  0.03653  0.80203  1.0000
  C   C59       1.0  0.40963  0.14842  0.95206  1.0000
  Fe  Fe7       1.0  0.40894  0.02026  0.71779  1.0000
  N   N5        1.0  0.41440  0.11617  0.95994  1.0000
  H   H47       1.0  0.05883  0.23113  0.71285  1.0000
  H   H48       1.0  0.15694  0.18268  0.00823  1.0000
  H   H49       1.0  0.06060  0.06435  0.88932  1.0000
  C   C60       1.0  0.35325  0.10062  0.63391  1.0000
  H   H50       1.0  0.29134  0.11953  0.65384  1.0000
  C   C61       1.0  0.43857  0.16960  0.98544  1.0000
  C   C62       1.0  0.19578  0.01786  0.80563  1.0000
  C   C63       1.0  0.13766  0.01123  0.85866  1.0000
  H   H51       1.0  0.40131  0.08674  0.89253  1.0000
  H   H52       1.0  0.04508  0.33401  0.86046  1.0000
  H   H53       1.0  0.02430  0.26979  0.64324  1.0000
  C   C64       1.0  0.31502  0.13072  0.00781  1.0000
  H   H54       1.0  0.00657  0.23452  0.97281  1.0000
  H   H55       1.0  0.35626  0.05407  0.53044  1.0000
  H   H56       1.0  0.03431  0.23161  0.79750  1.0000
  S   S16       1.0  0.35491  0.00838  0.64592  1.0000
  S   S17       1.0  0.19583  0.41311  0.41946  1.0000
  Fe  Fe8       1.0  0.18428  0.39732  0.33625  1.0000
  S   S18       1.0  0.19494  0.42996  0.27169  1.0000
  Fe  Fe9       1.0  0.42634  0.56218  0.16613  1.0000
  H   H57       1.0  0.03267  0.48800  0.31111  1.0000
  S   S19       1.0  0.43392  0.56581  0.08073  1.0000
  Fe  Fe10      1.0  0.36551  0.59231  0.23521  1.0000
  S   S20       1.0  0.40873  0.57201  0.31019  1.0000
  S   S21       1.0  0.29958  0.62246  0.22242  1.0000
  H   H58       1.0  0.34647  0.37950  0.24117  1.0000
  Fe  Fe11      1.0  0.47117  0.58540  0.27887  1.0000
  Fe  Fe12      1.0  0.40836  0.52741  0.26279  1.0000
  S   S22       1.0  0.40001  0.48141  0.30469  1.0000
  S   S23       1.0  0.42809  0.60959  0.20715  1.0000
  S   S24       1.0  0.36090  0.54659  0.18979  1.0000
  S   S25       1.0  0.03544  0.62448  0.40147  1.0000
  Fe  Fe13      1.0  0.06461  0.62939  0.32943  1.0000
  S   S26       1.0  0.13748  0.60775  0.34567  1.0000
  N   N6        1.0  0.38746  0.38283  0.39194  1.0000
  C   C65       1.0  0.25547  0.61999  0.25841  1.0000
  C   C66       1.0  0.21045  0.63099  0.23544  1.0000
  C   C67       1.0  0.17402  0.62812  0.26197  1.0000
  C   C68       1.0  0.18237  0.61415  0.31179  1.0000
  C   C69       1.0  0.22756  0.60367  0.33507  1.0000
  C   C70       1.0  0.26405  0.60698  0.30887  1.0000
  Fe  Fe14      1.0  0.00086  0.67155  0.37891  1.0000
  H   H59       1.0  0.13945  0.63636  0.24361  1.0000
  H   H60       1.0  0.23449  0.59313  0.37381  1.0000
  H   H61       1.0  0.29887  0.59952  0.32774  1.0000
  C   C71       1.0  0.34296  0.46713  0.29475  1.0000
  C   C72       1.0  0.32885  0.45136  0.33579  1.0000
  C   C73       1.0  0.28373  0.43916  0.32851  1.0000
  C   C74       1.0  0.25232  0.44323  0.28038  1.0000
  C   C75       1.0  0.26634  0.45902  0.23932  1.0000
  C   C76       1.0  0.31170  0.47090  0.24642  1.0000
  H   H62       1.0  0.35262  0.44904  0.37355  1.0000
  H   H63       1.0  0.27300  0.42716  0.36042  1.0000
  H   H64       1.0  0.24211  0.46196  0.20195  1.0000
  H   H65       1.0  0.32255  0.48270  0.21442  1.0000
  C   C77       1.0  0.46957  0.64068  0.06519  1.0000
  H   H66       1.0  0.20359  0.64149  0.19665  1.0000
  C   C78       1.0  0.06896  0.54202  0.38578  1.0000
  S   S27       1.0  0.08218  0.41704  0.45510  1.0000
  H   H67       1.0  0.37870  0.40476  0.46179  1.0000
  C   C79       1.0  0.03334  0.39988  0.47176  1.0000
  C   C80       1.0  0.47171  0.50900  0.05279  1.0000
  C   C81       1.0  0.34813  0.36632  0.36972  1.0000
  C   C82       1.0  0.02484  0.36698  0.46866  1.0000
  H   H68       1.0  0.43772  0.39258  0.46291  1.0000
  Fe  Fe15      1.0  0.12959  0.38694  0.41907  1.0000
  N   N7        1.0  0.23690  0.53195  0.27174  1.0000
  C   C83       1.0  0.28154  0.53438  0.30043  1.0000
  C   C84       1.0  0.20333  0.51845  0.29320  1.0000
  C   C85       1.0  0.29323  0.52409  0.35258  1.0000
  C   C86       1.0  0.21393  0.50744  0.34501  1.0000
  C   C87       1.0  0.25915  0.51048  0.37491  1.0000
  C   C88       1.0  0.22472  0.54314  0.21729  1.0000
  H   H69       1.0  0.30841  0.54445  0.28315  1.0000
  H   H70       1.0  0.16828  0.51567  0.26995  1.0000
  H   H71       1.0  0.32884  0.52588  0.37485  1.0000
  H   H72       1.0  0.18746  0.49599  0.36137  1.0000
  H   H73       1.0  0.26802  0.50161  0.41486  1.0000
  H   H74       1.0  0.25392  0.55612  0.20617  1.0000
  H   H75       1.0  0.21531  0.52257  0.19048  1.0000
  H   H76       1.0  0.19504  0.56013  0.21182  1.0000
  H   H77       1.0  0.02153  0.47443  0.41868  1.0000
  H   H78       1.0  0.30143  0.35192  0.29766  1.0000
  H   H79       1.0  0.32773  0.35491  0.39428  1.0000
  H   H80       1.0  0.06941  0.55707  0.35213  1.0000
  C   C89       1.0  0.33314  0.36450  0.31519  1.0000
  Fe  Fe16      1.0  0.22996  0.36582  0.44046  1.0000
  H   H81       1.0  0.44259  0.41232  0.37843  1.0000
  C   C90       1.0  0.09594  0.55073  0.43468  1.0000
  C   C91       1.0  0.40056  0.38609  0.44905  1.0000
  H   H82       1.0  0.47088  0.50012  0.09141  1.0000
  S   S28       1.0  0.00297  0.60618  0.27649  1.0000
  S   S29       1.0  0.30083  0.36213  0.49689  1.0000
  H   H83       1.0  0.39498  0.36328  0.46857  1.0000
  S   S30       1.0  0.11484  0.37527  0.33347  1.0000
  S   S31       1.0  0.47349  0.53911  0.23586  1.0000
  N   N8        1.0  0.04198  0.51523  0.38067  1.0000
  C   C92       1.0  0.04225  0.49599  0.42300  1.0000
  C   C93       1.0  0.00355  0.42000  0.49134  1.0000
  C   C94       1.0  0.35852  0.37987  0.28345  1.0000
  H   H84       1.0  0.00995  0.44534  0.49448  1.0000
  C   C95       1.0  0.45628  0.54000  0.03830  1.0000
  C   C96       1.0  0.41258  0.39799  0.36109  1.0000
  H   H85       1.0  0.43270  0.63513  0.06482  1.0000
  H   H86       1.0  0.41772  0.40964  0.28221  1.0000
  C   C97       1.0  0.39867  0.39656  0.30644  1.0000
  C   C98       1.0  0.09539  0.53172  0.47837  1.0000
  S   S32       1.0  0.22342  0.35169  0.35639  1.0000
  C   C99       1.0  0.06865  0.50403  0.47252  1.0000
  H   H87       1.0  0.47124  0.66287  0.04241  1.0000
  H   H88       1.0  0.11672  0.57230  0.43849  1.0000
  H   H89       1.0  0.48353  0.62091  0.04494  1.0000
  H   H90       1.0  0.99555  0.58400  0.46979  1.0000
  H   H91       1.0  0.00585  0.52729  0.30282  1.0000
  C   C100      1.0  0.01396  0.50622  0.32925  1.0000
  H   H92       1.0  0.04783  0.35130  0.45356  1.0000
  H   H93       1.0  0.06791  0.48899  0.50613  1.0000
  H   H94       1.0  0.11546  0.53846  0.51671  1.0000
  S   S33       1.0  0.37836  0.45962  0.68274  1.0000
  H   H95       1.0  0.29018  0.45453  0.61026  1.0000
  C   C101      1.0  0.36857  0.38767  0.57575  1.0000
  C   C102      1.0  0.45768  0.55101  0.98778  1.0000
  H   H96       1.0  0.25900  0.41742  0.53719  1.0000
  C   C103      1.0  0.39726  0.43493  0.83604  1.0000
  H   H97       1.0  0.39040  0.36863  0.56704  1.0000
  H   H98       1.0  0.33370  0.53609  0.81145  1.0000
  H   H99       1.0  0.21230  0.35082  0.68930  1.0000
  N   N9        1.0  0.18459  0.36858  0.61208  1.0000
  H   H100      1.0  0.44569  0.57488  0.97594  1.0000
  S   S34       1.0  0.46100  0.51224  0.77755  1.0000
  C   C104      1.0  0.47409  0.53134  0.95212  1.0000
  C   C105      1.0  0.35301  0.52170  0.89265  1.0000
  H   H101      1.0  0.40313  0.45078  0.93528  1.0000
  H   H102      1.0  0.37361  0.41536  0.84167  1.0000
  H   H103      1.0  0.43322  0.42908  0.85773  1.0000
  C   C106      1.0  0.11677  0.39797  0.65423  1.0000
  H   H104      1.0  0.01443  0.56195  0.56006  1.0000
  H   H105      1.0  0.47461  0.54013  0.91336  1.0000
  H   H106      1.0  0.42220  0.40675  0.63843  1.0000
  C   C107      1.0  0.15195  0.38007  0.68625  1.0000
  C   C108      1.0  0.04175  0.34990  0.78133  1.0000
  C   C109      1.0  0.35851  0.43336  0.62932  1.0000
  C   C110      1.0  0.31229  0.43596  0.60055  1.0000
  H   H107      1.0  0.22225  0.36302  0.55164  1.0000
  C   C111      1.0  0.11549  0.40072  0.60085  1.0000
  C   C112      1.0  0.38672  0.40924  0.61637  1.0000
  C   C113      1.0  0.29447  0.41487  0.55915  1.0000
  H   H108      1.0  0.09031  0.40948  0.67067  1.0000
  N   N10       1.0  0.38209  0.46504  0.85518  1.0000
  C   C114      1.0  0.38672  0.46910  0.90789  1.0000
  C   C115      1.0  0.36257  0.48850  0.82067  1.0000
  C   C116      1.0  0.37201  0.49738  0.92740  1.0000
  Fe  Fe17      1.0  0.45366  0.46986  0.72350  1.0000
  C   C117      1.0  0.14979  0.38570  0.58025  1.0000
  H   H109      1.0  0.37687  0.50082  0.96936  1.0000
  C   C118      1.0  0.18554  0.36519  0.66430  1.0000
  S   S35       1.0  0.99778  0.37861  0.78287  1.0000
  C   C119      1.0  0.32241  0.39035  0.54689  1.0000
  C   C120      1.0  0.34813  0.51728  0.83889  1.0000
  H   H110      1.0  0.34266  0.54405  0.90753  1.0000
  H   H111      1.0  0.39753  0.43625  0.79366  1.0000
  H   H112      1.0  0.35874  0.48529  0.77880  1.0000
  H   H113      1.0  0.08799  0.41431  0.57546  1.0000
  C   C121      1.0  0.99194  0.54875  0.52902  1.0000
  H   H114      1.0  0.14832  0.38784  0.53863  1.0000
  H   H115      1.0  0.15278  0.37735  0.72771  1.0000
  H   H116      1.0  0.04686  0.35989  0.70227  1.0000
  H   H117      1.0  0.25500  0.35500  0.61617  1.0000
  C   C122      1.0  0.05955  0.34538  0.73670  1.0000
  C   C123      1.0  0.21993  0.35250  0.58997  1.0000
  S   S36       1.0  0.98803  0.50447  0.60562  1.0000
  H   H118      1.0  0.47115  0.69137  0.12612  1.0000
  H   H119      1.0  0.99748  0.74250  0.24556  1.0000
  H   H120      1.0  0.44776  0.93226  0.32886  1.0000
  C   C124      1.0  0.47674  0.94672  0.34873  1.0000
  H   H121      1.0  0.03364  0.99811  0.05818  1.0000
  H   H122      1.0  0.39529  0.99679  0.41412  1.0000
  S   S37       1.0  0.03608  0.67932  0.31245  1.0000
  H   H123      1.0  0.46559  0.93705  0.42559  1.0000
  C   C125      1.0  0.48703  0.94952  0.40336  1.0000
  H   H124      1.0  0.21572  0.85470  0.77858  1.0000
  N   N11       1.0  0.18853  0.86418  0.69733  1.0000
  Fe  Fe18      1.0  0.45696  0.95629  0.72070  1.0000
  S   S38       1.0  0.40581  0.93899  0.64869  1.0000
  C   C126      1.0  0.14131  0.85763  0.76034  1.0000
  H   H125      1.0  0.06735  0.86299  0.73051  1.0000
  S   S39       1.0  0.00636  0.86520  0.97397  1.0000
  Fe  Fe19      1.0  0.35126  0.96130  0.68557  1.0000
  S   S40       1.0  0.27715  0.94330  0.67443  1.0000
  C   C127      1.0  0.18484  0.85814  0.74761  1.0000
  S   S41       1.0  0.40183  0.97468  0.76032  1.0000
  S   S42       1.0  0.06584  0.93448  0.91262  1.0000
  Fe  Fe20      1.0  0.09228  0.91514  0.84512  1.0000
  S   S43       1.0  0.17032  0.91857  0.85474  1.0000
  H   H126      1.0  0.07448  0.87305  0.63938  1.0000
  S   S44       1.0  0.05322  0.86908  0.84431  1.0000
  H   H127      1.0  0.08505  0.00762  0.90396  1.0000
  Fe  Fe21      1.0  0.41289  0.98758  0.61394  1.0000
  H   H128      1.0  0.26155  0.87298  0.71790  1.0000
  C   C128      1.0  0.10542  0.86876  0.66994  1.0000
  C   C129      1.0  0.24785  0.94171  0.72614  1.0000
  C   C130      1.0  0.27206  0.93716  0.77794  1.0000
  C   C131      1.0  0.24762  0.93095  0.81717  1.0000
  C   C132      1.0  0.19889  0.92970  0.80510  1.0000
  C   C133      1.0  0.17454  0.93583  0.75377  1.0000
  C   C134      1.0  0.19903  0.94147  0.71433  1.0000
  H   H129      1.0  0.30965  0.93704  0.78737  1.0000
  C   C135      1.0  0.23437  0.86403  0.68454  1.0000
  H   H130      1.0  0.13698  0.93508  0.74410  1.0000
  H   H131      1.0  0.18012  0.94494  0.67424  1.0000
  C   C136      1.0  0.10139  0.86302  0.72121  1.0000
  H   H132      1.0  0.02494  0.97747  0.96830  1.0000
  H   H133      1.0  0.26667  0.92633  0.85689  1.0000
  H   H134      1.0  0.13882  0.85392  0.80064  1.0000
  C   C137      1.0  0.14953  0.86913  0.65856  1.0000
  H   H135      1.0  0.24362  0.83953  0.67454  1.0000
  H   H136      1.0  0.47027  0.89561  0.81903  1.0000
  H   H137      1.0  0.14760  0.98630  0.86460  1.0000
  H   H138      1.0  0.15244  0.87378  0.61865  1.0000
  S   S45       1.0  0.03724  0.93868  0.78347  1.0000
  H   H139      1.0  0.23513  0.88027  0.65101  1.0000
  Fe  Fe22      1.0  0.02064  0.89136  0.90461  1.0000
  H   H140      1.0  0.03166  0.80247  0.90943  1.0000
  S   S46       1.0  0.40802  0.99271  0.52556  1.0000
  C   C138      1.0  0.01224  0.00098  0.97392  1.0000
  Fe  Fe23      1.0  0.00828  0.95558  0.85178  1.0000
  S   S47       1.0  0.46762  0.00344  0.68312  1.0000
  Fe  Fe24      1.0  0.99556  0.89355  0.78681  1.0000
  H   H141      1.0  0.21514  0.99819  0.82972  1.0000
  C   C139      1.0  0.99692  0.79289  0.89598  1.0000
  H   H142      1.0  0.99575  0.79908  0.81381  1.0000
  Fe  Fe25      1.0  0.57052  0.09184  0.21265  1.0000
  S   S48       1.0  0.53726  0.05820  0.14883  1.0000
  S   S49       1.0  0.62621  0.12763  0.20569  1.0000
  Fe  Fe26      1.0  0.51512  0.06607  0.29101  1.0000
  H   H143      1.0  0.91421  0.24065  0.20540  1.0000
  H   H144      1.0  0.68505  0.07718  0.29827  1.0000
  C   C140      1.0  0.96517  0.24451  0.15815  1.0000
  S   S50       1.0  0.58500  0.05435  0.27526  1.0000
  H   H145      1.0  0.49484  0.17372  0.05366  1.0000
  Fe  Fe27      1.0  0.96571  0.09988  0.11600  1.0000
  S   S51       1.0  0.90151  0.11491  0.05830  1.0000
  H   H146      1.0  0.98087  0.32889  0.48554  1.0000
  S   S52       1.0  0.88781  0.17036  0.14155  1.0000
  Fe  Fe28      1.0  0.86896  0.11842  0.12788  1.0000
  S   S53       1.0  0.80368  0.08835  0.12080  1.0000
  Fe  Fe29      1.0  0.92725  0.16476  0.07805  1.0000
  S   S54       1.0  0.93260  0.10110  0.18547  1.0000
  H   H147      1.0  0.94919  0.28421  0.26561  1.0000
  C   C141      1.0  0.67372  0.11736  0.17821  1.0000
  C   C142      1.0  0.67577  0.08804  0.15349  1.0000
  C   C143      1.0  0.71513  0.08004  0.13424  1.0000
  C   C144      1.0  0.75293  0.10108  0.14008  1.0000
  C   C145      1.0  0.75063  0.13055  0.16416  1.0000
  C   C146      1.0  0.71101  0.13871  0.18285  1.0000
  H   H148      1.0  0.64723  0.07146  0.14961  1.0000
  H   H149      1.0  0.71661  0.05721  0.11559  1.0000
  H   H150      1.0  0.77954  0.14691  0.16895  1.0000
  H   H151      1.0  0.70958  0.16146  0.20183  1.0000
  C   C147      1.0  0.78342  0.06752  0.25317  1.0000
  H   H152      1.0  0.52663  0.06770  0.49001  1.0000
  S   S55       1.0  0.93969  0.20394  0.02382  1.0000
  H   H153      1.0  0.75599  0.10656  0.29084  1.0000
  C   C148      1.0  0.94438  0.25342  0.19895  1.0000
  C   C149      1.0  0.70425  0.03454  0.26201  1.0000
  H   H154      1.0  0.67296  0.02157  0.26409  1.0000
  S   S56       1.0  0.50329  0.10707  0.23282  1.0000
  Fe  Fe30      1.0  0.54679  0.02176  0.21321  1.0000
  N   N12       1.0  0.77610  0.03725  0.23369  1.0000
  Fe  Fe31      1.0  0.95441  0.15283  0.19408  1.0000
  H   H155      1.0  0.62366  0.00914  0.15132  1.0000
  C   C150      1.0  0.71118  0.06553  0.28150  1.0000
  C   C151      1.0  0.75115  0.08206  0.27747  1.0000
  S   S57       1.0  0.51714  0.06893  0.37886  1.0000
  C   C152      1.0  0.73733  0.02068  0.23818  1.0000
  H   H156      1.0  0.94999  0.22535  0.13229  1.0000
  H   H157      1.0  0.81323  0.08118  0.24790  1.0000
  C   C153      1.0  0.49781  0.05228  0.47332  1.0000
  S   S58       1.0  0.97851  0.18015  0.27043  1.0000
  C   C154      1.0  0.80823  0.02287  0.20502  1.0000
  H   H158      1.0  0.79111  0.02155  0.16273  1.0000
  H   H159      1.0  0.83237  0.02325  0.07710  1.0000
  C   C155      1.0  0.96402  0.27784  0.23271  1.0000
  H   H160      1.0  0.84032  0.03732  0.20843  1.0000
  H   H161      1.0  0.50357  0.11512  0.06680  1.0000
  C   C156      1.0  0.87474  0.01656  0.02099  1.0000
  H   H162      1.0  0.98315  0.31792  0.61779  1.0000
  C   C157      1.0  0.98009  0.18879  0.99008  1.0000
  C   C158      1.0  0.96216  0.31575  0.64795  1.0000
  H   H163      1.0  0.95668  0.06440  0.90630  1.0000
  H   H164      1.0  0.92621  0.30904  0.62792  1.0000
  H   H165      1.0  0.94348  0.31059  0.74220  1.0000
  C   C159      1.0  0.98424  0.15583  0.98590  1.0000
  C   C160      1.0  0.96773  0.29255  0.73499  1.0000
  C   C161      1.0  0.97705  0.06114  0.99066  1.0000
  H   H166      1.0  0.96316  0.08426  0.99673  1.0000
  N   N13       1.0  0.98166  0.29224  0.68859  1.0000
  C   C162      1.0  0.97347  0.04980  0.93935  1.0000
  H   H167      1.0  0.88160  0.04185  0.01766  1.0000
  H   H168      1.0  0.96133  0.33980  0.66539  1.0000
  H   H169      1.0  0.97591  0.27147  0.81194  1.0000
  H   H170      1.0  0.96142  0.14030  0.00100  1.0000
  C   C163      1.0  0.98602  0.27054  0.77463  1.0000
  C   C164      1.0  0.53049  0.64475  0.39836  1.0000
  C   C165      1.0  0.62507  0.64546  0.44868  1.0000
  C   C166      1.0  0.54699  0.66540  0.44086  1.0000
  S   S59       1.0  0.93960  0.55867  0.37153  1.0000
  H   H171      1.0  0.52230  0.59636  0.12470  1.0000
  S   S60       1.0  0.93567  0.65066  0.33040  1.0000
  H   H172      1.0  0.78559  0.56026  0.45200  1.0000
  H   H173      1.0  0.84739  0.55691  0.40137  1.0000
  C   C167      1.0  0.54304  0.65028  0.22334  1.0000
  C   C168      1.0  0.54538  0.62173  0.19682  1.0000
  C   C169      1.0  0.90397  0.64627  0.48516  1.0000
  H   H174      1.0  0.96018  0.64447  0.44608  1.0000
  C   C170      1.0  0.60872  0.62515  0.40579  1.0000
  S   S61       1.0  0.54359  0.59965  0.32496  1.0000
  H   H175      1.0  0.63285  0.60969  0.39213  1.0000
  C   C171      1.0  0.83844  0.60570  0.37509  1.0000
  H   H176      1.0  0.89878  0.62071  0.48320  1.0000
  C   C172      1.0  0.95261  0.54440  0.43711  1.0000
  C   C173      1.0  0.93390  0.51516  0.44862  1.0000
  C   C174      1.0  0.56140  0.62468  0.38034  1.0000
  Fe  Fe32      1.0  0.97180  0.65593  0.26452  1.0000
  H   H177      1.0  0.49951  0.46527  0.02865  1.0000
  C   C175      1.0  0.59434  0.66596  0.46610  1.0000
  H   H178      1.0  0.49405  0.64475  0.37904  1.0000
  H   H179      1.0  0.92967  0.48017  0.50816  1.0000
  C   C176      1.0  0.79327  0.58078  0.43011  1.0000
  C   C177      1.0  0.96588  0.40748  0.50853  1.0000
  C   C178      1.0  0.52126  0.61893  0.14460  1.0000
  C   C179      1.0  0.76916  0.60952  0.43071  1.0000
  H   H180      1.0  0.86581  0.60451  0.35367  1.0000
  Fe  Fe33      1.0  0.97296  0.60371  0.34830  1.0000
  H   H181      1.0  0.91163  0.50182  0.41759  1.0000
  H   H182      1.0  0.74321  0.61111  0.45404  1.0000
  C   C180      1.0  0.93874  0.65977  0.46383  1.0000
  C   C181      1.0  0.81412  0.63417  0.37707  1.0000
  N   N14       1.0  0.49581  0.64403  0.11944  1.0000
  C   C182      1.0  0.94417  0.50275  0.50002  1.0000
  H   H183      1.0  0.66147  0.64554  0.46786  1.0000
  C   C183      1.0  0.82803  0.57891  0.40193  1.0000
  H   H184      1.0  0.56103  0.65256  0.26412  1.0000
  N   N15       1.0  0.77954  0.63567  0.40407  1.0000
  H   H185      1.0  0.56467  0.60159  0.21721  1.0000
  C   C184      1.0  0.49256  0.67187  0.14553  1.0000
  H   H186      1.0  0.82356  0.65512  0.35745  1.0000
  C   C185      1.0  0.75563  0.66608  0.40717  1.0000
  H   H187      1.0  0.72091  0.66236  0.41595  1.0000
  C   C186      1.0  0.95788  0.37469  0.50732  1.0000
  H   H188      1.0  0.97994  0.49644  0.33325  1.0000
  C   C187      1.0  0.87588  0.66561  0.50853  1.0000
  C   C188      1.0  0.98135  0.56130  0.47772  1.0000
  C   C189      1.0  0.98691  0.35434  0.48650  1.0000
  Fe  Fe34      1.0  0.52361  0.52428  0.74592  1.0000
  S   S62       1.0  0.57348  0.49757  0.80898  1.0000
  S   S63       1.0  0.53518  0.57423  0.71977  1.0000
  C   C190      1.0  0.55407  0.57002  0.59417  1.0000
  H   H189      1.0  0.89888  0.53525  0.58574  1.0000
  Fe  Fe35      1.0  0.95753  0.40615  0.71178  1.0000
  H   H190      1.0  0.85605  0.51532  0.64987  1.0000
  Fe  Fe36      1.0  0.55868  0.45697  0.75206  1.0000
  S   S64       1.0  0.61447  0.42239  0.73967  1.0000
  S   S65       1.0  0.51245  0.48471  0.68698  1.0000
  S   S66       1.0  0.88647  0.38810  0.67310  1.0000
  Fe  Fe37      1.0  0.95185  0.46114  0.63072  1.0000
  S   S67       1.0  0.88134  0.44626  0.58649  1.0000
  C   C191      1.0  0.89415  0.58448  0.60733  1.0000
  Fe  Fe38      1.0  0.86406  0.43981  0.66554  1.0000
  S   S68       1.0  0.80280  0.46793  0.68317  1.0000
  Fe  Fe39      1.0  0.91078  0.39653  0.59871  1.0000
  S   S69       1.0  0.93383  0.45751  0.70973  1.0000
  H   H191      1.0  0.60455  0.42464  0.84877  1.0000
  H   H192      1.0  0.83772  0.61033  0.69887  1.0000
  C   C192      1.0  0.66472  0.43535  0.71941  1.0000
  C   C193      1.0  0.67478  0.46777  0.71608  1.0000
  C   C194      1.0  0.71686  0.47724  0.70396  1.0000
  C   C195      1.0  0.74923  0.45446  0.69489  1.0000
  C   C196      1.0  0.73880  0.42206  0.69729  1.0000
  C   C197      1.0  0.69665  0.41258  0.70940  1.0000
  H   H193      1.0  0.65055  0.48551  0.72381  1.0000
  H   H194      1.0  0.72458  0.50236  0.70230  1.0000
  H   H195      1.0  0.76333  0.40431  0.69023  1.0000
  H   H196      1.0  0.68904  0.38745  0.71172  1.0000
  C   C198      1.0  0.59293  0.58550  0.72198  1.0000
  C   C199      1.0  0.60152  0.61581  0.70363  1.0000
  C   C200      1.0  0.64684  0.62494  0.70211  1.0000
  C   C201      1.0  0.68401  0.60403  0.71985  1.0000
  C   C202      1.0  0.67561  0.57379  0.73882  1.0000
  C   C203      1.0  0.63006  0.56443  0.73948  1.0000
  H   H197      1.0  0.57295  0.63218  0.69002  1.0000
  H   H198      1.0  0.65290  0.64825  0.68744  1.0000
  H   H199      1.0  0.70421  0.55745  0.75237  1.0000
  H   H200      1.0  0.62369  0.54091  0.75316  1.0000
  H   H201      1.0  0.57287  0.52259  0.62410  1.0000
  S   S70       1.0  0.74090  0.61513  0.71747  1.0000
  H   H202      1.0  0.88255  0.63103  0.63654  1.0000
  C   C204      1.0  0.58487  0.54456  0.60963  1.0000
  N   N16       1.0  0.84528  0.56158  0.67894  1.0000
  C   C205      1.0  0.81837  0.54940  0.71545  1.0000
  H   H203      1.0  0.68742  0.38969  0.85120  1.0000
  C   C206      1.0  0.88617  0.55188  0.61088  1.0000
  N   N17       1.0  0.67524  0.43846  0.86687  1.0000
  C   C207      1.0  0.69999  0.41401  0.85171  1.0000
  C   C208      1.0  0.68954  0.46936  0.86439  1.0000
  C   C209      1.0  0.74074  0.42011  0.83462  1.0000
  C   C210      1.0  0.72983  0.47635  0.84685  1.0000
  C   C211      1.0  0.75558  0.45151  0.83197  1.0000
  C   C212      1.0  0.63208  0.43130  0.88344  1.0000
  H   H204      1.0  0.75959  0.40075  0.82128  1.0000
  H   H205      1.0  0.66951  0.48885  0.87531  1.0000
  H   H206      1.0  0.61935  0.45202  0.90273  1.0000
  H   H207      1.0  0.74045  0.50090  0.84373  1.0000
  H   H208      1.0  0.78613  0.45659  0.81676  1.0000
  H   H209      1.0  0.63739  0.41116  0.91184  1.0000
  S   S71       1.0  0.50748  0.47362  0.92206  1.0000
  S   S72       1.0  0.91477  0.35988  0.53753  1.0000
  H   H210      1.0  0.65594  0.52880  0.62146  1.0000
  H   H211      1.0  0.91304  0.59345  0.57919  1.0000
  Fe  Fe40      1.0  0.50977  0.48216  0.83632  1.0000
  C   C213      1.0  0.86174  0.54075  0.64726  1.0000
  Fe  Fe41      1.0  0.74322  0.65736  0.66475  1.0000
  C   C214      1.0  0.64666  0.57682  0.59084  1.0000
  S   S73       1.0  0.72578  0.64655  0.57951  1.0000
  H   H212      1.0  0.78245  0.54396  0.69377  1.0000
  C   C215      1.0  0.87712  0.60557  0.63968  1.0000
  S   S74       1.0  0.49895  0.43877  0.78436  1.0000
  C   C216      1.0  0.63151  0.54811  0.60826  1.0000
  C   C217      1.0  0.85198  0.59370  0.67492  1.0000
  H   H213      1.0  0.81641  0.56700  0.74652  1.0000
  H   H214      1.0  0.83453  0.52730  0.73511  1.0000
  H   H215      1.0  0.55466  0.64815  0.56737  1.0000
  C   C218      1.0  0.61482  0.60172  0.57526  1.0000
  N   N18       1.0  0.56940  0.59829  0.57804  1.0000
  H   H216      1.0  0.68299  0.58004  0.59052  1.0000
  H   H217      1.0  0.51818  0.56738  0.59700  1.0000
  H   H218      1.0  0.62677  0.62408  0.56212  1.0000
  C   C219      1.0  0.97361  0.51936  0.54044  1.0000
  H   H219      1.0  0.51015  0.62521  0.58625  1.0000
  H   H220      1.0  0.51910  0.62218  0.52005  1.0000
  C   C220      1.0  0.53661  0.62470  0.56204  1.0000
  S   S75       1.0  0.98272  0.41190  0.63814  1.0000
  S   S76       1.0  0.83100  0.64733  0.53122  1.0000
  H   H221      1.0  0.94339  0.42332  0.52380  1.0000
  C   C221      1.0  0.48916  0.50023  0.96646  1.0000
  C   C222      1.0  0.48797  0.48927  0.01704  1.0000
  C   C223      1.0  0.63648  0.98485  0.15368  1.0000
  C   C224      1.0  0.54086  0.98159  0.34580  1.0000
  C   C225      1.0  0.89717  0.75427  0.35553  1.0000
  C   C226      1.0  0.91834  0.71219  0.49010  1.0000
  H   H222      1.0  0.86827  0.69239  0.25106  1.0000
  H   H223      1.0  0.89522  0.72794  0.36004  1.0000
  H   H224      1.0  0.85503  0.79309  0.27701  1.0000
  C   C227      1.0  0.90127  0.78963  0.22488  1.0000
  Fe  Fe42      1.0  0.73913  0.81057  0.09054  1.0000
  S   S77       1.0  0.78963  0.84820  0.07765  1.0000
  S   S78       1.0  0.76157  0.77417  0.15675  1.0000
  Fe  Fe43      1.0  0.73019  0.88269  0.07258  1.0000
  S   S79       1.0  0.73337  0.93407  0.09968  1.0000
  S   S80       1.0  0.68111  0.84598  0.09109  1.0000
  S   S81       1.0  0.57200  0.97104  0.21276  1.0000
  C   C228      1.0  0.68896  0.94478  0.13151  1.0000
  C   C229      1.0  0.67243  0.97632  0.12890  1.0000
  C   C230      1.0  0.88653  0.70505  0.17864  1.0000
  C   C231      1.0  0.61711  0.96182  0.18121  1.0000
  C   C232      1.0  0.63395  0.93045  0.18398  1.0000
  C   C233      1.0  0.66977  0.92199  0.15938  1.0000
  H   H225      1.0  0.92268  0.76358  0.39008  1.0000
  H   H226      1.0  0.50395  0.96575  0.50234  1.0000
  H   H227      1.0  0.61936  0.91259  0.20549  1.0000
  H   H228      1.0  0.68299  0.89785  0.16284  1.0000
  H   H229      1.0  0.88012  0.80495  0.19535  1.0000
  H   H230      1.0  0.94426  0.85330  0.04217  1.0000
  H   H231      1.0  0.86023  0.84053  0.02301  1.0000
  H   H232      1.0  0.81815  0.96490  0.08503  1.0000
  H   H233      1.0  0.85378  0.92635  0.03408  1.0000
  C   C234      1.0  0.88312  0.69860  0.51149  1.0000
  H   H234      1.0  0.57929  0.92821  0.06917  1.0000
  H   H235      1.0  0.56615  0.89212  0.03052  1.0000
  H   H236      1.0  0.62485  0.90453  0.05225  1.0000
  H   H237      1.0  0.56204  0.99425  0.32359  1.0000
  C   C235      1.0  0.87416  0.72399  0.13312  1.0000
  C   C236      1.0  0.83584  0.74505  0.12552  1.0000
  C   C237      1.0  0.80890  0.74701  0.16308  1.0000
  C   C238      1.0  0.82067  0.72758  0.20808  1.0000
  C   C239      1.0  0.85947  0.70694  0.21609  1.0000
  H   H238      1.0  0.89470  0.72261  0.10381  1.0000
  H   H239      1.0  0.82715  0.75975  0.09064  1.0000
  H   H240      1.0  0.79994  0.72880  0.23720  1.0000
  N   N19       1.0  0.52319  0.96813  0.42843  1.0000
  S   S82       1.0  0.93648  0.68001  0.18748  1.0000
  N   N20       1.0  0.91234  0.76203  0.30738  1.0000
  C   C240      1.0  0.95209  0.74831  0.29905  1.0000
  C   C241      1.0  0.94136  0.77529  0.21570  1.0000
  C   C242      1.0  0.83950  0.97339  0.05907  1.0000
  S   S83       1.0  0.98699  0.70915  0.43429  1.0000
  H   H241      1.0  0.54982  0.99294  0.49976  1.0000
  C   C243      1.0  0.88714  0.78268  0.27122  1.0000
  C   C244      1.0  0.58884  0.91352  0.03793  1.0000
  C   C245      1.0  0.94584  0.69271  0.46572  1.0000
  H   H242      1.0  0.56103  0.95045  0.50155  1.0000
  H   H243      1.0  0.68715  0.99414  0.10745  1.0000
  C   C246      1.0  0.85955  0.95170  0.02994  1.0000
  H   H244      1.0  0.95173  0.77945  0.17905  1.0000
  H   H245      1.0  0.75016  0.67935  0.36949  1.0000
  C   C247      1.0  0.84735  0.00603  0.05461  1.0000
  H   H246      1.0  0.57801  0.99942  0.41998  1.0000
  C   C248      1.0  0.54991  0.98415  0.40037  1.0000
  H   H247      1.0  0.81847  0.99850  0.22013  1.0000
  H   H248      1.0  0.49695  0.96066  0.27750  1.0000
  C   C249      1.0  0.53517  0.96931  0.48583  1.0000
  C   C250      1.0  0.96705  0.75455  0.25301  1.0000
  H   H249      1.0  0.97197  0.73197  0.32774  1.0000
  H   H250      1.0  0.86243  0.76442  0.35561  1.0000
  H   H251      1.0  0.92383  0.73770  0.49182  1.0000
  H   H252      1.0  0.52295  0.68119  0.45403  1.0000
  H   H253      1.0  0.51340  0.69745  0.21858  1.0000
  C   C251      1.0  0.50413  0.96271  0.31990  1.0000
  H   H254      1.0  0.73136  0.99680  0.22235  1.0000
  H   H255      1.0  0.77672  0.68093  0.43880  1.0000
  C   C252      1.0  0.51629  0.67548  0.19775  1.0000
  H   H256      1.0  0.65266  0.76416  0.88718  1.0000
  S   S84       1.0  0.70092  0.70226  0.65558  1.0000
  C   C253      1.0  0.70460  0.76776  0.78384  1.0000
  Fe  Fe44      1.0  0.76672  0.72717  0.64698  1.0000
  S   S85       1.0  0.78648  0.77151  0.69835  1.0000
  C   C254      1.0  0.61920  0.96557  0.93403  1.0000
  C   C255      1.0  0.93122  0.78003  0.82621  1.0000
  H   H257      1.0  0.57275  0.98214  0.86294  1.0000
  S   S86       1.0  0.96458  0.86133  0.71786  1.0000
  H   H258      1.0  0.83463  0.78340  0.84833  1.0000
  C   C256      1.0  0.62282  0.94740  0.97973  1.0000
  Fe  Fe45      1.0  0.75916  0.83887  0.99241  1.0000
  C   C257      1.0  0.85710  0.76260  0.84459  1.0000
  C   C258      1.0  0.68337  0.75442  0.82136  1.0000
  S   S87       1.0  0.96079  0.91360  0.84764  1.0000
  H   H259      1.0  0.67749  0.72888  0.82191  1.0000
  C   C259      1.0  0.52070  0.87084  0.87923  1.0000
  S   S88       1.0  0.58478  0.84051  0.95755  1.0000
  N   N21       1.0  0.88597  0.96231  0.99660  1.0000
  S   S89       1.0  0.79294  0.83328  0.92443  1.0000
  H   H260      1.0  0.84842  0.74256  0.86851  1.0000
  H   H261      1.0  0.51180  0.92443  0.96499  1.0000
  C   C260      1.0  0.94722  0.85593  0.96089  1.0000
  Fe  Fe46      1.0  0.68761  0.69275  0.56884  1.0000
  H   H262      1.0  0.90512  0.76774  0.94311  1.0000
  C   C261      1.0  0.85218  0.84204  0.93931  1.0000
  C   C262      1.0  0.87477  0.84605  0.89832  1.0000
  C   C263      1.0  0.92225  0.85274  0.90913  1.0000
  S   S90       1.0  0.52599  0.93325  0.76013  1.0000
  H   H263      1.0  0.85566  0.84384  0.85813  1.0000
  H   H264      1.0  0.93983  0.85421  0.87730  1.0000
  C   C264      1.0  0.54025  0.90618  0.81339  1.0000
  C   C265      1.0  0.58743  0.90019  0.83498  1.0000
  C   C266      1.0  0.60124  0.88015  0.87883  1.0000
  C   C267      1.0  0.56807  0.86541  0.90143  1.0000
  H   H265      1.0  0.61352  0.91156  0.81808  1.0000
  H   H266      1.0  0.63758  0.87609  0.89476  1.0000
  C   C268      1.0  0.83594  0.79640  0.70256  1.0000
  C   C269      1.0  0.84371  0.82134  0.73937  1.0000
  C   C270      1.0  0.88315  0.84114  0.74508  1.0000
  C   C271      1.0  0.91494  0.83656  0.71334  1.0000
  C   C272      1.0  0.90701  0.81172  0.67642  1.0000
  C   C273      1.0  0.86801  0.79158  0.67132  1.0000
  H   H267      1.0  0.81915  0.82540  0.76369  1.0000
  H   H268      1.0  0.88854  0.86026  0.77340  1.0000
  H   H269      1.0  0.93119  0.80801  0.65148  1.0000
  H   H270      1.0  0.86256  0.77257  0.64279  1.0000
  N   N22       1.0  0.69847  0.81985  0.81982  1.0000
  C   C274      1.0  0.67704  0.80702  0.85633  1.0000
  C   C275      1.0  0.71178  0.80073  0.78349  1.0000
  C   C276      1.0  0.70473  0.85447  0.81766  1.0000
  H   H271      1.0  0.66586  0.82213  0.88472  1.0000
  H   H272      1.0  0.72803  0.81087  0.75386  1.0000
  H   H273      1.0  0.73632  0.86036  0.80314  1.0000
  H   H274      1.0  0.67376  0.86557  0.79162  1.0000
  H   H275      1.0  0.70989  0.86510  0.85737  1.0000
  N   N23       1.0  0.90610  0.77153  0.86210  1.0000
  C   C277      1.0  0.92554  0.77327  0.91460  1.0000
  S   S91       1.0  0.70604  0.87751  0.98588  1.0000
  H   H276      1.0  0.94078  0.92997  0.99358  1.0000
  S   S92       1.0  0.74941  0.72171  0.55851  1.0000
  H   H277      1.0  0.71527  0.75275  0.75489  1.0000
  C   C278      1.0  0.66943  0.77414  0.85788  1.0000
  C   C279      1.0  0.89359  0.99426  0.99190  1.0000
  C   C280      1.0  0.90814  0.93922  0.96789  1.0000
  C   C281      1.0  0.87723  0.84444  0.99121  1.0000
  H   H278      1.0  0.49467  0.85936  0.89611  1.0000
  C   C282      1.0  0.97144  0.78352  0.93230  1.0000
  C   C283      1.0  0.53708  0.95456  0.91111  1.0000
  H   H279      1.0  0.84873  0.75483  0.80296  1.0000
  C   C284      1.0  0.92484  0.85136  0.00203  1.0000
  C   C285      1.0  0.97677  0.79114  0.84253  1.0000
  H   H280      1.0  0.91429  0.00272  0.96548  1.0000
  S   S93       1.0  0.71165  0.79955  0.00501  1.0000
  S   S94       1.0  0.80985  0.68231  0.66287  1.0000
  H   H281      1.0  0.91592  0.77881  0.78462  1.0000
  C   C286      1.0  0.57604  0.96894  0.89937  1.0000
  C   C287      1.0  0.50676  0.89132  0.83553  1.0000
  H   H282      1.0  0.91704  0.95023  0.93266  1.0000
  C   C288      1.0  0.54203  0.93628  0.95685  1.0000
  S   S95       1.0  0.98397  0.00550  0.86571  1.0000
  H   H283      1.0  0.50357  0.95661  0.88385  1.0000
  H   H284      1.0  0.88474  0.91876  0.95411  1.0000
  H   H285      1.0  0.86146  0.71360  0.52973  1.0000
  Fe  Fe47      1.0  0.65980  0.83920  0.00374  1.0000
  H   H286      1.0  0.64971  0.97671  0.92533  1.0000
  H   H287      1.0  0.98632  0.78596  0.97393  1.0000
  N   N24       1.0  0.58463  0.93253  0.99003  1.0000
  S   S96       1.0  0.61366  0.69243  0.51926  1.0000
  Fe  Fe48      1.0  0.78850  0.67533  0.57602  1.0000
  H   H288      1.0  0.65644  0.94496  0.00662  1.0000
