data_image0
_chemical_formula_structural       CHC4HNC2H2SH2CHSHC2HNSHCHC6SCHCH4CSCSC4H5CNCHC2H3CHC3H2CHSCHS2H2CHNCH2CH2SHC2SHC3SC2H2SNC3H2CHCH3SCFeHC2H4CSH4FeC3HC2HFeH3CSCNCHCH2CNH2C3HC3H3CHCSH3SH2SCFeHFe2H3CSCSCFeS2HFeCSFeSHCFeHCS2CHC5H4CHSH2CHFe2CHFeHNC3Fe2HCHCSC3HSH2C3HSHC3H2SHSFeH2FeCHCFeS2H2FeS2FeS3HFeC3S2CHCFeHCHC6H5CFeSCHSCH2CH2CNCH3CFeC2HNH4C2HCHC2HCNCHC2SFeSHSCFeCSFeS2FeSHFeCFeS2FeSFe2SHFeSFeCSC2H2FeC6H9C2HC2HCNSC3HCH3CHC2HS2H2C2HCSCSC4HNC6H4C2H3CSHCHS2HCHFeC3HFeSHSFeCHFeCFeCSHSCS2FeSFeC2SC2HC4H2CHCHCHCHC3HCNC2H2NC2HSCFeNH2C3SFeCFeH3CHFeHSHC2NCHSHSCHSCH2C2H3SH2C2HCHSH3CHC2HCSCH3CSC3HCNHNSH4CHCSCHCH2SC3H2SHCFeC2HC2H4C2H2NCHNH2CHCHCHC2H3C2HCHCHCH2NCH3SHSCH2C2SHSCH2CHC2H3C3HC3HCHNC2H4C2H5SHCH2C2HCNCS2C2H2CH2C3H2SHSHC3H2
_chemical_formula_sum              "C288 H288 N24 S96 Fe48"
_cell_length_a       37.7142
_cell_length_b       37.2811
_cell_length_c       42.7385
_cell_angle_alpha    87.8813
_cell_angle_beta     88.9762
_cell_angle_gamma    120.074

_space_group_name_H-M_alt    "P 1"
_space_group_IT_number       1

loop_
  _space_group_symop_operation_xyz
  'x, y, z'

loop_
  _atom_site_type_symbol
  _atom_site_label
  _atom_site_symmetry_multiplicity
  _atom_site_fract_x
  _atom_site_fract_y
  _atom_site_fract_z
  _atom_site_occupancy
  C   C1        1.0  0.47666  0.45776  0.27379  1.0000
  H   H1        1.0  0.44512  0.43660  0.26849  1.0000
  C   C2        1.0  0.43685  0.22822  0.13696  1.0000
  C   C3        1.0  0.44448  0.21326  0.10971  1.0000
  C   C4        1.0  0.43264  0.20739  0.16579  1.0000
  C   C5        1.0  0.43647  0.17192  0.16699  1.0000
  H   H2        1.0  0.44899  0.22994  0.08732  1.0000
  N   N1        1.0  0.44471  0.15791  0.14022  1.0000
  C   C6        1.0  0.44831  0.17781  0.11177  1.0000
  C   C7        1.0  0.44937  0.12114  0.14230  1.0000
  H   H3        1.0  0.45590  0.16735  0.09063  1.0000
  H   H4        1.0  0.43429  0.15656  0.18958  1.0000
  S   S1        1.0  0.44410  0.48386  0.31953  1.0000
  H   H5        1.0  0.43582  0.25683  0.13599  1.0000
  H   H6        1.0  0.42838  0.21988  0.18717  1.0000
  C   C8        1.0  0.05326  0.45595  0.05946  1.0000
  H   H7        1.0  0.05206  0.44075  0.03802  1.0000
  S   S2        1.0  0.02470  0.51324  0.33747  1.0000
  H   H8        1.0  0.46997  0.12369  0.16145  1.0000
  C   C9        1.0  0.48519  0.48356  0.29904  1.0000
  C   C10       1.0  0.49133  0.49660  0.04454  1.0000
  H   H9        1.0  0.41905  0.09268  0.14680  1.0000
  N   N2        1.0  0.02688  0.43420  0.08440  1.0000
  S   S3        1.0  0.51108  0.07161  0.14225  1.0000
  H   H10       1.0  0.46369  0.11790  0.12038  1.0000
  C   C11       1.0  0.08107  0.49845  0.06073  1.0000
  H   H11       1.0  0.48992  0.48212  0.17927  1.0000
  C   C12       1.0  0.50180  0.47006  0.06093  1.0000
  C   C13       1.0  0.05566  0.49597  0.11343  1.0000
  C   C14       1.0  0.05449  0.51393  0.27756  1.0000
  C   C15       1.0  0.04958  0.50570  0.24555  1.0000
  C   C16       1.0  0.50863  0.45984  0.25483  1.0000
  C   C17       1.0  0.02834  0.45349  0.11138  1.0000
  S   S4        1.0  0.51028  0.47566  0.10146  1.0000
  C   C18       1.0  0.02007  0.50024  0.29778  1.0000
  H   H12       1.0  0.50152  0.44024  0.23525  1.0000
  C   C19       1.0  0.50622  0.44059  0.04465  1.0000
  H   H13       1.0  0.50372  0.03754  0.29458  1.0000
  H   H14       1.0  0.44552  0.49812  0.20886  1.0000
  H   H15       1.0  0.05616  0.51113  0.13476  1.0000
  H   H16       1.0  0.51403  0.41985  0.05707  1.0000
  C   C20       1.0  0.50843  0.01458  0.28344  1.0000
  S   S5        1.0  0.41569  0.48860  0.40771  1.0000
  C   C21       1.0  0.06175  0.50585  0.63953  1.0000
  S   S6        1.0  0.09011  0.50739  0.40426  1.0000
  C   C22       1.0  0.23128  0.47546  0.47747  1.0000
  C   C23       1.0  0.51327  0.50027  0.50150  1.0000
  C   C24       1.0  0.06745  0.50004  0.50108  1.0000
  C   C25       1.0  0.51102  0.02607  0.54074  1.0000
  H   H17       1.0  0.14810  0.44730  0.48421  1.0000
  H   H18       1.0  0.17849  0.41259  0.42056  1.0000
  H   H19       1.0  0.04645  0.44208  0.63743  1.0000
  H   H20       1.0  0.43302  0.44921  0.65268  1.0000
  H   H21       1.0  0.46612  0.44788  0.62254  1.0000
  C   C26       1.0  0.27077  0.44848  0.45325  1.0000
  N   N3        1.0  0.19969  0.45341  0.45827  1.0000
  C   C27       1.0  0.50999  0.47131  0.52494  1.0000
  H   H22       1.0  0.14023  0.43898  0.44300  1.0000
  C   C28       1.0  0.51206  0.15529  0.54107  1.0000
  C   C29       1.0  0.16304  0.45756  0.46043  1.0000
  H   H23       1.0  0.29321  0.49256  0.48927  1.0000
  H   H24       1.0  0.29930  0.44819  0.45032  1.0000
  H   H25       1.0  0.08192  0.49459  0.48117  1.0000
  C   C30       1.0  0.23825  0.42576  0.43397  1.0000
  H   H26       1.0  0.48660  0.43901  0.52381  1.0000
  C   C31       1.0  0.20276  0.42870  0.43672  1.0000
  C   C32       1.0  0.02714  0.47524  0.55057  1.0000
  C   C33       1.0  0.05752  0.46872  0.65189  1.0000
  H   H27       1.0  0.04479  0.43895  0.52306  1.0000
  H   H28       1.0  0.32053  0.50387  0.38035  1.0000
  C   C34       1.0  0.04644  0.46863  0.52481  1.0000
  H   H29       1.0  0.49475  0.12383  0.55313  1.0000
  S   S7        1.0  0.18456  0.49080  0.38285  1.0000
  C   C35       1.0  0.46398  0.45359  0.64768  1.0000
  H   H30       1.0  0.25045  0.47884  0.36103  1.0000
  S   S8        1.0  0.48213  0.48183  0.46902  1.0000
  S   S9        1.0  0.49715  0.04396  0.57385  1.0000
  H   H31       1.0  0.24123  0.40745  0.41606  1.0000
  H   H32       1.0  0.46734  0.42999  0.66198  1.0000
  C   C36       1.0  0.26191  0.50121  0.37901  1.0000
  H   H33       1.0  0.49828  0.15472  0.51823  1.0000
  N   N4        1.0  0.49574  0.49534  0.65541  1.0000
  C   C37       1.0  0.26730  0.47342  0.47520  1.0000
  H   H34       1.0  0.50829  0.17684  0.55626  1.0000
  H   H35       1.0  0.05425  0.50818  0.61545  1.0000
  C   C38       1.0  0.02939  0.51365  0.55267  1.0000
  H   H36       1.0  0.17161  0.49043  0.45521  1.0000
  H   H37       1.0  0.22933  0.49596  0.49388  1.0000
  S   S10       1.0  0.36263  0.51109  0.85971  1.0000
  H   H38       1.0  0.47075  0.44079  0.76692  1.0000
  C   C39       1.0  0.19952  0.45296  0.82138  1.0000
  C   C40       1.0  0.23001  0.44606  0.83317  1.0000
  S   S11       1.0  0.06918  0.45973  0.83196  1.0000
  H   H39       1.0  0.10096  0.37045  0.88755  1.0000
  C   C41       1.0  0.49058  0.46490  0.99569  1.0000
  C   C42       1.0  0.50023  0.46904  0.76690  1.0000
  C   C43       1.0  0.11906  0.40486  0.88654  1.0000
  S   S12       1.0  0.10087  0.48000  0.91903  1.0000
  C   C44       1.0  0.32324  0.50964  0.88332  1.0000
  C   C45       1.0  0.31259  0.48937  0.91306  1.0000
  H   H40       1.0  0.50348  0.41479  0.99975  1.0000
  H   H41       1.0  0.26797  0.46600  0.95183  1.0000
  S   S13       1.0  0.45693  0.49090  0.87477  1.0000
  N   N5        1.0  0.15740  0.41957  0.86807  1.0000
  C   C46       1.0  0.16302  0.43914  0.83915  1.0000
  C   C47       1.0  0.18713  0.41272  0.87980  1.0000
  C   C48       1.0  0.27719  0.48338  0.92945  1.0000
  H   H42       1.0  0.12584  0.41569  0.91078  1.0000
  H   H43       1.0  0.33042  0.47651  0.92274  1.0000
  C   C49       1.0  0.06640  0.46569  0.68310  1.0000
  H   H44       1.0  0.50715  0.02958  0.72282  1.0000
  C   C50       1.0  0.04550  0.47290  0.80171  1.0000
  H   H45       1.0  0.25893  0.45742  0.82008  1.0000
  H   H46       1.0  0.20426  0.46934  0.79882  1.0000
  H   H47       1.0  0.48421  0.49108  0.80781  1.0000
  S   S14       1.0  0.48644  0.46228  0.95460  1.0000
  C   C51       1.0  0.22374  0.42563  0.86249  1.0000
  Fe  Fe1       1.0  0.47694  0.50789  0.92422  1.0000
  H   H48       1.0  0.24783  0.42135  0.87230  1.0000
  C   C52       1.0  0.50782  0.49747  0.79015  1.0000
  C   C53       1.0  0.25291  0.49844  0.91651  1.0000
  H   H49       1.0  0.18317  0.39839  0.90314  1.0000
  H   H50       1.0  0.13948  0.44474  0.82988  1.0000
  H   H51       1.0  0.02550  0.46569  0.96744  1.0000
  H   H52       1.0  0.09976  0.41680  0.87633  1.0000
  C   C54       1.0  0.02230  0.44324  0.78006  1.0000
  S   S15       1.0  0.20548  0.48494  0.93522  1.0000
  H   H53       1.0  0.06196  0.43655  0.69326  1.0000
  H   H54       1.0  0.01836  0.41245  0.78256  1.0000
  H   H55       1.0  0.49773  0.04918  0.82506  1.0000
  H   H56       1.0  0.47157  0.48802  0.70219  1.0000
  Fe  Fe2       1.0  0.10520  0.50466  0.86914  1.0000
  C   C55       1.0  0.48615  0.49436  0.01199  1.0000
  C   C56       1.0  0.49511  0.50845  0.68478  1.0000
  C   C57       1.0  0.08001  0.50023  0.70139  1.0000
  H   H57       1.0  0.08618  0.49738  0.72579  1.0000
  C   C58       1.0  0.05014  0.51250  0.79836  1.0000
  C   C59       1.0  0.50019  0.43776  0.01221  1.0000
  H   H58       1.0  0.49227  0.03920  0.88826  1.0000
  Fe  Fe3       1.0  0.16976  0.51347  0.91502  1.0000
  H   H59       1.0  0.10080  0.51583  0.04040  1.0000
  H   H60       1.0  0.35208  0.79614  0.27031  1.0000
  H   H61       1.0  0.42041  0.85427  0.28388  1.0000
  C   C60       1.0  0.08198  0.51858  0.08783  1.0000
  S   S16       1.0  0.50551  0.90672  0.30868  1.0000
  C   C61       1.0  0.35912  0.86833  0.33526  1.0000
  N   N6        1.0  0.32175  0.83623  0.32782  1.0000
  C   C62       1.0  0.28432  0.82961  0.34429  1.0000
  H   H62       1.0  0.28932  0.78522  0.29873  1.0000
  C   C63       1.0  0.49613  0.94883  0.03471  1.0000
  H   H63       1.0  0.03862  0.55814  0.03064  1.0000
  H   H64       1.0  0.42463  0.90064  0.32533  1.0000
  C   C64       1.0  0.35431  0.81684  0.28833  1.0000
  N   N7        1.0  0.51085  0.53335  0.20900  1.0000
  H   H65       1.0  0.47362  0.92219  0.04899  1.0000
  H   H66       1.0  0.04160  0.58172  0.23115  1.0000
  C   C65       1.0  0.46619  0.54028  0.24604  1.0000
  C   C66       1.0  0.39256  0.84931  0.29593  1.0000
  C   C67       1.0  0.31894  0.81094  0.30440  1.0000
  H   H67       1.0  0.07640  0.51687  0.23002  1.0000
  C   C68       1.0  0.39499  0.87538  0.31937  1.0000
  C   C69       1.0  0.47211  0.52220  0.21980  1.0000
  C   C70       1.0  0.50899  0.94967  0.28691  1.0000
  H   H68       1.0  0.10285  0.55167  0.08891  1.0000
  H   H69       1.0  0.31016  0.72852  0.33687  1.0000
  H   H70       1.0  0.08490  0.53136  0.28650  1.0000
  C   C71       1.0  0.50208  0.97901  0.30100  1.0000
  H   H71       1.0  0.26103  0.79595  0.34680  1.0000
  C   C72       1.0  0.02286  0.52627  0.02395  1.0000
  S   S17       1.0  0.14843  0.55918  0.34195  1.0000
  H   H72       1.0  0.43553  0.52968  0.25575  1.0000
  H   H73       1.0  0.27129  0.84635  0.33130  1.0000
  H   H74       1.0  0.49290  0.97494  0.32555  1.0000
  S   S18       1.0  0.22388  0.67473  0.34524  1.0000
  H   H75       1.0  0.48770  0.51937  0.05701  1.0000
  H   H76       1.0  0.49594  0.58323  0.28210  1.0000
  S   S19       1.0  0.51518  0.98938  0.08949  1.0000
  C   C73       1.0  0.50018  0.57039  0.26089  1.0000
  Fe  Fe4       1.0  0.47510  0.52299  0.43214  1.0000
  H   H77       1.0  0.43802  0.67850  0.38154  1.0000
  Fe  Fe5       1.0  0.48789  0.89417  0.36062  1.0000
  Fe  Fe6       1.0  0.15509  0.53043  0.38679  1.0000
  H   H78       1.0  0.42151  0.64493  0.41675  1.0000
  H   H79       1.0  0.29068  0.84065  0.36851  1.0000
  H   H80       1.0  0.29818  0.69452  0.41950  1.0000
  C   C74       1.0  0.07467  0.53952  0.65862  1.0000
  S   S20       1.0  0.46783  0.57818  0.43969  1.0000
  C   C75       1.0  0.51417  0.97402  0.64994  1.0000
  S   S21       1.0  0.44349  0.57378  0.36536  1.0000
  C   C76       1.0  0.05099  0.54526  0.52925  1.0000
  Fe  Fe7       1.0  0.11627  0.56856  0.42664  1.0000
  S   S22       1.0  0.10836  0.60191  0.38473  1.0000
  S   S23       1.0  0.09458  0.57844  0.47371  1.0000
  H   H81       1.0  0.36145  0.88810  0.35407  1.0000
  Fe  Fe8       1.0  0.17173  0.61659  0.36929  1.0000
  C   C77       1.0  0.48367  0.96479  0.62851  1.0000
  S   S24       1.0  0.18188  0.58875  0.41313  1.0000
  Fe  Fe9       1.0  0.41620  0.86019  0.40756  1.0000
  S   S25       1.0  0.34784  0.83301  0.41536  1.0000
  H   H82       1.0  0.33646  0.62042  0.37057  1.0000
  C   C78       1.0  0.32113  0.68596  0.41422  1.0000
  Fe  Fe10      1.0  0.45426  0.51971  0.36351  1.0000
  H   H83       1.0  0.05267  0.57496  0.53102  1.0000
  C   C79       1.0  0.48786  0.95257  0.59875  1.0000
  S   S26       1.0  0.45989  0.92502  0.38758  1.0000
  S   S27       1.0  0.45489  0.86609  0.44849  1.0000
  C   C80       1.0  0.49887  0.72069  0.44039  1.0000
  H   H84       1.0  0.39925  0.62434  0.38053  1.0000
  C   C81       1.0  0.25891  0.71442  0.36811  1.0000
  C   C82       1.0  0.24603  0.72595  0.39489  1.0000
  C   C83       1.0  0.27398  0.76157  0.41010  1.0000
  C   C84       1.0  0.31504  0.78508  0.39909  1.0000
  C   C85       1.0  0.32816  0.77213  0.37329  1.0000
  H   H85       1.0  0.48642  0.71370  0.46428  1.0000
  H   H86       1.0  0.21418  0.70854  0.40303  1.0000
  H   H87       1.0  0.26350  0.77146  0.42998  1.0000
  H   H88       1.0  0.35932  0.79022  0.36415  1.0000
  C   C86       1.0  0.06978  0.53849  0.50327  1.0000
  H   H89       1.0  0.46624  0.96467  0.47932  1.0000
  S   S28       1.0  0.44128  0.82915  0.37793  1.0000
  H   H90       1.0  0.51140  0.98369  0.67307  1.0000
  H   H91       1.0  0.46419  0.94606  0.58215  1.0000
  C   C87       1.0  0.50347  0.75595  0.42371  1.0000
  H   H92       1.0  0.41703  0.70921  0.43280  1.0000
  Fe  Fe11      1.0  0.48289  0.83881  0.41736  1.0000
  Fe  Fe12      1.0  0.50131  0.92764  0.42586  1.0000
  C   C88       1.0  0.34309  0.64459  0.38672  1.0000
  H   H93       1.0  0.36588  0.73038  0.44414  1.0000
  Fe  Fe13      1.0  0.50047  0.60293  0.39274  1.0000
  H   H94       1.0  0.28389  0.64000  0.38187  1.0000
  N   N8        1.0  0.37976  0.66361  0.40115  1.0000
  C   C89       1.0  0.38794  0.69402  0.42153  1.0000
  C   C90       1.0  0.35893  0.70584  0.42824  1.0000
  C   C91       1.0  0.41111  0.65235  0.39450  1.0000
  Fe  Fe14      1.0  0.41121  0.54599  0.41193  1.0000
  Fe  Fe15      1.0  0.08579  0.54162  0.36126  1.0000
  H   H95       1.0  0.23203  0.55358  0.42614  1.0000
  C   C92       1.0  0.25142  0.54345  0.41548  1.0000
  H   H96       1.0  0.44842  0.98892  0.52731  1.0000
  C   C93       1.0  0.31528  0.54217  0.41450  1.0000
  S   S29       1.0  0.51398  0.55083  0.38757  1.0000
  C   C94       1.0  0.29046  0.55673  0.42685  1.0000
  C   C95       1.0  0.48021  0.99904  0.52140  1.0000
  C   C96       1.0  0.31313  0.65532  0.39314  1.0000
  H   H97       1.0  0.07668  0.56788  0.64910  1.0000
  S   S30       1.0  0.36075  0.55452  0.43320  1.0000
  H   H98       1.0  0.50221  0.93543  0.54340  1.0000
  H   H99       1.0  0.50715  0.66764  0.43976  1.0000
  C   C97       1.0  0.30009  0.73732  0.35759  1.0000
  C   C98       1.0  0.49020  0.98526  0.49420  1.0000
  C   C99       1.0  0.51036  0.69437  0.42646  1.0000
  H   H100      1.0  0.45734  0.96792  0.63466  1.0000
  S   S31       1.0  0.48748  0.78707  0.44242  1.0000
  H   H101      1.0  0.30098  0.57741  0.44598  1.0000
  C   C100      1.0  0.30155  0.51536  0.38988  1.0000
  C   C101      1.0  0.23651  0.51470  0.39219  1.0000
  C   C102      1.0  0.22115  0.72642  0.93720  1.0000
  H   H102      1.0  0.49817  0.72732  0.84169  1.0000
  H   H103      1.0  0.25056  0.75453  0.93908  1.0000
  S   S32       1.0  0.47383  0.58569  0.86317  1.0000
  H   H104      1.0  0.41337  0.60487  0.93792  1.0000
  S   S33       1.0  0.43662  0.53566  0.93239  1.0000
  Fe  Fe16      1.0  0.51033  0.55347  0.86035  1.0000
  H   H105      1.0  0.35157  0.68264  0.86371  1.0000
  H   H106      1.0  0.39423  0.58842  0.90000  1.0000
  Fe  Fe17      1.0  0.50388  0.91584  0.91904  1.0000
  C   C103      1.0  0.09749  0.57248  0.70839  1.0000
  H   H107      1.0  0.30794  0.54166  0.84786  1.0000
  C   C104      1.0  0.39466  0.71567  0.89890  1.0000
  Fe  Fe18      1.0  0.10826  0.54076  0.93293  1.0000
  S   S34       1.0  0.10754  0.56338  0.88327  1.0000
  S   S35       1.0  0.08014  0.55432  0.97516  1.0000
  H   H108      1.0  0.15393  0.63885  0.98047  1.0000
  H   H109      1.0  0.35873  0.57835  0.93269  1.0000
  Fe  Fe19      1.0  0.17598  0.59020  0.88275  1.0000
  S   S36       1.0  0.22023  0.65296  0.85937  1.0000
  S   S37       1.0  0.17698  0.57217  0.93310  1.0000
  Fe  Fe20      1.0  0.42247  0.83663  0.91040  1.0000
  S   S38       1.0  0.43756  0.83283  0.86019  1.0000
  S   S39       1.0  0.36537  0.78606  0.93616  1.0000
  S   S40       1.0  0.17357  0.53346  0.86449  1.0000
  H   H110      1.0  0.46712  0.98912  0.87101  1.0000
  Fe  Fe21      1.0  0.46338  0.90186  0.85623  1.0000
  C   C105      1.0  0.36966  0.68065  0.88246  1.0000
  C   C106      1.0  0.38917  0.60117  0.92167  1.0000
  C   C107      1.0  0.41661  0.71257  0.92371  1.0000
  S   S41       1.0  0.44209  0.90434  0.90522  1.0000
  S   S42       1.0  0.48274  0.84807  0.92860  1.0000
  C   C108      1.0  0.48817  0.96236  0.78586  1.0000
  H   H111      1.0  0.11766  0.62538  0.93078  1.0000
  C   C109      1.0  0.36811  0.64312  0.89047  1.0000
  Fe  Fe22      1.0  0.42174  0.52438  0.88175  1.0000
  H   H112      1.0  0.10499  0.56638  0.73233  1.0000
  C   C110      1.0  0.50035  0.69432  0.88347  1.0000
  H   H113      1.0  0.34876  0.61596  0.87757  1.0000
  C   C111      1.0  0.26338  0.68755  0.87983  1.0000
  C   C112      1.0  0.29244  0.72564  0.86502  1.0000
  C   C113      1.0  0.32448  0.75584  0.88189  1.0000
  C   C114      1.0  0.32750  0.74804  0.91370  1.0000
  C   C115      1.0  0.29934  0.70946  0.92821  1.0000
  C   C116      1.0  0.26756  0.67920  0.91127  1.0000
  H   H114      1.0  0.28951  0.73231  0.84064  1.0000
  H   H115      1.0  0.34600  0.78560  0.87052  1.0000
  H   H116      1.0  0.30182  0.70311  0.95275  1.0000
  H   H117      1.0  0.24564  0.65005  0.92292  1.0000
  H   H118      1.0  0.22103  0.70413  0.98461  1.0000
  C   C117      1.0  0.50379  0.72895  0.86648  1.0000
  Fe  Fe23      1.0  0.49087  0.59536  0.91317  1.0000
  S   S43       1.0  0.45188  0.93735  0.81738  1.0000
  C   C118      1.0  0.41421  0.67454  0.93119  1.0000
  H   H119      1.0  0.45488  0.98988  0.76554  1.0000
  S   S44       1.0  0.50834  0.65503  0.93670  1.0000
  C   C119      1.0  0.20463  0.69801  0.96307  1.0000
  H   H120      1.0  0.39682  0.74518  0.89265  1.0000
  H   H121      1.0  0.21564  0.73188  0.86073  1.0000
  C   C120      1.0  0.03634  0.51554  0.99686  1.0000
  H   H122      1.0  0.20221  0.76591  0.88050  1.0000
  H   H123      1.0  0.49193  0.66630  0.87171  1.0000
  C   C121      1.0  0.16718  0.66144  0.96075  1.0000
  N   N9        1.0  0.39085  0.64069  0.91418  1.0000
  C   C122      1.0  0.16454  0.68238  0.90716  1.0000
  H   H124      1.0  0.43560  0.73964  0.93684  1.0000
  H   H125      1.0  0.25182  0.77031  0.88494  1.0000
  H   H126      1.0  0.43179  0.67252  0.95031  1.0000
  C   C123      1.0  0.14683  0.65370  0.93273  1.0000
  Fe  Fe24      1.0  0.49889  0.84801  0.87788  1.0000
  C   C124      1.0  0.48219  0.98734  0.76364  1.0000
  C   C125      1.0  0.21855  0.74817  0.88267  1.0000
  H   H127      1.0  0.14907  0.67550  0.88516  1.0000
  N   N10       1.0  0.20130  0.71811  0.90959  1.0000
  H   H128      1.0  0.48490  0.91453  0.99275  1.0000
  H   H129      1.0  0.50330  0.99954  0.90102  1.0000
  H   H130      1.0  0.07245  0.57984  0.71108  1.0000
  H   H131      1.0  0.06779  0.53557  0.81490  1.0000
  C   C126      1.0  0.26515  0.52099  0.88765  1.0000
  C   C127      1.0  0.50917  0.69672  0.91522  1.0000
  H   H132      1.0  0.03569  0.55307  0.77117  1.0000
  C   C128      1.0  0.03187  0.52232  0.77356  1.0000
  H   H133      1.0  0.24693  0.53298  0.87755  1.0000
  C   C129      1.0  0.29984  0.52600  0.87090  1.0000
  C   C130      1.0  0.51174  0.00979  0.73935  1.0000
  H   H134      1.0  0.12511  0.59987  0.69734  1.0000
  C   C131      1.0  0.50248  0.94440  0.00285  1.0000
  N   N11       1.0  0.08398  0.53654  0.68905  1.0000
  C   C132      1.0  0.49639  0.01350  0.88024  1.0000
  H   H135      1.0  0.47864  0.51532  0.99953  1.0000
  C   C133      1.0  0.51511  0.76587  0.88130  1.0000
  C   C134      1.0  0.01029  0.48388  0.23348  1.0000
  S   S45       1.0  0.60299  0.49325  0.14488  1.0000
  Fe  Fe25      1.0  0.62235  0.44691  0.13436  1.0000
  S   S46       1.0  0.60592  0.41714  0.18287  1.0000
  H   H136      1.0  0.63158  0.49487  0.07817  1.0000
  S   S47       1.0  0.59046  0.49557  0.23529  1.0000
  C   C135      1.0  0.52610  0.51058  0.30581  1.0000
  Fe  Fe26      1.0  0.57980  0.45873  0.19182  1.0000
  C   C136      1.0  0.60309  0.04862  0.30348  1.0000
  S   S48       1.0  0.56243  0.40224  0.11388  1.0000
  Fe  Fe27      1.0  0.90971  0.42514  0.10629  1.0000
  S   S49       1.0  0.91821  0.38944  0.14627  1.0000
  S   S50       1.0  0.92752  0.41510  0.05774  1.0000
  Fe  Fe28      1.0  0.87455  0.46376  0.14948  1.0000
  S   S51       1.0  0.88250  0.43276  0.19246  1.0000
  H   H137      1.0  0.86430  0.48880  0.23047  1.0000
  Fe  Fe29      1.0  0.94349  0.44911  0.17088  1.0000
  C   C137      1.0  0.54891  0.25758  0.10840  1.0000
  Fe  Fe30      1.0  0.85619  0.37616  0.16412  1.0000
  S   S52       1.0  0.80428  0.31952  0.18957  1.0000
  S   S53       1.0  0.84493  0.40634  0.12217  1.0000
  Fe  Fe31      1.0  0.55848  0.13557  0.12353  1.0000
  S   S54       1.0  0.59075  0.11237  0.09284  1.0000
  Fe  Fe32      1.0  0.54156  0.44631  0.12814  1.0000
  Fe  Fe33      1.0  0.55518  0.08180  0.18033  1.0000
  S   S55       1.0  0.58833  0.05525  0.15436  1.0000
  H   H138      1.0  0.74066  0.44286  0.08355  1.0000
  Fe  Fe34      1.0  0.62901  0.12060  0.13438  1.0000
  S   S56       1.0  0.69682  0.15157  0.12254  1.0000
  Fe  Fe35      1.0  0.54733  0.04945  0.11479  1.0000
  C   C138      1.0  0.54302  0.28571  0.12557  1.0000
  S   S57       1.0  0.59966  0.14805  0.16363  1.0000
  C   C139      1.0  0.53455  0.24460  0.17322  1.0000
  C   C140      1.0  0.73402  0.48875  0.14895  1.0000
  H   H139      1.0  0.65257  0.06617  0.10921  1.0000
  H   H140      1.0  0.68923  0.10923  0.06132  1.0000
  Fe  Fe36      1.0  0.54483  0.37489  0.16322  1.0000
  C   C141      1.0  0.77533  0.27318  0.17038  1.0000
  C   C142      1.0  0.73879  0.24170  0.18508  1.0000
  C   C143      1.0  0.71446  0.20451  0.17038  1.0000
  C   C144      1.0  0.72677  0.19837  0.14099  1.0000
  C   C145      1.0  0.76342  0.22980  0.12626  1.0000
  C   C146      1.0  0.78746  0.26740  0.14076  1.0000
  H   H141      1.0  0.72933  0.24607  0.20801  1.0000
  H   H142      1.0  0.68664  0.18024  0.18214  1.0000
  H   H143      1.0  0.77313  0.22517  0.10353  1.0000
  H   H144      1.0  0.81561  0.29160  0.12926  1.0000
  H   H145      1.0  0.71081  0.40845  0.17450  1.0000
  H   H146      1.0  0.66656  0.24035  0.14992  1.0000
  H   H147      1.0  0.55344  0.26212  0.08317  1.0000
  H   H148      1.0  0.98723  0.38215  0.05842  1.0000
  H   H149      1.0  0.80741  0.46031  0.10569  1.0000
  C   C147      1.0  0.96867  0.45465  0.03426  1.0000
  C   C148      1.0  0.72264  0.46859  0.12082  1.0000
  H   H150      1.0  0.56671  0.05094  0.03998  1.0000
  C   C149      1.0  0.77230  0.49938  0.16114  1.0000
  C   C150      1.0  0.79884  0.48899  0.14571  1.0000
  H   H151      1.0  0.61066  0.06385  0.28019  1.0000
  C   C151      1.0  0.63217  0.45082  0.03119  1.0000
  N   N12       1.0  0.61873  0.48154  0.03029  1.0000
  S   S58       1.0  0.67621  0.45707  0.10367  1.0000
  C   C152      1.0  0.54720  0.22269  0.12355  1.0000
  C   C153      1.0  0.74922  0.45830  0.10539  1.0000
  C   C154      1.0  0.54154  0.21705  0.15615  1.0000
  H   H152      1.0  0.95398  0.46678  0.30134  1.0000
  C   C155      1.0  0.97584  0.46947  0.25380  1.0000
  H   H153      1.0  0.54265  0.31153  0.11352  1.0000
  H   H154      1.0  0.66566  0.46639  0.03502  1.0000
  H   H155      1.0  0.70330  0.26470  0.11749  1.0000
  C   C156      1.0  0.98939  0.49592  0.04274  1.0000
  H   H156      1.0  0.94544  0.45247  0.24482  1.0000
  C   C157      1.0  0.54951  0.48793  0.26090  1.0000
  C   C158      1.0  0.53434  0.27843  0.15786  1.0000
  H   H157      1.0  0.65116  0.25217  0.11298  1.0000
  S   S59       1.0  0.93842  0.48564  0.12993  1.0000
  S   S60       1.0  0.00561  0.47781  0.19263  1.0000
  H   H158      1.0  0.71381  0.49704  0.16090  1.0000
  H   H159      1.0  0.97953  0.50449  0.06366  1.0000
  C   C159      1.0  0.66045  0.05785  0.03095  1.0000
  C   C160      1.0  0.55808  0.51274  0.28679  1.0000
  H   H160      1.0  0.59107  0.09442  0.32270  1.0000
  C   C161      1.0  0.59195  0.06609  0.32747  1.0000
  S   S61       1.0  0.53375  0.06839  0.23165  1.0000
  C   C162      1.0  0.66767  0.07626  0.05975  1.0000
  S   S62       1.0  0.54767  0.18468  0.10073  1.0000
  C   C163      1.0  0.62052  0.50172  0.05681  1.0000
  C   C164      1.0  0.52209  0.02129  0.25182  1.0000
  C   C165      1.0  0.98076  0.47762  0.28582  1.0000
  C   C166      1.0  0.78697  0.46798  0.11798  1.0000
  H   H161      1.0  0.61597  0.42746  0.05093  1.0000
  N   N13       1.0  0.68622  0.30392  0.14097  1.0000
  C   C167      1.0  0.65530  0.31225  0.14661  1.0000
  C   C168      1.0  0.72576  0.33225  0.14746  1.0000
  C   C169      1.0  0.66367  0.35007  0.15847  1.0000
  C   C170      1.0  0.73520  0.37024  0.15960  1.0000
  C   C171      1.0  0.70389  0.37911  0.16511  1.0000
  C   C172      1.0  0.67634  0.26336  0.12975  1.0000
  H   H162      1.0  0.62393  0.28959  0.14201  1.0000
  H   H163      1.0  0.75030  0.32562  0.14336  1.0000
  H   H164      1.0  0.63908  0.35673  0.16258  1.0000
  H   H165      1.0  0.76663  0.39261  0.16472  1.0000
  C   C173      1.0  0.99823  0.38961  0.08260  1.0000
  C   C174      1.0  0.54850  0.02133  0.02973  1.0000
  H   H166      1.0  0.97027  0.37945  0.09782  1.0000
  H   H167      1.0  0.54055  0.19041  0.16804  1.0000
  H   H168      1.0  0.52799  0.23898  0.19825  1.0000
  C   C175      1.0  0.64682  0.05211  0.08675  1.0000
  S   S63       1.0  0.84705  0.50352  0.16103  1.0000
  H   H169      1.0  0.00817  0.43622  0.13149  1.0000
  C   C176      1.0  0.63240  0.01535  0.02966  1.0000
  H   H170      1.0  0.01322  0.37170  0.08983  1.0000
  S   S64       1.0  0.51718  0.30722  0.17851  1.0000
  S   S65       1.0  0.51727  0.41419  0.17576  1.0000
  H   H171      1.0  0.54375  0.50967  0.18450  1.0000
  C   C177      1.0  0.51665  0.51366  0.18182  1.0000
  H   H172      1.0  0.53087  0.38529  0.49976  1.0000
  Fe  Fe37      1.0  0.60348  0.49148  0.61367  1.0000
  C   C178      1.0  0.65403  0.29918  0.64519  1.0000
  C   C179      1.0  0.71379  0.36750  0.64548  1.0000
  C   C180      1.0  0.55295  0.29840  0.65648  1.0000
  H   H173      1.0  0.58383  0.41370  0.53993  1.0000
  Fe  Fe38      1.0  0.58296  0.40233  0.62679  1.0000
  S   S66       1.0  0.56485  0.34420  0.60104  1.0000
  H   H174      1.0  0.57588  0.05940  0.54790  1.0000
  S   S67       1.0  0.64024  0.45960  0.60833  1.0000
  Fe  Fe39      1.0  0.95843  0.43776  0.61675  1.0000
  C   C181      1.0  0.58115  0.04626  0.35732  1.0000
  H   H175      1.0  0.54051  0.10937  0.51753  1.0000
  Fe  Fe40      1.0  0.89279  0.46042  0.63125  1.0000
  C   C182      1.0  0.58480  0.43349  0.52020  1.0000
  Fe  Fe41      1.0  0.88491  0.38182  0.66107  1.0000
  C   C183      1.0  0.93417  0.45036  0.52469  1.0000
  S   S68       1.0  0.89049  0.40466  0.61110  1.0000
  H   H176      1.0  0.78384  0.48539  0.58626  1.0000
  S   S69       1.0  0.57171  0.15059  0.60884  1.0000
  C   C184      1.0  0.81543  0.48457  0.66011  1.0000
  S   S70       1.0  0.54496  0.43327  0.62813  1.0000
  S   S71       1.0  0.60048  0.08197  0.62164  1.0000
  Fe  Fe42      1.0  0.62829  0.15111  0.62446  1.0000
  S   S72       1.0  0.68532  0.20218  0.59897  1.0000
  Fe  Fe43      1.0  0.54246  0.08147  0.61016  1.0000
  C   C185      1.0  0.75165  0.48589  0.62839  1.0000
  C   C186      1.0  0.61516  0.47532  0.51765  1.0000
  S   S73       1.0  0.96157  0.49579  0.63270  1.0000
  C   C187      1.0  0.75154  0.48618  0.66111  1.0000
  C   C188      1.0  0.92803  0.48135  0.53644  1.0000
  H   H177      1.0  0.62251  0.27882  0.63945  1.0000
  C   C189      1.0  0.73136  0.22042  0.65174  1.0000
  C   C190      1.0  0.72771  0.23345  0.62147  1.0000
  C   C191      1.0  0.75842  0.27216  0.60867  1.0000
  C   C192      1.0  0.79252  0.29784  0.62606  1.0000
  H   H178      1.0  0.53224  0.43145  0.45595  1.0000
  H   H179      1.0  0.79602  0.39730  0.64516  1.0000
  C   C193      1.0  0.54750  0.26367  0.60863  1.0000
  H   H180      1.0  0.81573  0.32764  0.61602  1.0000
  C   C194      1.0  0.55197  0.03898  0.53293  1.0000
  H   H181      1.0  0.96127  0.43386  0.48741  1.0000
  C   C195      1.0  0.55610  0.44378  0.47291  1.0000
  H   H182      1.0  0.72843  0.40061  0.63990  1.0000
  C   C196      1.0  0.55423  0.29919  0.62374  1.0000
  H   H183      1.0  0.66848  0.19460  0.52854  1.0000
  C   C197      1.0  0.71664  0.30946  0.66718  1.0000
  C   C198      1.0  0.55507  0.41754  0.49768  1.0000
  C   C199      1.0  0.58580  0.20562  0.54393  1.0000
  H   H184      1.0  0.75581  0.28242  0.58526  1.0000
  C   C200      1.0  0.78372  0.48522  0.61159  1.0000
  N   N14       1.0  0.55528  0.16731  0.53612  1.0000
  C   C201      1.0  0.67595  0.28279  0.65980  1.0000
  C   C202      1.0  0.95612  0.45790  0.49612  1.0000
  H   H185      1.0  0.61292  0.12664  0.51166  1.0000
  H   H186      1.0  0.72749  0.48693  0.61595  1.0000
  N   N15       1.0  0.58581  0.48484  0.47076  1.0000
  C   C203      1.0  0.54038  0.22785  0.62617  1.0000
  C   C204      1.0  0.58711  0.51179  0.44432  1.0000
  H   H187      1.0  0.57213  0.05913  0.37619  1.0000
  S   S74       1.0  0.85494  0.48271  0.60569  1.0000
  C   C205      1.0  0.79656  0.28465  0.65618  1.0000
  Fe  Fe44      1.0  0.57952  0.07889  0.67206  1.0000
  N   N16       1.0  0.97192  0.49545  0.47987  1.0000
  H   H188      1.0  0.59389  0.03708  0.49883  1.0000
  H   H189      1.0  0.55636  0.49978  0.43431  1.0000
  C   C206      1.0  0.62694  0.21601  0.54118  1.0000
  C   C207      1.0  0.60558  0.14915  0.52054  1.0000
  C   C208      1.0  0.63677  0.18741  0.52964  1.0000
  S   S75       1.0  0.95311  0.40993  0.66554  1.0000
  Fe  Fe45      1.0  0.56610  0.44868  0.67724  1.0000
  C   C209      1.0  0.56474  0.13958  0.52391  1.0000
  Fe  Fe46      1.0  0.65354  0.47161  0.65899  1.0000
  H   H190      1.0  0.92289  0.42105  0.53804  1.0000
  H   H191      1.0  0.70801  0.19048  0.66172  1.0000
  H   H192      1.0  0.57844  0.22762  0.55374  1.0000
  C   C210      1.0  0.81559  0.48435  0.62739  1.0000
  H   H193      1.0  0.65104  0.24534  0.54910  1.0000
  Fe  Fe47      1.0  0.55417  0.14344  0.65964  1.0000
  H   H194      1.0  0.91130  0.47606  0.55869  1.0000
  S   S76       1.0  0.83819  0.31668  0.67916  1.0000
  H   H195      1.0  0.97173  0.48980  0.43053  1.0000
  C   C211      1.0  0.53781  0.48343  0.54908  1.0000
  C   C212      1.0  0.53977  0.22731  0.65896  1.0000
  N   N17       1.0  0.73524  0.35109  0.65947  1.0000
  C   C213      1.0  0.76591  0.24579  0.66890  1.0000
  H   H196      1.0  0.54771  0.26395  0.58333  1.0000
  S   S77       1.0  0.61268  0.14826  0.67562  1.0000
  H   H197      1.0  0.53463  0.20045  0.61443  1.0000
  S   S78       1.0  0.51944  0.07371  0.66033  1.0000
  C   C214      1.0  0.77818  0.37872  0.66662  1.0000
  H   H198      1.0  0.53579  0.46046  0.56624  1.0000
  S   S79       1.0  0.62216  0.50922  0.66301  1.0000
  C   C215      1.0  0.61529  0.50065  0.49257  1.0000
  H   H199      1.0  0.63771  0.48843  0.53551  1.0000
  H   H200      1.0  0.84023  0.48468  0.67249  1.0000
  C   C216      1.0  0.54551  0.26250  0.67403  1.0000
  C   C217      1.0  0.67278  0.34182  0.63820  1.0000
  H   H201      1.0  0.66156  0.24963  0.66532  1.0000
  H   H202      1.0  0.55728  0.32521  0.66838  1.0000
  H   H203      1.0  0.60899  0.51403  0.42558  1.0000
  S   S80       1.0  0.00019  0.43466  0.57941  1.0000
  H   H204      1.0  0.65563  0.35482  0.62723  1.0000
  H   H205      1.0  0.79306  0.36123  0.67537  1.0000
  C   C218      1.0  0.56207  0.02622  0.50522  1.0000
  C   C219      1.0  0.99381  0.50225  0.44954  1.0000
  H   H206      1.0  0.01264  0.48696  0.44981  1.0000
  C   C220      1.0  0.78358  0.48562  0.67689  1.0000
  H   H207      1.0  0.73327  0.29658  0.67897  1.0000
  S   S81       1.0  0.59862  0.41212  0.67724  1.0000
  H   H208      1.0  0.52700  0.51018  0.61055  1.0000
  H   H209      1.0  0.96566  0.41224  0.00004  1.0000
  H   H210      1.0  0.62590  0.43393  0.00927  1.0000
  C   C221      1.0  0.55368  0.44105  0.81499  1.0000
  H   H211      1.0  0.62011  0.03529  0.83894  1.0000
  C   C222      1.0  0.65054  0.47242  0.74788  1.0000
  C   C223      1.0  0.00396  0.45306  0.75524  1.0000
  H   H212      1.0  0.52837  0.43388  0.83138  1.0000
  C   C224      1.0  0.56291  0.02509  0.85966  1.0000
  S   S82       1.0  0.88306  0.43576  0.68118  1.0000
  C   C225      1.0  0.59383  0.03938  0.83602  1.0000
  H   H213      1.0  0.57829  0.04321  0.98384  1.0000
  H   H214      1.0  0.54463  0.26211  0.69936  1.0000
  H   H215      1.0  0.68134  0.49154  0.75751  1.0000
  C   C226      1.0  0.59092  0.47795  0.81672  1.0000
  S   S83       1.0  0.58599  0.03599  0.70758  1.0000
  C   C227      1.0  0.53066  0.47664  0.74399  1.0000
  C   C228      1.0  0.54856  0.41437  0.79123  1.0000
  C   C229      1.0  0.55587  0.06266  0.80476  1.0000
  H   H216      1.0  0.76877  0.23539  0.69221  1.0000
  C   C230      1.0  0.52518  0.04732  0.82862  1.0000
  N   N18       1.0  0.52905  0.02901  0.85567  1.0000
  H   H217      1.0  0.61340  0.06866  0.78950  1.0000
  N   N19       1.0  0.61760  0.46093  0.77166  1.0000
  S   S84       1.0  0.71200  0.48730  0.68296  1.0000
  H   H218      1.0  0.64736  0.49036  0.72790  1.0000
  H   H219      1.0  0.98630  0.43003  0.73868  1.0000
  H   H220      1.0  0.57610  0.40487  0.75037  1.0000
  H   H221      1.0  0.64987  0.44454  0.73873  1.0000
  C   C231      1.0  0.62273  0.48753  0.79466  1.0000
  H   H222      1.0  0.55234  0.07640  0.78305  1.0000
  C   C232      1.0  0.98172  0.44405  0.00688  1.0000
  S   S85       1.0  0.99023  0.50826  0.71928  1.0000
  C   C233      1.0  0.58093  0.42501  0.76948  1.0000
  H   H223      1.0  0.78391  0.48621  0.70218  1.0000
  C   C234      1.0  0.59022  0.05831  0.80842  1.0000
  H   H224      1.0  0.60271  0.47380  0.98230  1.0000
  H   H225      1.0  0.59456  0.49966  0.83436  1.0000
  S   S86       1.0  0.53266  0.18359  0.68165  1.0000
  C   C235      1.0  0.60491  0.49022  0.00324  1.0000
  C   C236      1.0  0.00893  0.49281  0.75178  1.0000
  C   C237      1.0  0.55510  0.01683  0.99793  1.0000
  H   H226      1.0  0.78022  0.40005  0.68487  1.0000
  H   H227      1.0  0.51920  0.38642  0.78885  1.0000
  S   S87       1.0  0.51992  0.43938  0.71585  1.0000
  H   H228      1.0  0.67625  0.07643  0.00975  1.0000
  C   C238      1.0  0.56859  0.51333  0.74410  1.0000
  Fe  Fe48      1.0  0.95185  0.46600  0.68147  1.0000
  C   C239      1.0  0.01560  0.47429  0.98835  1.0000
  C   C240      1.0  0.58263  0.94752  0.05473  1.0000
  H   H229      1.0  0.61067  0.00504  0.26036  1.0000
  C   C241      1.0  0.61832  0.00997  0.08455  1.0000
  C   C242      1.0  0.98627  0.55945  0.20559  1.0000
  H   H230      1.0  0.93120  0.54378  0.28606  1.0000
  H   H231      1.0  0.59578  0.95983  0.28526  1.0000
  H   H232      1.0  0.56614  0.60474  0.26124  1.0000
  H   H233      1.0  0.58960  0.53453  0.29170  1.0000
  C   C243      1.0  0.59267  0.99267  0.33827  1.0000
  C   C244      1.0  0.88000  0.52110  0.23833  1.0000
  H   H234      1.0  0.58201  0.56149  0.02948  1.0000
  H   H235      1.0  0.00123  0.56184  0.18306  1.0000
  N   N20       1.0  0.61137  0.99214  0.05623  1.0000
  C   C245      1.0  0.98901  0.56542  0.26161  1.0000
  H   H236      1.0  0.64776  0.00325  0.28572  1.0000
  N   N21       1.0  0.92456  0.53846  0.23661  1.0000
  H   H237      1.0  0.59823  0.92979  0.06066  1.0000
  H   H238      1.0  0.57507  0.57149  0.21501  1.0000
  C   C246      1.0  0.51962  0.98707  0.04842  1.0000
  H   H239      1.0  0.87146  0.53981  0.22264  1.0000
  C   C247      1.0  0.94648  0.54884  0.26326  1.0000
  H   H240      1.0  0.00619  0.57244  0.28286  1.0000
  C   C248      1.0  0.52114  0.95561  0.25501  1.0000
  H   H241      1.0  0.59223  0.96357  0.34260  1.0000
  C   C249      1.0  0.54437  0.56338  0.22310  1.0000
  C   C250      1.0  0.59342  0.53994  0.02947  1.0000
  H   H242      1.0  0.55585  0.93743  0.07135  1.0000
  H   H243      1.0  0.60130  0.99173  0.10557  1.0000
  H   H244      1.0  0.60738  0.54551  0.07836  1.0000
  C   C251      1.0  0.94389  0.54350  0.20804  1.0000
  C   C252      1.0  0.53956  0.58232  0.24925  1.0000
  H   H245      1.0  0.53811  0.99608  0.21315  1.0000
  C   C253      1.0  0.61506  0.99431  0.28384  1.0000
  H   H246      1.0  0.92641  0.53463  0.18699  1.0000
  C   C254      1.0  0.52793  0.99140  0.23755  1.0000
  H   H247      1.0  0.52629  0.93290  0.24388  1.0000
  C   C255      1.0  0.60757  0.53092  0.05690  1.0000
  H   H248      1.0  0.86818  0.52055  0.26243  1.0000
  H   H249      1.0  0.57010  0.93974  0.03100  1.0000
  N   N22       1.0  0.60285  0.01209  0.30901  1.0000
  C   C256      1.0  0.00892  0.57064  0.23257  1.0000
  H   H250      1.0  0.53314  0.53079  0.32504  1.0000
  H   H251      1.0  0.52110  0.53279  0.15998  1.0000
  H   H252      1.0  0.78138  0.51579  0.18254  1.0000
  S   S88       1.0  0.54222  0.67062  0.37853  1.0000
  H   H253      1.0  0.57344  0.99391  0.38598  1.0000
  S   S89       1.0  0.60698  0.53983  0.57819  1.0000
  C   C257      1.0  0.53124  0.99930  0.48577  1.0000
  H   H254      1.0  0.57268  0.97909  0.65781  1.0000
  H   H255      1.0  0.54550  0.74621  0.35551  1.0000
  C   C258      1.0  0.57158  0.55410  0.52722  1.0000
  C   C259      1.0  0.55200  0.95945  0.61126  1.0000
  S   S90       1.0  0.54536  0.98549  0.45056  1.0000
  H   H256      1.0  0.93964  0.54377  0.52883  1.0000
  S   S91       1.0  0.53246  0.90079  0.39739  1.0000
  C   C260      1.0  0.52727  0.70344  0.39588  1.0000
  H   H257      1.0  0.54621  0.56451  0.48509  1.0000
  H   H258      1.0  0.59569  0.58619  0.52788  1.0000
  C   C261      1.0  0.53229  0.73897  0.37917  1.0000
  H   H259      1.0  0.58141  0.60346  0.67779  1.0000
  C   C262      1.0  0.54357  0.54195  0.50304  1.0000
  C   C263      1.0  0.55737  0.55978  0.64148  1.0000
  H   H260      1.0  0.57901  0.95777  0.60465  1.0000
  H   H261      1.0  0.58182  0.57929  0.62432  1.0000
  H   H262      1.0  0.97876  0.55586  0.47845  1.0000
  C   C264      1.0  0.55709  0.57331  0.67143  1.0000
  C   C265      1.0  0.96594  0.52598  0.49118  1.0000
  C   C266      1.0  0.54859  0.97137  0.64133  1.0000
  H   H263      1.0  0.52283  0.90576  0.56133  1.0000
  C   C267      1.0  0.51991  0.76496  0.39292  1.0000
  C   C268      1.0  0.52592  0.93700  0.55930  1.0000
  C   C269      1.0  0.94400  0.51943  0.51964  1.0000
  H   H264      1.0  0.55624  0.95942  0.54788  1.0000
  C   C270      1.0  0.52625  0.52049  0.63381  1.0000
  H   H265      1.0  0.52360  0.79215  0.37991  1.0000
  N   N23       1.0  0.52186  0.95029  0.59040  1.0000
  C   C271      1.0  0.56921  0.52471  0.54995  1.0000
  C   C272      1.0  0.58171  0.00946  0.36283  1.0000
  H   H266      1.0  0.01441  0.51905  0.57222  1.0000
  H   H267      1.0  0.01555  0.53583  0.44392  1.0000
  H   H268      1.0  0.63844  0.53333  0.49121  1.0000
  H   H269      1.0  0.59640  0.54337  0.45200  1.0000
  C   C273      1.0  0.60695  0.79159  0.84450  1.0000
  C   C274      1.0  0.55291  0.98140  0.75876  1.0000
  H   H270      1.0  0.57333  0.66306  0.80944  1.0000
  H   H271      1.0  0.53194  0.79654  0.92477  1.0000
  H   H272      1.0  0.60556  0.57015  0.76737  1.0000
  H   H273      1.0  0.59442  0.68208  0.90738  1.0000
  H   H274      1.0  0.60759  0.75375  0.89881  1.0000
  S   S92       1.0  0.55700  0.56948  0.82015  1.0000
  H   H275      1.0  0.58546  0.79321  0.82774  1.0000
  C   C275      1.0  0.58856  0.72378  0.82483  1.0000
  H   H276      1.0  0.57837  0.63692  0.86218  1.0000
  H   H277      1.0  0.58631  0.73516  0.80165  1.0000
  C   C276      1.0  0.52261  0.76792  0.91328  1.0000
  C   C277      1.0  0.52353  0.95924  0.78322  1.0000
  H   H278      1.0  0.58030  0.97901  0.75697  1.0000
  C   C278      1.0  0.58126  0.68317  0.82900  1.0000
  N   N24       1.0  0.59808  0.74873  0.84968  1.0000
  C   C279      1.0  0.60089  0.73437  0.87894  1.0000
  S   S93       1.0  0.52535  0.81052  0.85856  1.0000
  S   S94       1.0  0.54555  0.97270  0.94572  1.0000
  C   C280      1.0  0.57607  0.54194  0.76725  1.0000
  C   C281      1.0  0.58400  0.66833  0.85873  1.0000
  H   H279      1.0  0.52673  0.73558  0.95473  1.0000
  H   H280      1.0  0.60266  0.80427  0.86651  1.0000
  C   C282      1.0  0.59362  0.69389  0.88394  1.0000
  H   H281      1.0  0.63893  0.81173  0.83516  1.0000
  H   H282      1.0  0.52544  0.55744  0.71680  1.0000
  C   C283      1.0  0.52565  0.54763  0.69322  1.0000
  C   C284      1.0  0.54587  0.53389  0.79056  1.0000
  C   C285      1.0  0.53264  0.97821  0.98452  1.0000
  H   H283      1.0  0.59218  0.51962  0.72648  1.0000
  H   H284      1.0  0.52831  0.93986  0.80004  1.0000
  S   S95       1.0  0.52625  0.91692  0.86958  1.0000
  H   H285      1.0  0.57988  0.52538  0.98123  1.0000
  S   S96       1.0  0.53256  0.56875  0.90924  1.0000
  H   H286      1.0  0.62661  0.00130  0.00713  1.0000
  C   C286      1.0  0.51992  0.73350  0.93014  1.0000
  C   C287      1.0  0.54736  0.00710  0.73696  1.0000
  C   C288      1.0  0.59227  0.51969  0.00238  1.0000
  H   H287      1.0  0.56594  0.01038  0.88105  1.0000
  H   H288      1.0  0.65121  0.51680  0.79565  1.0000
