data_image0
_chemical_formula_structural       HCH2C2S2H2FeCHFeCH2NH2SC8HFeH3CSCHCHFeSFeHSFeS2CHCH3CH2CSCHFeS2FeSFeSFeS3FeS2Fe2SFeSFeS3CN2FeCFeHCHSHC3HCH2C4SH2C6H4C6H3C5HC6H4C6H4C6H6C3HCS2HC2SC2H3FeHCSCHSH2NSH3CHSNHCHC3SH2CS3CHCHFeC2SCHSCNC3H2CHC2H3CFeHNCSC3HC3HNH4CHCH3CHNHCNSC2HC4H3C2HC2H3CH2C2H9C2HCH4CHC2HCHC2H3NHCHCHSCFeCFeS2FeSH2C2H2C3SH2CH4SCHCHSCH5NSCHC2S2HCHSHC2FeC2NFeC3H2CHS2CHCSH2SCNHFeC2SCH3CHC2HC2FeC2HC2H2SCHC2HCHC3SFeC3SCH2NSHCFeCHCH2CHC2SH2C2HCFeHFeHSC2H3CH5FeH2C2HS2CS2CH2FeSFeHCH5CSCHFeCHC2HC4FeS2HCNHSC5HSH2CHC2HSCHNCHC2H2C4H3C2H4CSHCNHFeHSH2C2HCHCHFeH2FeSFeS3HSHCHSCFeS2FeSFeS4C3HSCSHC9H4C2H2C6H5C6H4C3NHCSH2C2FeH3FeCSCH3FeH3CH3C2NCH2SFeSH2C3FeHC2SCH7CHCSHC3FeH2FeHCNH4C3NH2CFeC2HFe2HFeSHFe2C2SHC3HCSC3SHFeCNC3NCH3NHC4SC2HSH3C2H2SH2SH2FeCHSHCSH2CHCSHNCHCH2C3NHSHSH3SHC2S2CHFeSH2C3H3NC2SCSCFeSH2CHC2H2FeCHFeSCFeS2HSHFeS2FeS2FeSFeS3C2HFeS2FeSCFeSFeS3C6H4C5H3CH2CNC2H2SC7H4C6H3C6H3CH4CNH2NC4H6C2SHSH2CH2C4SH2CH3CHCH4NHCHC2HC2H2C3HC3HSH3CH2NH2CHCHNS2C4H5CH2CFeCH3CFeHC2HCH8S3H2CHC2SHFeSCH3FeC2HNCFe2SCSFeCNH2CH3CNC2HNSCH5C2HCSCHCNC7H4C3H2C3H2CSH2C2HCHFeCH2SHCHCFeHCSFeSCFeS2FeSFeS3C6SHCH2CH2C6H4C7H3CHSHNH2CH4NC6H9FeC4HNC3FeHCSC3HCH2SNHC2NHSCSHC4HCSH2CH2CSH3FeHC3H3CNCHCHC2SC2HCSCH5CH3S2FeC2H2C2H2SCSHSHCH2C2HS2HC3HSH2FeH2NCSCHSCSCH2FeCSFeCHCHCH4FeSC6H4CHC4SC2SFeH2SCSHC2HC2SNCSFeHC2H2C2H3CHC3H2SFe2HNH2CHCHC2SH6C2HC2HCH2CHCH
_chemical_formula_sum              "H576 C576 S192 Fe96 N48"
_cell_length_a       67.5069
_cell_length_b       73.8941
_cell_length_c       33.8106
_cell_angle_alpha    84.8734
_cell_angle_beta     78.8186
_cell_angle_gamma    110.646

_space_group_name_H-M_alt    "P 1"
_space_group_IT_number       1

loop_
  _space_group_symop_operation_xyz
  'x, y, z'

loop_
  _atom_site_type_symbol
  _atom_site_label
  _atom_site_symmetry_multiplicity
  _atom_site_fract_x
  _atom_site_fract_y
  _atom_site_fract_z
  _atom_site_occupancy
  H   H1        1.0  0.99865  0.37790  0.56411  1.0000
  C   C1        1.0  0.00942  0.43119  0.50029  1.0000
  H   H2        1.0  0.05269  0.47289  0.87581  1.0000
  H   H3        1.0  0.00661  0.46118  0.60160  1.0000
  C   C2        1.0  0.98639  0.45894  0.55897  1.0000
  C   C3        1.0  0.00130  0.39261  0.61617  1.0000
  S   S1        1.0  0.99274  0.44150  0.76809  1.0000
  S   S2        1.0  0.00482  0.41064  0.68269  1.0000
  H   H4        1.0  0.01550  0.38980  0.62044  1.0000
  H   H5        1.0  0.00277  0.41595  0.51483  1.0000
  Fe  Fe1       1.0  0.02139  0.47036  0.75053  1.0000
  C   C4        1.0  0.00955  0.45642  0.45147  1.0000
  H   H6        1.0  0.03164  0.44004  0.53939  1.0000
  Fe  Fe2       1.0  0.00270  0.43817  0.70278  1.0000
  C   C5        1.0  0.02601  0.47042  0.46444  1.0000
  H   H7        1.0  0.27716  0.45811  0.11275  1.0000
  H   H8        1.0  0.04144  0.47077  0.93004  1.0000
  N   N1        1.0  0.00143  0.43709  0.46947  1.0000
  H   H9        1.0  0.04638  0.47535  0.50734  1.0000
  H   H10       1.0  0.00292  0.46124  0.42771  1.0000
  S   S3        1.0  0.03304  0.46537  0.68730  1.0000
  C   C6        1.0  0.99272  0.40311  0.64222  1.0000
  C   C7        1.0  0.03414  0.46454  0.49609  1.0000
  C   C8        1.0  0.04142  0.47684  0.89880  1.0000
  C   C9        1.0  0.02588  0.44477  0.51409  1.0000
  C   C10       1.0  0.29085  0.47143  0.09729  1.0000
  C   C11       1.0  0.00078  0.46915  0.58137  1.0000
  C   C12       1.0  0.99174  0.38583  0.58438  1.0000
  C   C13       1.0  0.30471  0.48257  0.11933  1.0000
  H   H11       1.0  0.98498  0.40842  0.45757  1.0000
  Fe  Fe3       1.0  0.01167  0.48037  0.67005  1.0000
  H   H12       1.0  0.28314  0.46977  0.03839  1.0000
  H   H13       1.0  0.02470  0.46969  0.89430  1.0000
  H   H14       1.0  0.30192  0.47795  0.15199  1.0000
  C   C14       1.0  0.29428  0.47789  0.05557  1.0000
  S   S4        1.0  0.04480  0.47894  0.79103  1.0000
  C   C15       1.0  0.98306  0.42275  0.45790  1.0000
  H   H15       1.0  0.15077  0.66006  0.17127  1.0000
  C   C16       1.0  0.13744  0.67115  0.07411  1.0000
  H   H16       1.0  0.12015  0.66713  0.95291  1.0000
  Fe  Fe4       1.0  0.09434  0.58157  0.10276  1.0000
  S   S5        1.0  0.07351  0.55835  0.07381  1.0000
  Fe  Fe5       1.0  0.13641  0.60128  0.12723  1.0000
  H   H17       1.0  0.01637  0.52895  0.34370  1.0000
  S   S6        1.0  0.17151  0.60614  0.12233  1.0000
  Fe  Fe6       1.0  0.09315  0.59249  0.18671  1.0000
  S   S7        1.0  0.07348  0.58539  0.25165  1.0000
  S   S8        1.0  0.10767  0.57329  0.15426  1.0000
  C   C17       1.0  0.28687  0.64346  0.10980  1.0000
  H   H18       1.0  0.18984  0.67396  0.05618  1.0000
  C   C18       1.0  0.29181  0.52910  0.08655  1.0000
  H   H19       1.0  0.07901  0.49329  0.68785  1.0000
  H   H20       1.0  0.29892  0.64114  0.82129  1.0000
  H   H21       1.0  0.31352  0.50083  0.00444  1.0000
  C   C19       1.0  0.99959  0.54848  0.26519  1.0000
  H   H22       1.0  0.15194  0.64948  0.07626  1.0000
  H   H23       1.0  0.17441  0.69513  0.14575  1.0000
  C   C20       1.0  0.06335  0.53903  0.87830  1.0000
  S   S9        1.0  0.02215  0.50170  0.61143  1.0000
  C   C21       1.0  0.29291  0.56403  0.19571  1.0000
  H   H24       1.0  0.27773  0.55169  0.20948  1.0000
  Fe  Fe7       1.0  0.13360  0.57252  0.80735  1.0000
  S   S10       1.0  0.14815  0.55021  0.81893  1.0000
  S   S11       1.0  0.10820  0.56767  0.77030  1.0000
  Fe  Fe8       1.0  0.15664  0.59799  0.86381  1.0000
  S   S12       1.0  0.17207  0.57715  0.88130  1.0000
  Fe  Fe9       1.0  0.17908  0.57581  0.81440  1.0000
  S   S13       1.0  0.21035  0.57501  0.77842  1.0000
  Fe  Fe10      1.0  0.13978  0.55373  0.88428  1.0000
  S   S14       1.0  0.12183  0.52752  0.93361  1.0000
  S   S15       1.0  0.16558  0.59826  0.79615  1.0000
  S   S16       1.0  0.12340  0.57454  0.87329  1.0000
  Fe  Fe11      1.0  0.23432  0.55709  0.00163  1.0000
  S   S17       1.0  0.24788  0.53992  0.96085  1.0000
  S   S18       1.0  0.19840  0.54989  0.01315  1.0000
  Fe  Fe12      1.0  0.27836  0.58152  0.01389  1.0000
  Fe  Fe13      1.0  0.28336  0.72282  0.99522  1.0000
  S   S19       1.0  0.29861  0.60340  0.04601  1.0000
  Fe  Fe14      1.0  0.27423  0.56901  0.93251  1.0000
  S   S20       1.0  0.28602  0.57740  0.86449  1.0000
  Fe  Fe15      1.0  0.26786  0.53919  0.00591  1.0000
  S   S21       1.0  0.27142  0.51165  0.02972  1.0000
  S   S22       1.0  0.25926  0.58657  0.96965  1.0000
  S   S23       1.0  0.25189  0.55372  0.04983  1.0000
  C   C22       1.0  0.18044  0.69888  0.05158  1.0000
  N   N2        1.0  0.21017  0.52829  0.85407  1.0000
  N   N3        1.0  0.20017  0.65632  0.15634  1.0000
  Fe  Fe16      1.0  0.99010  0.48996  0.35900  1.0000
  C   C23       1.0  0.21005  0.64160  0.15854  1.0000
  Fe  Fe17      1.0  0.25659  0.68566  0.96742  1.0000
  H   H25       1.0  0.10445  0.56481  0.64120  1.0000
  C   C24       1.0  0.08970  0.62645  0.01779  1.0000
  H   H26       1.0  0.13248  0.66291  0.99401  1.0000
  S   S24       1.0  0.11050  0.65406  0.08824  1.0000
  H   H27       1.0  0.17869  0.65831  0.93043  1.0000
  C   C25       1.0  0.28716  0.61974  0.06481  1.0000
  C   C26       1.0  0.27141  0.62382  0.04827  1.0000
  C   C27       1.0  0.18165  0.68429  0.14948  1.0000
  H   H28       1.0  0.26540  0.61626  0.02456  1.0000
  C   C28       1.0  0.27464  0.51336  0.07952  1.0000
  H   H29       1.0  0.00645  0.51569  0.54606  1.0000
  H   H30       1.0  0.29558  0.66434  0.94708  1.0000
  C   C29       1.0  0.28105  0.51509  0.15877  1.0000
  C   C30       1.0  0.26341  0.49978  0.15192  1.0000
  C   C31       1.0  0.26044  0.49872  0.11218  1.0000
  C   C32       1.0  0.07314  0.51638  0.65442  1.0000
  S   S25       1.0  0.28520  0.51565  0.20825  1.0000
  H   H31       1.0  0.30645  0.56117  0.24770  1.0000
  H   H32       1.0  0.26607  0.55383  0.14888  1.0000
  C   C33       1.0  0.23151  0.57761  0.80333  1.0000
  C   C34       1.0  0.22772  0.57514  0.84607  1.0000
  C   C35       1.0  0.24444  0.57512  0.86514  1.0000
  C   C36       1.0  0.26506  0.57788  0.84144  1.0000
  C   C37       1.0  0.26902  0.58089  0.79878  1.0000
  C   C38       1.0  0.25224  0.58061  0.77981  1.0000
  H   H33       1.0  0.21176  0.57251  0.86454  1.0000
  H   H34       1.0  0.24125  0.57267  0.89814  1.0000
  H   H35       1.0  0.28496  0.58308  0.78035  1.0000
  H   H36       1.0  0.25526  0.58248  0.74678  1.0000
  C   C39       1.0  0.06269  0.50358  0.78254  1.0000
  C   C40       1.0  0.05888  0.51851  0.76063  1.0000
  C   C41       1.0  0.07288  0.53823  0.75691  1.0000
  C   C42       1.0  0.09054  0.54302  0.77539  1.0000
  C   C43       1.0  0.09411  0.52802  0.79738  1.0000
  C   C44       1.0  0.08043  0.50841  0.80055  1.0000
  H   H37       1.0  0.04508  0.51492  0.74690  1.0000
  H   H38       1.0  0.06993  0.54976  0.73998  1.0000
  H   H39       1.0  0.10716  0.53144  0.81266  1.0000
  C   C45       1.0  0.03856  0.50744  0.87095  1.0000
  C   C46       1.0  0.11687  0.65918  0.98442  1.0000
  C   C47       1.0  0.20424  0.68990  0.13861  1.0000
  C   C48       1.0  0.04598  0.52794  0.86302  1.0000
  C   C49       1.0  0.08062  0.60608  0.02000  1.0000
  H   H40       1.0  0.21467  0.70514  0.12652  1.0000
  C   C50       1.0  0.08838  0.54934  0.03798  1.0000
  C   C51       1.0  0.07865  0.53016  0.03109  1.0000
  C   C52       1.0  0.08961  0.52309  0.00054  1.0000
  C   C53       1.0  0.10990  0.53548  0.97569  1.0000
  C   C54       1.0  0.11967  0.55470  0.98247  1.0000
  C   C55       1.0  0.10912  0.56149  0.01429  1.0000
  H   H41       1.0  0.06262  0.52076  0.04943  1.0000
  H   H42       1.0  0.08205  0.50823  0.99542  1.0000
  H   H43       1.0  0.13531  0.56433  0.96315  1.0000
  H   H44       1.0  0.11668  0.57632  0.01950  1.0000
  C   C56       1.0  0.17869  0.58961  0.09442  1.0000
  C   C57       1.0  0.20049  0.59140  0.08410  1.0000
  C   C58       1.0  0.20649  0.57873  0.06026  1.0000
  C   C59       1.0  0.19069  0.56427  0.04677  1.0000
  C   C60       1.0  0.16885  0.56231  0.05760  1.0000
  C   C61       1.0  0.16287  0.57505  0.08123  1.0000
  H   H45       1.0  0.21277  0.60269  0.09417  1.0000
  H   H46       1.0  0.22340  0.58037  0.05184  1.0000
  H   H47       1.0  0.15662  0.55120  0.04703  1.0000
  H   H48       1.0  0.14602  0.57362  0.08904  1.0000
  C   C62       1.0  0.03784  0.51998  0.30125  1.0000
  C   C63       1.0  0.03107  0.53373  0.31959  1.0000
  C   C64       1.0  0.04292  0.55386  0.30574  1.0000
  C   C65       1.0  0.06130  0.56032  0.27285  1.0000
  C   C66       1.0  0.06856  0.54660  0.25552  1.0000
  C   C67       1.0  0.05689  0.52644  0.26983  1.0000
  H   H49       1.0  0.03733  0.56442  0.31950  1.0000
  H   H50       1.0  0.08302  0.55145  0.23091  1.0000
  H   H51       1.0  0.06228  0.51586  0.25573  1.0000
  H   H52       1.0  0.98546  0.54904  0.25370  1.0000
  H   H53       1.0  0.07118  0.54235  0.62421  1.0000
  H   H54       1.0  0.03885  0.53518  0.84390  1.0000
  C   C68       1.0  0.31554  0.58942  0.13996  1.0000
  C   C69       1.0  0.00125  0.49990  0.54906  1.0000
  C   C70       1.0  0.13028  0.55501  0.68218  1.0000
  H   H55       1.0  0.12951  0.63860  0.93180  1.0000
  C   C71       1.0  0.08471  0.50895  0.67690  1.0000
  S   S26       1.0  0.26047  0.71460  0.05730  1.0000
  S   S27       1.0  0.00245  0.48787  0.73208  1.0000
  H   H56       1.0  0.28848  0.65603  0.88070  1.0000
  C   C72       1.0  0.06534  0.50903  0.90831  1.0000
  C   C73       1.0  0.22678  0.52948  0.81775  1.0000
  S   S28       1.0  0.23162  0.67455  0.02737  1.0000
  C   C74       1.0  0.15495  0.66493  0.07003  1.0000
  C   C75       1.0  0.08924  0.59748  0.98962  1.0000
  H   H57       1.0  0.10614  0.66460  0.00521  1.0000
  H   H58       1.0  0.05858  0.50656  0.64711  1.0000
  H   H59       1.0  0.06718  0.59694  0.04543  1.0000
  Fe  Fe18      1.0  0.26041  0.68449  0.05467  1.0000
  H   H60       1.0  0.08236  0.58169  0.99111  1.0000
  C   C76       1.0  0.22199  0.61320  0.97115  1.0000
  S   S29       1.0  0.98895  0.50318  0.41606  1.0000
  C   C77       1.0  0.11566  0.62954  0.95655  1.0000
  H   H61       1.0  0.27755  0.61853  0.84963  1.0000
  S   S30       1.0  0.26344  0.66669  0.10833  1.0000
  H   H62       1.0  0.08297  0.63298  0.04174  1.0000
  H   H63       1.0  0.21586  0.63907  0.12721  1.0000
  N   N4        1.0  0.11023  0.54173  0.67351  1.0000
  S   S31       1.0  0.02161  0.49485  0.31490  1.0000
  H   H64       1.0  0.03579  0.56927  0.20700  1.0000
  H   H65       1.0  0.22900  0.52422  0.89535  1.0000
  H   H66       1.0  0.08341  0.49696  0.81773  1.0000
  C   C78       1.0  0.14142  0.69117  0.06650  1.0000
  H   H67       1.0  0.19827  0.62727  0.17689  1.0000
  S   S32       1.0  0.16035  0.62448  0.89411  1.0000
  N   N5        1.0  0.01266  0.54084  0.23654  1.0000
  H   H68       1.0  0.11210  0.51605  0.70412  1.0000
  C   C79       1.0  0.04313  0.54643  0.18025  1.0000
  H   H69       1.0  0.11407  0.60267  0.93434  1.0000
  C   C80       1.0  0.10338  0.52192  0.68611  1.0000
  C   C81       1.0  0.16288  0.70502  0.05567  1.0000
  C   C82       1.0  0.22947  0.65691  0.90743  1.0000
  S   S33       1.0  0.20705  0.71667  0.04049  1.0000
  H   H70       1.0  0.29297  0.65112  0.13342  1.0000
  H   H71       1.0  0.20105  0.52200  0.95749  1.0000
  C   C83       1.0  0.17645  0.67880  0.05836  1.0000
  S   S34       1.0  0.29589  0.56669  0.97358  1.0000
  S   S35       1.0  0.07771  0.59888  0.13703  1.0000
  S   S36       1.0  0.12459  0.60774  0.07199  1.0000
  C   C84       1.0  0.19166  0.65357  0.91776  1.0000
  H   H72       1.0  0.15967  0.59864  0.99369  1.0000
  C   C85       1.0  0.09902  0.54912  0.65126  1.0000
  H   H73       1.0  0.16540  0.63209  0.00415  1.0000
  Fe  Fe19      1.0  0.10921  0.62431  0.11144  1.0000
  C   C86       1.0  0.29486  0.62956  0.09555  1.0000
  C   C87       1.0  0.18726  0.63758  0.89689  1.0000
  S   S37       1.0  0.12312  0.61982  0.16441  1.0000
  C   C88       1.0  0.19809  0.52400  0.92726  1.0000
  H   H74       1.0  0.18793  0.53175  0.81977  1.0000
  S   S38       1.0  0.25686  0.71621  0.96116  1.0000
  C   C89       1.0  0.29968  0.65264  0.93508  1.0000
  N   N6        1.0  0.29634  0.57391  0.15724  1.0000
  C   C90       1.0  0.21328  0.67565  0.14241  1.0000
  C   C91       1.0  0.21378  0.52531  0.89212  1.0000
  C   C92       1.0  0.03723  0.52627  0.18196  1.0000
  H   H75       1.0  0.16624  0.52461  0.95028  1.0000
  H   H76       1.0  0.24344  0.53752  0.82173  1.0000
  C   C93       1.0  0.17850  0.52541  0.92328  1.0000
  H   H77       1.0  0.21595  0.67525  0.94009  1.0000
  C   C94       1.0  0.26406  0.63835  0.06141  1.0000
  C   C95       1.0  0.30909  0.56937  0.21760  1.0000
  H   H78       1.0  0.17622  0.57648  0.96371  1.0000
  H   H79       1.0  0.06976  0.55495  0.87129  1.0000
  H   H80       1.0  0.25230  0.48851  0.17723  1.0000
  C   C96       1.0  0.22527  0.64144  0.88513  1.0000
  Fe  Fe20      1.0  0.23409  0.70573  0.02366  1.0000
  H   H81       1.0  0.05770  0.55644  0.15847  1.0000
  N   N7        1.0  0.04825  0.49825  0.89332  1.0000
  C   C97       1.0  0.07294  0.52953  0.90146  1.0000
  S   S39       1.0  0.25517  0.66697  0.91828  1.0000
  C   C98       1.0  0.08026  0.53656  0.64153  1.0000
  C   C99       1.0  0.17473  0.52782  0.88442  1.0000
  C   C100      1.0  0.19084  0.52934  0.84991  1.0000
  H   H82       1.0  0.22521  0.53775  0.79013  1.0000
  C   C101      1.0  0.17722  0.60295  0.98699  1.0000
  C   C102      1.0  0.18650  0.59055  0.96920  1.0000
  C   C103      1.0  0.00755  0.48955  0.57768  1.0000
  H   H83       1.0  0.31280  0.61041  0.89231  1.0000
  N   N8        1.0  0.30051  0.63297  0.88236  1.0000
  H   H84       1.0  0.08653  0.53795  0.91331  1.0000
  H   H85       1.0  0.15944  0.52858  0.88108  1.0000
  H   H86       1.0  0.22519  0.51451  0.81224  1.0000
  H   H87       1.0  0.21633  0.58629  0.94691  1.0000
  C   C104      1.0  0.00649  0.52100  0.23794  1.0000
  H   H88       1.0  0.04721  0.52070  0.16123  1.0000
  C   C105      1.0  0.10695  0.60922  0.95778  1.0000
  H   H89       1.0  0.17555  0.62862  0.04890  1.0000
  H   H90       1.0  0.12790  0.69601  0.06966  1.0000
  H   H91       1.0  0.02565  0.49895  0.85749  1.0000
  C   C106      1.0  0.29519  0.62777  0.84382  1.0000
  H   H92       1.0  0.23085  0.68016  0.13394  1.0000
  N   N9        1.0  0.10693  0.63791  0.98613  1.0000
  H   H93       1.0  0.25232  0.64191  0.04795  1.0000
  C   C107      1.0  0.17797  0.65065  0.16655  1.0000
  N   N10       1.0  0.19010  0.62014  0.99634  1.0000
  S   S40       1.0  0.28542  0.69318  0.99529  1.0000
  C   C108      1.0  0.20905  0.59591  0.96050  1.0000
  C   C109      1.0  0.16838  0.66456  0.16358  1.0000
  H   H94       1.0  0.01436  0.49766  0.21369  1.0000
  C   C110      1.0  0.01878  0.51341  0.21104  1.0000
  C   C111      1.0  0.29530  0.52973  0.12605  1.0000
  C   C112      1.0  0.21213  0.62502  0.98980  1.0000
  C   C113      1.0  0.27933  0.56824  0.13448  1.0000
  H   H95       1.0  0.22235  0.63838  0.99793  1.0000
  H   H96       1.0  0.23953  0.61750  0.96508  1.0000
  H   H97       1.0  0.19149  0.64851  0.00713  1.0000
  C   C114      1.0  0.30926  0.62244  0.90391  1.0000
  C   C115      1.0  0.18010  0.63294  0.01519  1.0000
  H   H98       1.0  0.16759  0.63527  0.17680  1.0000
  C   C116      1.0  0.03059  0.55355  0.20778  1.0000
  C   C117      1.0  0.27182  0.64814  0.09225  1.0000
  H   H99       1.0  0.20100  0.61960  0.86336  1.0000
  H   H100      1.0  0.22414  0.64661  0.17278  1.0000
  H   H101      1.0  0.16587  0.72052  0.05059  1.0000
  C   C118      1.0  0.20417  0.63172  0.88006  1.0000
  H   H102      1.0  0.23818  0.63658  0.87274  1.0000
  H   H103      1.0  0.99349  0.53910  0.29597  1.0000
  C   C119      1.0  0.21273  0.66317  0.92322  1.0000
  C   C120      1.0  0.29562  0.64782  0.89758  1.0000
  H   H104      1.0  0.13240  0.54945  0.71214  1.0000
  H   H105      1.0  0.12970  0.56975  0.68465  1.0000
  H   H106      1.0  0.07351  0.50187  0.92508  1.0000
  H   H107      1.0  0.14464  0.55663  0.65764  1.0000
  H   H108      1.0  0.30717  0.62663  0.10815  1.0000
  H   H109      1.0  0.27214  0.57961  0.13241  1.0000
  H   H110      1.0  0.30470  0.61941  0.82962  1.0000
  H   H111      1.0  0.28636  0.56679  0.10292  1.0000
  H   H112      1.0  0.00951  0.56341  0.26973  1.0000
  C   C121      1.0  0.31365  0.62694  0.94143  1.0000
  C   C122      1.0  0.30886  0.64217  0.95701  1.0000
  H   H113      1.0  0.30269  0.54053  0.06132  1.0000
  C   C123      1.0  0.98736  0.48971  0.52559  1.0000
  H   H114      1.0  0.99246  0.51087  0.26081  1.0000
  H   H115      1.0  0.30876  0.54173  0.13123  1.0000
  H   H116      1.0  0.03192  0.48580  0.45078  1.0000
  H   H117      1.0  0.31204  0.64571  0.98624  1.0000
  C   C124      1.0  0.31149  0.49556  0.03652  1.0000
  H   H118      1.0  0.24703  0.48665  0.10681  1.0000
  C   C125      1.0  0.25822  0.76211  0.00556  1.0000
  C   C126      1.0  0.28483  0.79488  0.03052  1.0000
  H   H119      1.0  0.30018  0.77325  0.10543  1.0000
  C   C127      1.0  0.30675  0.76212  0.04961  1.0000
  H   H120      1.0  0.30854  0.81480  0.94361  1.0000
  C   C128      1.0  0.26515  0.78235  0.05735  1.0000
  C   C129      1.0  0.31165  0.77555  0.07647  1.0000
  H   H121      1.0  0.29151  0.74977  0.05793  1.0000
  H   H122      1.0  0.23651  0.75588  0.06508  1.0000
  H   H123      1.0  0.26054  0.78526  0.08796  1.0000
  N   N11       1.0  0.29118  0.79085  0.99244  1.0000
  H   H124      1.0  0.28332  0.77140  0.94981  1.0000
  C   C130      1.0  0.27812  0.77479  0.97972  1.0000
  H   H125      1.0  0.24795  0.74931  0.99554  1.0000
  C   C131      1.0  0.25178  0.76587  0.04467  1.0000
  H   H126      1.0  0.29539  0.80741  0.04096  1.0000
  S   S41       1.0  0.31357  0.75059  0.97449  1.0000
  C   C132      1.0  0.31169  0.80420  0.96440  1.0000
  Fe  Fe21      1.0  0.59313  0.20754  0.53609  1.0000
  C   C133      1.0  0.53504  0.04216  0.20224  1.0000
  Fe  Fe22      1.0  0.58679  0.20895  0.45040  1.0000
  S   S42       1.0  0.57177  0.18793  0.41108  1.0000
  S   S43       1.0  0.56637  0.21071  0.50950  1.0000
  Fe  Fe23      1.0  0.62948  0.07923  0.60498  1.0000
  S   S44       1.0  0.61209  0.20341  0.47783  1.0000
  H   H127      1.0  0.59589  0.00952  0.34742  1.0000
  H   H128      1.0  0.57450  0.01061  0.25443  1.0000
  C   C134      1.0  0.59217  0.18330  0.37797  1.0000
  C   C135      1.0  0.58700  0.16548  0.36341  1.0000
  H   H129      1.0  0.57208  0.05934  0.22468  1.0000
  H   H130      1.0  0.61150  0.04131  0.37020  1.0000
  C   C136      1.0  0.62996  0.19295  0.34104  1.0000
  C   C137      1.0  0.61370  0.19700  0.36701  1.0000
  C   C138      1.0  0.60689  0.17745  0.59049  1.0000
  S   S45       1.0  0.57946  0.99992  0.86418  1.0000
  H   H131      1.0  0.61771  0.21086  0.37796  1.0000
  H   H132      1.0  0.57331  0.01440  0.73364  1.0000
  C   C139      1.0  0.58816  0.13577  0.52460  1.0000
  H   H133      1.0  0.58798  0.15091  0.63415  1.0000
  H   H134      1.0  0.59122  0.07574  0.71117  1.0000
  H   H135      1.0  0.53208  0.00284  0.41093  1.0000
  H   H136      1.0  0.54691  0.03941  0.12376  1.0000
  S   S46       1.0  0.53344  0.00865  0.30492  1.0000
  C   C140      1.0  0.57469  0.05671  0.19341  1.0000
  H   H137      1.0  0.58424  0.04802  0.08161  1.0000
  C   C141      1.0  0.58041  0.03971  0.40504  1.0000
  H   H138      1.0  0.58190  0.13120  0.42815  1.0000
  S   S47       1.0  0.64450  0.07110  0.65382  1.0000
  C   C142      1.0  0.56535  0.14445  0.47065  1.0000
  H   H139      1.0  0.55131  0.16758  0.54534  1.0000
  H   H140      1.0  0.58339  0.00315  0.05604  1.0000
  H   H141      1.0  0.57408  0.03815  0.85065  1.0000
  H   H142      1.0  0.57034  0.15495  0.37141  1.0000
  H   H143      1.0  0.60979  0.06864  0.18357  1.0000
  N   N12       1.0  0.55732  0.04801  0.17716  1.0000
  S   S48       1.0  0.58537  0.18565  0.59285  1.0000
  C   C143      1.0  0.57735  0.02380  0.26771  1.0000
  H   H144      1.0  0.55310  0.05673  0.50261  1.0000
  C   C144      1.0  0.58177  0.05056  0.11305  1.0000
  C   C145      1.0  0.56064  0.04549  0.13716  1.0000
  S   S49       1.0  0.64540  0.16905  0.29791  1.0000
  S   S50       1.0  0.62656  0.09385  0.74867  1.0000
  H   H145      1.0  0.61184  0.03616  0.23912  1.0000
  C   C146      1.0  0.55233  0.00351  0.08607  1.0000
  H   H146      1.0  0.55631  0.14760  0.44951  1.0000
  S   S51       1.0  0.51247  0.00339  0.12328  1.0000
  H   H147      1.0  0.60840  0.04222  0.72472  1.0000
  C   C147      1.0  0.59607  0.06209  0.17016  1.0000
  C   C148      1.0  0.59958  0.05878  0.12985  1.0000
  Fe  Fe24      1.0  0.63246  0.09608  0.30641  1.0000
  C   C149      1.0  0.60340  0.16110  0.33891  1.0000
  C   C150      1.0  0.62485  0.17489  0.32742  1.0000
  N   N13       1.0  0.56316  0.00415  0.37857  1.0000
  Fe  Fe25      1.0  0.52724  0.98819  0.25934  1.0000
  C   C151      1.0  0.59854  0.03818  0.25937  1.0000
  C   C152      1.0  0.56008  0.02642  0.29363  1.0000
  C   C153      1.0  0.55800  0.02888  0.41633  1.0000
  H   H148      1.0  0.60234  0.12359  0.47648  1.0000
  H   H149      1.0  0.59934  0.14722  0.32813  1.0000
  C   C154      1.0  0.57984  0.13524  0.45836  1.0000
  H   H150      1.0  0.53030  0.14692  0.53410  1.0000
  S   S52       1.0  0.62899  0.07334  0.26533  1.0000
  S   S53       1.0  0.60855  0.11092  0.31848  1.0000
  C   C155      1.0  0.54680  0.15848  0.52156  1.0000
  H   H151      1.0  0.63965  0.16457  0.43285  1.0000
  C   C156      1.0  0.58659  0.01187  0.74373  1.0000
  S   S54       1.0  0.57750  0.08790  0.43404  1.0000
  H   H152      1.0  0.52206  0.02320  0.04064  1.0000
  H   H153      1.0  0.63407  0.15488  0.72329  1.0000
  S   S55       1.0  0.62984  0.08598  0.37228  1.0000
  C   C157      1.0  0.53540  0.01881  0.04413  1.0000
  N   N14       1.0  0.56260  0.14943  0.50877  1.0000
  H   H154      1.0  0.61759  0.13810  0.62507  1.0000
  Fe  Fe26      1.0  0.63788  0.13734  0.31936  1.0000
  C   C158      1.0  0.53485  0.00887  0.08169  1.0000
  C   C159      1.0  0.59132  0.13094  0.48554  1.0000
  S   S56       1.0  0.53751  0.00376  0.92718  1.0000
  C   C160      1.0  0.56970  0.06331  0.50558  1.0000
  H   H155      1.0  0.58703  0.05373  0.41486  1.0000
  H   H156      1.0  0.56429  0.04340  0.56090  1.0000
  H   H157      1.0  0.55316  0.02990  0.98122  1.0000
  C   C161      1.0  0.55296  0.02256  0.01052  1.0000
  H   H158      1.0  0.55087  0.04530  0.33203  1.0000
  C   C162      1.0  0.60359  0.15940  0.61318  1.0000
  C   C163      1.0  0.57348  0.14491  0.53588  1.0000
  H   H159      1.0  0.63600  0.13719  0.69064  1.0000
  C   C164      1.0  0.56413  0.04326  0.31169  1.0000
  C   C165      1.0  0.64392  0.18133  0.55912  1.0000
  Fe  Fe27      1.0  0.51776  0.98679  0.17593  1.0000
  C   C166      1.0  0.58497  0.07908  0.47626  1.0000
  C   C167      1.0  0.57602  0.05579  0.53847  1.0000
  H   H160      1.0  0.59677  0.13224  0.54623  1.0000
  C   C168      1.0  0.60638  0.02769  0.73866  1.0000
  C   C169      1.0  0.60051  0.99042  0.77485  1.0000
  H   H161      1.0  0.57073  0.14829  0.56653  1.0000
  H   H162      1.0  0.55191  0.99548  0.11457  1.0000
  S   S57       1.0  0.54228  0.01688  0.80834  1.0000
  C   C170      1.0  0.56391  0.03976  0.79425  1.0000
  H   H163      1.0  0.55778  0.04565  0.73518  1.0000
  C   C171      1.0  0.62330  0.02477  0.75271  1.0000
  C   C172      1.0  0.57008  0.01662  0.01458  1.0000
  H   H164      1.0  0.61606  0.06266  0.11160  1.0000
  C   C173      1.0  0.62030  0.15206  0.60777  1.0000
  H   H165      1.0  0.54630  0.16837  0.49526  1.0000
  C   C174      1.0  0.56849  0.05069  0.75532  1.0000
  C   C175      1.0  0.60255  0.05516  0.27709  1.0000
  C   C176      1.0  0.57017  0.00777  0.05278  1.0000
  S   S58       1.0  0.61972  0.10143  0.63594  1.0000
  Fe  Fe28      1.0  0.60781  0.10246  0.38414  1.0000
  C   C177      1.0  0.60162  0.07399  0.76727  1.0000
  C   C178      1.0  0.59413  0.03267  0.38029  1.0000
  C   C179      1.0  0.57773  0.04637  0.82029  1.0000
  S   S59       1.0  0.63441  0.13037  0.38660  1.0000
  C   C180      1.0  0.58531  0.05756  0.30355  1.0000
  H   H166      1.0  0.54725  0.03455  0.43485  1.0000
  H   H167      1.0  0.60738  0.06844  0.82682  1.0000
  N   N15       1.0  0.58371  0.99362  0.76242  1.0000
  S   S60       1.0  0.58917  0.01706  0.97107  1.0000
  H   H168      1.0  0.64339  0.14191  0.50116  1.0000
  C   C181      1.0  0.62046  0.00599  0.77065  1.0000
  Fe  Fe29      1.0  0.56902  0.00079  0.93080  1.0000
  C   C182      1.0  0.60646  0.08747  0.48010  1.0000
  H   H169      1.0  0.62990  0.20262  0.54747  1.0000
  C   C183      1.0  0.58746  0.06769  0.74167  1.0000
  H   H170      1.0  0.58821  0.07042  0.31782  1.0000
  H   H171      1.0  0.63344  0.00354  0.78194  1.0000
  C   C184      1.0  0.59735  0.06457  0.54289  1.0000
  H   H172      1.0  0.62897  0.08738  0.51706  1.0000
  C   C185      1.0  0.61247  0.08059  0.51396  1.0000
  C   C186      1.0  0.59650  0.06358  0.80691  1.0000
  S   S61       1.0  0.60527  0.05506  0.58369  1.0000
  H   H173      1.0  0.53400  0.03682  0.23472  1.0000
  H   H174      1.0  0.52980  0.05480  0.20076  1.0000
  C   C187      1.0  0.62715  0.18849  0.56405  1.0000
  C   C188      1.0  0.58518  0.01471  0.36735  1.0000
  H   H175      1.0  0.52339  0.02985  0.19157  1.0000
  C   C189      1.0  0.64491  0.14780  0.70854  1.0000
  Fe  Fe30      1.0  0.54639  0.99988  0.86211  1.0000
  H   H176      1.0  0.61845  0.09942  0.45727  1.0000
  Fe  Fe31      1.0  0.63760  0.09534  0.68143  1.0000
  H   H177      1.0  0.64653  0.20364  0.33211  1.0000
  S   S62       1.0  0.54895  0.99682  0.19623  1.0000
  C   C190      1.0  0.54958  0.01099  0.40276  1.0000
  C   C191      1.0  0.64035  0.16287  0.58012  1.0000
  H   H178      1.0  0.63385  0.05172  0.50863  1.0000
  H   H179      1.0  0.63848  0.03712  0.74989  1.0000
  H   H180      1.0  0.56162  0.98638  0.33220  1.0000
  C   C192      1.0  0.55433  0.98516  0.36528  1.0000
  H   H181      1.0  0.64802  0.17838  0.65623  1.0000
  H   H182      1.0  0.64847  0.04467  0.56748  1.0000
  H   H183      1.0  0.64836  0.13928  0.73335  1.0000
  H   H184      1.0  0.60791  0.33449  0.52016  1.0000
  H   H185      1.0  0.61776  0.44061  0.75054  1.0000
  Fe  Fe32      1.0  0.64408  0.40272  0.59412  1.0000
  H   H186      1.0  0.54414  0.42903  0.70337  1.0000
  H   H187      1.0  0.56663  0.28865  0.62201  1.0000
  C   C193      1.0  0.59833  0.28015  0.55551  1.0000
  C   C194      1.0  0.56890  0.40246  0.65021  1.0000
  H   H188      1.0  0.54668  0.27159  0.57856  1.0000
  S   S63       1.0  0.62392  0.41321  0.55995  1.0000
  S   S64       1.0  0.60429  0.36893  0.53835  1.0000
  C   C195      1.0  0.56454  0.33374  0.62363  1.0000
  S   S65       1.0  0.64514  0.41310  0.44822  1.0000
  S   S66       1.0  0.61652  0.37514  0.62770  1.0000
  C   C196      1.0  0.54315  0.31612  0.57983  1.0000
  H   H189      1.0  0.41530  0.48209  0.16623  1.0000
  H   H190      1.0  0.53600  0.40154  0.66364  1.0000
  Fe  Fe33      1.0  0.59706  0.38459  0.58969  1.0000
  S   S67       1.0  0.56418  0.38446  0.61870  1.0000
  Fe  Fe34      1.0  0.62881  0.23614  0.46656  1.0000
  H   H191      1.0  0.64705  0.45670  0.55455  1.0000
  C   C197      1.0  0.55231  0.40867  0.66760  1.0000
  H   H192      1.0  0.62658  0.46753  0.39888  1.0000
  H   H193      1.0  0.63620  0.30978  0.41333  1.0000
  H   H194      1.0  0.54064  0.47965  0.53039  1.0000
  H   H195      1.0  0.64770  0.33868  0.44842  1.0000
  H   H196      1.0  0.58195  0.41597  0.53706  1.0000
  C   C198      1.0  0.53971  0.28271  0.57129  1.0000
  S   S68       1.0  0.57981  0.45438  0.42598  1.0000
  C   C199      1.0  0.46959  0.47586  0.91171  1.0000
  H   H197      1.0  0.52385  0.44483  0.59259  1.0000
  Fe  Fe35      1.0  0.56812  0.47308  0.71493  1.0000
  C   C200      1.0  0.56197  0.30098  0.61510  1.0000
  H   H198      1.0  0.54665  0.34555  0.58981  1.0000
  C   C201      1.0  0.61348  0.31438  0.56256  1.0000
  C   C202      1.0  0.37645  0.47710  0.33922  1.0000
  H   H199      1.0  0.58149  0.31845  0.65194  1.0000
  C   C203      1.0  0.63467  0.44312  0.41822  1.0000
  C   C204      1.0  0.59428  0.42654  0.67923  1.0000
  C   C205      1.0  0.59776  0.44234  0.42943  1.0000
  C   C206      1.0  0.56955  0.46042  0.56855  1.0000
  Fe  Fe36      1.0  0.62636  0.36185  0.57391  1.0000
  S   S69       1.0  0.61220  0.23992  0.52745  1.0000
  S   S70       1.0  0.53246  0.46731  0.72560  1.0000
  H   H200      1.0  0.52173  0.27582  0.58302  1.0000
  C   C207      1.0  0.62023  0.45247  0.41401  1.0000
  N   N16       1.0  0.54862  0.30036  0.58907  1.0000
  H   H201      1.0  0.52350  0.42331  0.62276  1.0000
  S   S71       1.0  0.58418  0.45186  0.72501  1.0000
  C   C208      1.0  0.58979  0.41138  0.65640  1.0000
  C   C209      1.0  0.57861  0.42863  0.54539  1.0000
  C   C210      1.0  0.59406  0.44757  0.53021  1.0000
  C   C211      1.0  0.58991  0.28516  0.52342  1.0000
  C   C212      1.0  0.58977  0.42285  0.44941  1.0000
  H   H202      1.0  0.57239  0.41497  0.46127  1.0000
  S   S72       1.0  0.62852  0.33235  0.58711  1.0000
  H   H203      1.0  0.59512  0.26496  0.56627  1.0000
  H   H204      1.0  0.61060  0.43340  0.68323  1.0000
  C   C213      1.0  0.53338  0.43900  0.60984  1.0000
  H   H205      1.0  0.56612  0.47289  0.57778  1.0000
  C   C214      1.0  0.60432  0.41377  0.45524  1.0000
  C   C215      1.0  0.63509  0.44946  0.74051  1.0000
  H   H206      1.0  0.54378  0.28650  0.53733  1.0000
  S   S73       1.0  0.57454  0.26701  0.49968  1.0000
  C   C216      1.0  0.47085  0.47783  0.86980  1.0000
  H   H207      1.0  0.60935  0.44974  0.50911  1.0000
  N   N17       1.0  0.64296  0.46854  0.74639  1.0000
  C   C217      1.0  0.57031  0.31774  0.63241  1.0000
  H   H208      1.0  0.53270  0.31569  0.55897  1.0000
  C   C218      1.0  0.55859  0.42602  0.57109  1.0000
  C   C219      1.0  0.60494  0.31937  0.53064  1.0000
  H   H209      1.0  0.36137  0.46559  0.35658  1.0000
  H   H210      1.0  0.59815  0.39885  0.47150  1.0000
  C   C220      1.0  0.58949  0.46363  0.54162  1.0000
  C   C221      1.0  0.64917  0.44121  0.72071  1.0000
  C   C222      1.0  0.61022  0.29476  0.57491  1.0000
  C   C223      1.0  0.55095  0.33301  0.59708  1.0000
  H   H211      1.0  0.54659  0.41123  0.58203  1.0000
  H   H212      1.0  0.61664  0.29081  0.59986  1.0000
  H   H213      1.0  0.47346  0.46675  0.85280  1.0000
  C   C224      1.0  0.57794  0.43306  0.69589  1.0000
  C   C225      1.0  0.55692  0.42422  0.68991  1.0000
  H   H214      1.0  0.47085  0.46306  0.92768  1.0000
  H   H215      1.0  0.53599  0.44697  0.63595  1.0000
  H   H216      1.0  0.57070  0.34678  0.63712  1.0000
  H   H217      1.0  0.60265  0.40659  0.64389  1.0000
  C   C226      1.0  0.59305  0.30476  0.51124  1.0000
  S   S74       1.0  0.52649  0.48261  0.61447  1.0000
  H   H218      1.0  0.58654  0.30866  0.48639  1.0000
  C   C227      1.0  0.62677  0.42389  0.43942  1.0000
  N   N18       1.0  0.55440  0.44180  0.58282  1.0000
  H   H219      1.0  0.60114  0.47844  0.52931  1.0000
  Fe  Fe37      1.0  0.63343  0.39680  0.51241  1.0000
  H   H220      1.0  0.49962  0.47137  0.34444  1.0000
  S   S75       1.0  0.60533  0.24139  0.43289  1.0000
  H   H221      1.0  0.64042  0.27913  0.43914  1.0000
  H   H222      1.0  0.61367  0.46603  0.78836  1.0000
  C   C228      1.0  0.64293  0.30899  0.43980  1.0000
  C   C229      1.0  0.64508  0.29171  0.45450  1.0000
  H   H223      1.0  0.64287  0.42622  0.71508  1.0000
  C   C230      1.0  0.39638  0.47797  0.34715  1.0000
  H   H224      1.0  0.54580  0.48019  0.35638  1.0000
  C   C231      1.0  0.62780  0.47720  0.76541  1.0000
  H   H225      1.0  0.39668  0.46710  0.37045  1.0000
  Fe  Fe38      1.0  0.58726  0.24281  0.49488  1.0000
  H   H226      1.0  0.53766  0.48011  0.30832  1.0000
  H   H227      1.0  0.62133  0.48309  0.74161  1.0000
  Fe  Fe39      1.0  0.46769  0.51809  0.28985  1.0000
  S   S76       1.0  0.46679  0.52171  0.22392  1.0000
  Fe  Fe40      1.0  0.47755  0.55366  0.22787  1.0000
  S   S77       1.0  0.45969  0.57066  0.20318  1.0000
  S   S78       1.0  0.47600  0.54971  0.29491  1.0000
  S   S79       1.0  0.51090  0.60787  0.93025  1.0000
  H   H228      1.0  0.44789  0.60318  0.18131  1.0000
  S   S80       1.0  0.54446  0.61448  0.01646  1.0000
  H   H229      1.0  0.64808  0.49869  0.67530  1.0000
  C   C232      1.0  0.41582  0.49307  0.32539  1.0000
  H   H230      1.0  0.57725  0.52635  0.82430  1.0000
  S   S81       1.0  0.48197  0.70339  0.05615  1.0000
  C   C233      1.0  0.53247  0.51450  0.36192  1.0000
  Fe  Fe41      1.0  0.49812  0.67680  0.14122  1.0000
  S   S82       1.0  0.48915  0.66320  0.08765  1.0000
  S   S83       1.0  0.50951  0.66176  0.18737  1.0000
  Fe  Fe42      1.0  0.50963  0.69298  0.05102  1.0000
  S   S84       1.0  0.53169  0.69437  0.99121  1.0000
  Fe  Fe43      1.0  0.46228  0.67449  0.09747  1.0000
  S   S85       1.0  0.43013  0.65548  0.08715  1.0000
  S   S86       1.0  0.52101  0.70585  0.10389  1.0000
  S   S87       1.0  0.46920  0.68545  0.15515  1.0000
  S   S88       1.0  0.37932  0.58340  0.23057  1.0000
  C   C234      1.0  0.46794  0.60457  0.09065  1.0000
  C   C235      1.0  0.43298  0.54568  0.13899  1.0000
  C   C236      1.0  0.63569  0.56269  0.53619  1.0000
  H   H231      1.0  0.36489  0.52700  0.35167  1.0000
  S   S89       1.0  0.38086  0.53424  0.20623  1.0000
  C   C237      1.0  0.42515  0.56068  0.30522  1.0000
  S   S90       1.0  0.37817  0.51788  0.09909  1.0000
  H   H232      1.0  0.40516  0.51309  0.39158  1.0000
  C   C238      1.0  0.41528  0.50714  0.29549  1.0000
  C   C239      1.0  0.51956  0.52516  0.85857  1.0000
  C   C240      1.0  0.38713  0.55111  0.30517  1.0000
  C   C241      1.0  0.41625  0.63518  0.12654  1.0000
  C   C242      1.0  0.42187  0.63527  0.16416  1.0000
  C   C243      1.0  0.41052  0.61920  0.19584  1.0000
  C   C244      1.0  0.39398  0.60273  0.18957  1.0000
  C   C245      1.0  0.38883  0.60224  0.15145  1.0000
  C   C246      1.0  0.39970  0.61865  0.12014  1.0000
  H   H233      1.0  0.43460  0.64791  0.16928  1.0000
  H   H234      1.0  0.41459  0.61957  0.22526  1.0000
  H   H235      1.0  0.37615  0.58951  0.14639  1.0000
  H   H236      1.0  0.39540  0.61851  0.09092  1.0000
  C   C247      1.0  0.41179  0.57421  0.04256  1.0000
  C   C248      1.0  0.39672  0.55754  0.07018  1.0000
  H   H237      1.0  0.41254  0.58863  0.04775  1.0000
  H   H238      1.0  0.38621  0.55925  0.09674  1.0000
  C   C249      1.0  0.54547  0.63858  0.00768  1.0000
  C   C250      1.0  0.54646  0.64732  0.96850  1.0000
  C   C251      1.0  0.54365  0.66525  0.96286  1.0000
  C   C252      1.0  0.53954  0.67425  0.99653  1.0000
  C   C253      1.0  0.53968  0.66600  0.03531  1.0000
  C   C254      1.0  0.54279  0.64827  0.04085  1.0000
  H   H239      1.0  0.54890  0.64007  0.94264  1.0000
  H   H240      1.0  0.54364  0.67164  0.93279  1.0000
  H   H241      1.0  0.53687  0.67307  0.06132  1.0000
  H   H242      1.0  0.54188  0.64165  0.07126  1.0000
  H   H243      1.0  0.43001  0.51937  0.27996  1.0000
  C   C255      1.0  0.47280  0.59583  0.20210  1.0000
  C   C256      1.0  0.49274  0.60312  0.21305  1.0000
  C   C257      1.0  0.50377  0.62343  0.20949  1.0000
  C   C258      1.0  0.49499  0.63641  0.19449  1.0000
  C   C259      1.0  0.47482  0.62907  0.18444  1.0000
  C   C260      1.0  0.46357  0.60878  0.18883  1.0000
  H   H244      1.0  0.49974  0.59316  0.22404  1.0000
  H   H245      1.0  0.51928  0.62910  0.21764  1.0000
  H   H246      1.0  0.46780  0.63904  0.17350  1.0000
  H   H247      1.0  0.53048  0.60540  0.11016  1.0000
  C   C261      1.0  0.48735  0.61478  0.06117  1.0000
  C   C262      1.0  0.45008  0.62128  0.05463  1.0000
  C   C263      1.0  0.44913  0.60781  0.08748  1.0000
  N   N19       1.0  0.46928  0.63150  0.02631  1.0000
  H   H248      1.0  0.45820  0.65279  0.00209  1.0000
  C   C264      1.0  0.48763  0.62801  0.02861  1.0000
  S   S91       1.0  0.52219  0.49689  0.81382  1.0000
  H   H249      1.0  0.54956  0.52308  0.35912  1.0000
  H   H250      1.0  0.37438  0.55289  0.29206  1.0000
  C   C265      1.0  0.42922  0.52822  0.16442  1.0000
  C   C266      1.0  0.39542  0.50608  0.28718  1.0000
  Fe  Fe44      1.0  0.52237  0.59608  0.98116  1.0000
  H   H251      1.0  0.43202  0.54415  0.35259  1.0000
  H   H252      1.0  0.46753  0.59414  0.11580  1.0000
  H   H253      1.0  0.50208  0.61242  0.06334  1.0000
  Fe  Fe45      1.0  0.49129  0.71349  0.11288  1.0000
  C   C267      1.0  0.58772  0.55249  0.31083  1.0000
  S   S92       1.0  0.63412  0.54151  0.36300  1.0000
  C   C268      1.0  0.52492  0.55828  0.82967  1.0000
  H   H254      1.0  0.44214  0.56995  0.29182  1.0000
  H   H255      1.0  0.62048  0.56200  0.52910  1.0000
  H   H256      1.0  0.46595  0.63813  0.96642  1.0000
  Fe  Fe46      1.0  0.58218  0.51674  0.68700  1.0000
  H   H257      1.0  0.58294  0.58820  0.71441  1.0000
  H   H258      1.0  0.56744  0.73320  0.15761  1.0000
  H   H259      1.0  0.34714  0.60769  0.14744  1.0000
  C   C269      1.0  0.61804  0.52796  0.56677  1.0000
  H   H260      1.0  0.44318  0.49139  0.17168  1.0000
  H   H261      1.0  0.49834  0.49267  0.03877  1.0000
  H   H262      1.0  0.48646  0.65771  0.98207  1.0000
  C   C270      1.0  0.50653  0.50116  0.09472  1.0000
  C   C271      1.0  0.40935  0.53680  0.02898  1.0000
  N   N20       1.0  0.58332  0.56764  0.76291  1.0000
  C   C272      1.0  0.56298  0.58887  0.15219  1.0000
  H   H263      1.0  0.57965  0.59312  0.78326  1.0000
  H   H264      1.0  0.48408  0.72007  0.26824  1.0000
  S   S93       1.0  0.48887  0.57619  0.01688  1.0000
  Fe  Fe47      1.0  0.47778  0.58608  0.96374  1.0000
  S   S94       1.0  0.34736  0.54712  0.16105  1.0000
  H   H265      1.0  0.45068  0.52529  0.84782  1.0000
  H   H266      1.0  0.43604  0.55186  0.97649  1.0000
  C   C273      1.0  0.52013  0.54390  0.86378  1.0000
  C   C274      1.0  0.42503  0.55349  0.00238  1.0000
  C   C275      1.0  0.42644  0.57222  0.00938  1.0000
  Fe  Fe48      1.0  0.36256  0.55422  0.21396  1.0000
  H   H267      1.0  0.48984  0.54507  0.06941  1.0000
  C   C276      1.0  0.57375  0.54011  0.25373  1.0000
  C   C277      1.0  0.47001  0.64572  0.99241  1.0000
  S   S95       1.0  0.44774  0.59304  0.97915  1.0000
  C   C278      1.0  0.57151  0.53291  0.54516  1.0000
  H   H268      1.0  0.43391  0.60004  0.11025  1.0000
  H   H269      1.0  0.50260  0.63566  0.00541  1.0000
  H   H270      1.0  0.43539  0.62351  0.05170  1.0000
  H   H271      1.0  0.40847  0.52234  0.02369  1.0000
  H   H272      1.0  0.55911  0.62072  0.09755  1.0000
  H   H273      1.0  0.53787  0.58031  0.07516  1.0000
  H   H274      1.0  0.39514  0.51732  0.26505  1.0000
  C   C279      1.0  0.52758  0.53479  0.78522  1.0000
  H   H275      1.0  0.41328  0.57426  0.26101  1.0000
  C   C280      1.0  0.52846  0.55365  0.79037  1.0000
  S   S96       1.0  0.57744  0.49151  0.65310  1.0000
  H   H276      1.0  0.57039  0.50294  0.47434  1.0000
  C   C281      1.0  0.44049  0.54754  0.09690  1.0000
  C   C282      1.0  0.58306  0.54931  0.77418  1.0000
  C   C283      1.0  0.39566  0.53884  0.06358  1.0000
  Fe  Fe49      1.0  0.61137  0.52040  0.33315  1.0000
  H   H277      1.0  0.58605  0.54069  0.75108  1.0000
  H   H278      1.0  0.44348  0.56102  0.07687  1.0000
  Fe  Fe50      1.0  0.60796  0.52677  0.42061  1.0000
  H   H279      1.0  0.32047  0.61851  0.95865  1.0000
  C   C284      1.0  0.52339  0.52059  0.81929  1.0000
  N   N21       1.0  0.39791  0.53411  0.35565  1.0000
  H   H280      1.0  0.50636  0.69144  0.23120  1.0000
  H   H281      1.0  0.54434  0.69911  0.19373  1.0000
  H   H282      1.0  0.47740  0.72367  0.21945  1.0000
  H   H283      1.0  0.46491  0.51891  0.92798  1.0000
  C   C285      1.0  0.41930  0.54610  0.33952  1.0000
  C   C286      1.0  0.37594  0.49123  0.30937  1.0000
  C   C287      1.0  0.57542  0.57120  0.83357  1.0000
  N   N22       1.0  0.50783  0.72064  0.21639  1.0000
  H   H284      1.0  0.35727  0.52230  0.02441  1.0000
  H   H285      1.0  0.54320  0.61376  0.15028  1.0000
  C   C288      1.0  0.56228  0.55832  0.13125  1.0000
  Fe  Fe51      1.0  0.51459  0.58243  0.90209  1.0000
  C   C289      1.0  0.49484  0.51097  0.38248  1.0000
  C   C290      1.0  0.55089  0.72980  0.17494  1.0000
  H   H286      1.0  0.57396  0.53159  0.22932  1.0000
  Fe  Fe52      1.0  0.49437  0.55378  0.98088  1.0000
  Fe  Fe53      1.0  0.51064  0.55233  0.27509  1.0000
  H   H287      1.0  0.55153  0.52389  0.60677  1.0000
  Fe  Fe54      1.0  0.35113  0.51189  0.24990  1.0000
  S   S97       1.0  0.48030  0.56181  0.93070  1.0000
  H   H288      1.0  0.50109  0.54055  0.13352  1.0000
  Fe  Fe55      1.0  0.54248  0.48827  0.66646  1.0000
  Fe  Fe56      1.0  0.36297  0.52488  0.15776  1.0000
  C   C291      1.0  0.54913  0.49453  0.53453  1.0000
  C   C292      1.0  0.54637  0.57812  0.09819  1.0000
  S   S98       1.0  0.52743  0.58221  0.83591  1.0000
  H   H289      1.0  0.54689  0.55066  0.08167  1.0000
  C   C293      1.0  0.57718  0.52697  0.50792  1.0000
  C   C294      1.0  0.54589  0.60868  0.12042  1.0000
  C   C295      1.0  0.50723  0.51461  0.12150  1.0000
  H   H290      1.0  0.51622  0.51421  0.88508  1.0000
  C   C296      1.0  0.53796  0.71070  0.19516  1.0000
  S   S99       1.0  0.52909  0.57261  0.95012  1.0000
  C   C297      1.0  0.63451  0.53878  0.66596  1.0000
  C   C298      1.0  0.58816  0.54164  0.27902  1.0000
  C   C299      1.0  0.55156  0.56140  0.10149  1.0000
  S   S100      1.0  0.51321  0.55949  0.20802  1.0000
  H   H291      1.0  0.44238  0.50246  0.09382  1.0000
  Fe  Fe57      1.0  0.50223  0.52694  0.21111  1.0000
  C   C300      1.0  0.47001  0.49476  0.84934  1.0000
  N   N23       1.0  0.43235  0.51284  0.14816  1.0000
  C   C301      1.0  0.56598  0.50776  0.50268  1.0000
  C   C302      1.0  0.38186  0.53661  0.33923  1.0000
  C   C303      1.0  0.40893  0.56312  0.28788  1.0000
  N   N24       1.0  0.55163  0.59134  0.12405  1.0000
  C   C304      1.0  0.49909  0.50320  0.05927  1.0000
  H   H292      1.0  0.48260  0.51677  0.39429  1.0000
  H   H293      1.0  0.44948  0.53312  0.04783  1.0000
  H   H294      1.0  0.53190  0.56466  0.76393  1.0000
  N   N25       1.0  0.32473  0.50658  0.05856  1.0000
  H   H295      1.0  0.34690  0.53532  0.06025  1.0000
  C   C305      1.0  0.48858  0.49251  0.37087  1.0000
  C   C306      1.0  0.44376  0.53186  0.08061  1.0000
  C   C307      1.0  0.49433  0.53276  0.07637  1.0000
  C   C308      1.0  0.34255  0.52515  0.03818  1.0000
  S   S101      1.0  0.62103  0.50397  0.43714  1.0000
  C   C309      1.0  0.50067  0.53017  0.11278  1.0000
  C   C310      1.0  0.56838  0.57229  0.15634  1.0000
  H   H296      1.0  0.54686  0.54712  0.24221  1.0000
  S   S102      1.0  0.61153  0.54480  0.66735  1.0000
  H   H297      1.0  0.33777  0.53279  0.01406  1.0000
  H   H298      1.0  0.61318  0.52290  0.53885  1.0000
  H   H299      1.0  0.47763  0.53065  0.81574  1.0000
  C   C311      1.0  0.32868  0.58520  0.20025  1.0000
  C   C312      1.0  0.46638  0.50738  0.91137  1.0000
  H   H300      1.0  0.51715  0.54722  0.89424  1.0000
  H   H301      1.0  0.42190  0.49482  0.20758  1.0000
  S   S103      1.0  0.50218  0.52009  0.27675  1.0000
  H   H302      1.0  0.60429  0.53038  0.58647  1.0000
  H   H303      1.0  0.52983  0.53124  0.75494  1.0000
  S   S104      1.0  0.53677  0.56833  0.30517  1.0000
  H   H304      1.0  0.56560  0.54500  0.13510  1.0000
  H   H305      1.0  0.33219  0.50888  0.11666  1.0000
  Fe  Fe58      1.0  0.32039  0.52349  0.20780  1.0000
  C   C313      1.0  0.49328  0.51916  0.04982  1.0000
  H   H306      1.0  0.37703  0.50625  0.39181  1.0000
  S   S105      1.0  0.33474  0.50059  0.20068  1.0000
  H   H307      1.0  0.34133  0.58959  0.21696  1.0000
  C   C314      1.0  0.57262  0.56163  0.31762  1.0000
  S   S106      1.0  0.48447  0.52189  0.00509  1.0000
  H   H308      1.0  0.56738  0.59946  0.17240  1.0000
  H   H309      1.0  0.38935  0.52517  0.42001  1.0000
  C   C315      1.0  0.57839  0.54124  0.81553  1.0000
  H   H310      1.0  0.57025  0.54602  0.87757  1.0000
  C   C316      1.0  0.39208  0.51897  0.39167  1.0000
  S   S107      1.0  0.33399  0.53259  0.26135  1.0000
  H   H311      1.0  0.57686  0.57010  0.17940  1.0000
  N   N26       1.0  0.52625  0.49672  0.34917  1.0000
  C   C317      1.0  0.55760  0.55939  0.29336  1.0000
  H   H312      1.0  0.57205  0.56978  0.34258  1.0000
  C   C318      1.0  0.33195  0.59534  0.16120  1.0000
  H   H313      1.0  0.61591  0.50761  0.68073  1.0000
  H   H314      1.0  0.57859  0.56404  0.70328  1.0000
  C   C319      1.0  0.51637  0.70638  0.21603  1.0000
  C   C320      1.0  0.55833  0.54880  0.26119  1.0000
  C   C321      1.0  0.57451  0.55228  0.84537  1.0000
  N   N27       1.0  0.63727  0.54632  0.55531  1.0000
  H   H315      1.0  0.57172  0.57969  0.85649  1.0000
  S   S108      1.0  0.58397  0.50783  0.38937  1.0000
  H   H316      1.0  0.42385  0.52713  0.19721  1.0000
  S   S109      1.0  0.51674  0.51232  0.16539  1.0000
  H   H317      1.0  0.43015  0.55772  0.15194  1.0000
  H   H318      1.0  0.64109  0.51979  0.22924  1.0000
  H   H319      1.0  0.57993  0.54779  0.54930  1.0000
  S   S110      1.0  0.35071  0.49103  0.30301  1.0000
  H   H320      1.0  0.52207  0.53657  0.38647  1.0000
  C   C322      1.0  0.55540  0.51940  0.57767  1.0000
  C   C323      1.0  0.32174  0.50014  0.09927  1.0000
  S   S111      1.0  0.54805  0.51541  0.69455  1.0000
  S   S112      1.0  0.59932  0.54315  0.46935  1.0000
  C   C324      1.0  0.58784  0.57547  0.71932  1.0000
  H   H321      1.0  0.62100  0.51621  0.58460  1.0000
  Fe  Fe59      1.0  0.54096  0.49488  0.75304  1.0000
  S   S113      1.0  0.44058  0.49502  0.33714  1.0000
  H   H322      1.0  0.59883  0.55369  0.33051  1.0000
  H   H323      1.0  0.47506  0.54021  0.86194  1.0000
  C   C325      1.0  0.42797  0.49438  0.17477  1.0000
  C   C326      1.0  0.57984  0.57869  0.79194  1.0000
  C   C327      1.0  0.63193  0.51906  0.67322  1.0000
  H   H324      1.0  0.51152  0.48907  0.10160  1.0000
  H   H325      1.0  0.60553  0.58003  0.70503  1.0000
  H   H326      1.0  0.31825  0.59729  0.10952  1.0000
  N   N28       1.0  0.46821  0.50943  0.87002  1.0000
  C   C328      1.0  0.43959  0.51451  0.10681  1.0000
  C   C329      1.0  0.51693  0.52205  0.37811  1.0000
  S   S114      1.0  0.57575  0.49862  0.74802  1.0000
  C   C330      1.0  0.46774  0.52720  0.84783  1.0000
  S   S115      1.0  0.60540  0.52864  0.27263  1.0000
  C   C331      1.0  0.54426  0.50019  0.57241  1.0000
  Fe  Fe60      1.0  0.64504  0.51679  0.37668  1.0000
  S   S116      1.0  0.62463  0.49690  0.34138  1.0000
  H   H327      1.0  0.46637  0.48934  0.96531  1.0000
  H   H328      1.0  0.47186  0.49646  0.81646  1.0000
  C   C332      1.0  0.48502  0.71583  0.23747  1.0000
  H   H329      1.0  0.55850  0.50138  0.31603  1.0000
  C   C333      1.0  0.54282  0.48918  0.33175  1.0000
  C   C334      1.0  0.46716  0.49063  0.93276  1.0000
  H   H330      1.0  0.47516  0.69988  0.24081  1.0000
  H   H331      1.0  0.63593  0.48930  0.78111  1.0000
  Fe  Fe61      1.0  0.59937  0.48615  0.40089  1.0000
  C   C335      1.0  0.50461  0.48558  0.35410  1.0000
  H   H332      1.0  0.47144  0.48388  0.37378  1.0000
  Fe  Fe62      1.0  0.54449  0.96509  0.20223  1.0000
  S   S117      1.0  0.51526  0.95588  0.17560  1.0000
  C   C336      1.0  0.51716  0.92638  0.09275  1.0000
  Fe  Fe63      1.0  0.49642  0.95042  0.24041  1.0000
  S   S118      1.0  0.46602  0.92367  0.26679  1.0000
  S   S119      1.0  0.52551  0.95715  0.26770  1.0000
  H   H333      1.0  0.50658  0.78020  0.15115  1.0000
  S   S120      1.0  0.49473  0.95570  0.99467  1.0000
  H   H334      1.0  0.52368  0.92323  0.99954  1.0000
  Fe  Fe64      1.0  0.41205  0.82842  0.10859  1.0000
  S   S121      1.0  0.38294  0.83097  0.14869  1.0000
  S   S122      1.0  0.43109  0.81078  0.12451  1.0000
  Fe  Fe65      1.0  0.41355  0.85694  0.03769  1.0000
  S   S123      1.0  0.38423  0.86175  0.07082  1.0000
  S   S124      1.0  0.43211  0.87284  0.97429  1.0000
  Fe  Fe66      1.0  0.39983  0.86328  0.12399  1.0000
  S   S125      1.0  0.39881  0.88663  0.16201  1.0000
  Fe  Fe67      1.0  0.37021  0.82913  0.09182  1.0000
  S   S126      1.0  0.33505  0.81017  0.09711  1.0000
  S   S127      1.0  0.43028  0.86084  0.08936  1.0000
  S   S128      1.0  0.39831  0.82418  0.05356  1.0000
  C   C337      1.0  0.58468  0.93665  0.89392  1.0000
  C   C338      1.0  0.53198  0.95935  0.05470  1.0000
  H   H335      1.0  0.56126  0.97193  0.73876  1.0000
  Fe  Fe68      1.0  0.56908  0.84058  0.05476  1.0000
  S   S129      1.0  0.53392  0.83612  0.07397  1.0000
  S   S130      1.0  0.57873  0.81449  0.05897  1.0000
  Fe  Fe69      1.0  0.58267  0.88387  0.02464  1.0000
  S   S131      1.0  0.54864  0.88309  0.04099  1.0000
  C   C339      1.0  0.55289  0.95890  0.04883  1.0000
  Fe  Fe70      1.0  0.54563  0.86394  0.09875  1.0000
  S   S132      1.0  0.52644  0.86733  0.15757  1.0000
  Fe  Fe71      1.0  0.54016  0.85545  0.01458  1.0000
  S   S133      1.0  0.51475  0.84561  0.97918  1.0000
  S   S134      1.0  0.58067  0.86698  0.08482  1.0000
  S   S135      1.0  0.57447  0.85772  0.99291  1.0000
  C   C340      1.0  0.45408  0.82020  0.08365  1.0000
  C   C341      1.0  0.47239  0.83573  0.08733  1.0000
  C   C342      1.0  0.49057  0.84398  0.05435  1.0000
  C   C343      1.0  0.49062  0.83674  0.01758  1.0000
  C   C344      1.0  0.47201  0.82167  0.01318  1.0000
  C   C345      1.0  0.45363  0.81344  0.04630  1.0000
  H   H336      1.0  0.47256  0.84158  0.11546  1.0000
  H   H337      1.0  0.50458  0.85601  0.05758  1.0000
  H   H338      1.0  0.47196  0.81610  0.98465  1.0000
  H   H339      1.0  0.43912  0.80185  0.04304  1.0000
  C   C346      1.0  0.54226  0.74439  0.17662  1.0000
  C   C347      1.0  0.34580  0.79508  0.02810  1.0000
  C   C348      1.0  0.34085  0.78162  0.00117  1.0000
  C   C349      1.0  0.51906  0.77899  0.12730  1.0000
  C   C350      1.0  0.63208  0.88461  0.94783  1.0000
  H   H340      1.0  0.61499  0.95283  0.96255  1.0000
  H   H341      1.0  0.36062  0.80807  0.01910  1.0000
  H   H342      1.0  0.35205  0.78421  0.97173  1.0000
  C   C351      1.0  0.32109  0.76530  0.01150  1.0000
  H   H343      1.0  0.55201  0.75926  0.16057  1.0000
  H   H344      1.0  0.42037  0.91287  0.28030  1.0000
  C   C352      1.0  0.51403  0.94296  0.07673  1.0000
  N   N29       1.0  0.49111  0.87847  0.95607  1.0000
  C   C353      1.0  0.55498  0.79369  0.08085  1.0000
  C   C354      1.0  0.45001  0.83981  0.20288  1.0000
  H   H345      1.0  0.47919  0.89212  0.24729  1.0000
  H   H346      1.0  0.44604  0.95416  0.19305  1.0000
  S   S136      1.0  0.55434  0.96814  0.94919  1.0000
  C   C355      1.0  0.58786  0.90954  0.93449  1.0000
  C   C356      1.0  0.47656  0.93338  0.98730  1.0000
  C   C357      1.0  0.45988  0.92128  0.02054  1.0000
  C   C358      1.0  0.44530  0.90322  0.01569  1.0000
  C   C359      1.0  0.44789  0.89683  0.97804  1.0000
  C   C360      1.0  0.46440  0.90902  0.94456  1.0000
  C   C361      1.0  0.47873  0.92734  0.94920  1.0000
  H   H347      1.0  0.45835  0.92570  0.05022  1.0000
  H   H348      1.0  0.43213  0.89420  0.04125  1.0000
  H   H349      1.0  0.46638  0.90415  0.91533  1.0000
  H   H350      1.0  0.49150  0.93664  0.92341  1.0000
  C   C362      1.0  0.55966  0.92984  0.17749  1.0000
  C   C363      1.0  0.53752  0.91925  0.19576  1.0000
  C   C364      1.0  0.52763  0.89970  0.19108  1.0000
  C   C365      1.0  0.53977  0.89072  0.16805  1.0000
  C   C366      1.0  0.56206  0.90110  0.15076  1.0000
  C   C367      1.0  0.57205  0.92060  0.15586  1.0000
  H   H351      1.0  0.52795  0.92615  0.21326  1.0000
  H   H352      1.0  0.51044  0.89174  0.20401  1.0000
  H   H353      1.0  0.57157  0.89424  0.13307  1.0000
  C   C368      1.0  0.44847  0.91471  0.23484  1.0000
  C   C369      1.0  0.45587  0.91054  0.19626  1.0000
  C   C370      1.0  0.44074  0.90111  0.17387  1.0000
  C   C371      1.0  0.41837  0.89631  0.18986  1.0000
  C   C372      1.0  0.41127  0.90100  0.22778  1.0000
  C   C373      1.0  0.42618  0.90984  0.25043  1.0000
  H   H354      1.0  0.46089  0.78422  0.12570  1.0000
  H   H355      1.0  0.44631  0.89783  0.14415  1.0000
  H   H356      1.0  0.39405  0.89760  0.23996  1.0000
  C   C374      1.0  0.47810  0.86234  0.93830  1.0000
  H   H357      1.0  0.46890  0.86906  0.01486  1.0000
  H   H358      1.0  0.47105  0.86813  0.91545  1.0000
  H   H359      1.0  0.48836  0.85470  0.92373  1.0000
  H   H360      1.0  0.46422  0.85126  0.96190  1.0000
  C   C375      1.0  0.49120  0.79156  0.05933  1.0000
  N   N30       1.0  0.47442  0.77379  0.07406  1.0000
  H   H361      1.0  0.46099  0.87994  0.29616  1.0000
  H   H362      1.0  0.49777  0.94319  0.08116  1.0000
  N   N31       1.0  0.45599  0.86409  0.24669  1.0000
  C   C376      1.0  0.43531  0.86362  0.24938  1.0000
  C   C377      1.0  0.42152  0.85132  0.22862  1.0000
  C   C378      1.0  0.42889  0.83919  0.20564  1.0000
  C   C379      1.0  0.47040  0.87762  0.26753  1.0000
  H   H363      1.0  0.42944  0.87296  0.26733  1.0000
  H   H364      1.0  0.40529  0.85131  0.23004  1.0000
  H   H365      1.0  0.41828  0.82936  0.18983  1.0000
  H   H366      1.0  0.48256  0.87199  0.27584  1.0000
  H   H367      1.0  0.54176  0.80830  0.12494  1.0000
  H   H368      1.0  0.55779  0.97385  0.38343  1.0000
  C   C380      1.0  0.50995  0.89245  0.93190  1.0000
  C   C381      1.0  0.46361  0.85272  0.22305  1.0000
  S   S137      1.0  0.57139  0.95494  0.17892  1.0000
  H   H369      1.0  0.58565  0.94988  0.08164  1.0000
  S   S138      1.0  0.49613  0.98072  0.23851  1.0000
  H   H370      1.0  0.45580  0.83039  0.18503  1.0000
  H   H371      1.0  0.48025  0.85352  0.21971  1.0000
  C   C382      1.0  0.43046  0.94204  0.13138  1.0000
  H   H372      1.0  0.52972  0.97229  0.04185  1.0000
  H   H373      1.0  0.47311  0.91405  0.18432  1.0000
  C   C383      1.0  0.49102  0.75927  0.02335  1.0000
  C   C384      1.0  0.56264  0.97740  0.76801  1.0000
  C   C385      1.0  0.62219  0.85003  0.94615  1.0000
  C   C386      1.0  0.43407  0.94938  0.05877  1.0000
  S   S139      1.0  0.49067  0.74159  0.13212  1.0000
  H   H374      1.0  0.32352  0.81245  0.98145  1.0000
  H   H375      1.0  0.56677  0.97168  0.03151  1.0000
  C   C387      1.0  0.50830  0.77731  0.00842  1.0000
  H   H376      1.0  0.57071  0.90648  0.88643  1.0000
  H   H377      1.0  0.50340  0.91364  0.11055  1.0000
  H   H378      1.0  0.58398  0.89400  0.94195  1.0000
  C   C388      1.0  0.60528  0.94270  0.94608  1.0000
  H   H379      1.0  0.57790  0.92746  0.06050  1.0000
  C   C389      1.0  0.55157  0.77603  0.06593  1.0000
  H   H380      1.0  0.56398  0.77496  0.04171  1.0000
  H   H381      1.0  0.52154  0.80778  0.01458  1.0000
  H   H382      1.0  0.52902  0.74647  0.06912  1.0000
  H   H383      1.0  0.53673  0.91989  0.92779  1.0000
  N   N32       1.0  0.62926  0.86259  0.00733  1.0000
  H   H384      1.0  0.58924  0.92868  0.14214  1.0000
  C   C390      1.0  0.53177  0.75992  0.08139  1.0000
  H   H385      1.0  0.63484  0.89933  0.93344  1.0000
  C   C391      1.0  0.53888  0.79497  0.11215  1.0000
  C   C392      1.0  0.42229  0.93784  0.09686  1.0000
  H   H386      1.0  0.52169  0.77863  0.98323  1.0000
  C   C393      1.0  0.45637  0.77189  0.10833  1.0000
  C   C394      1.0  0.51477  0.91044  0.98772  1.0000
  H   H387      1.0  0.62051  0.83239  0.00169  1.0000
  H   H388      1.0  0.49093  0.74643  0.01002  1.0000
  C   C395      1.0  0.60028  0.92255  0.95612  1.0000
  C   C396      1.0  0.59706  0.94972  0.91556  1.0000
  C   C397      1.0  0.45395  0.96474  0.05558  1.0000
  H   H389      1.0  0.60040  0.96525  0.90865  1.0000
  C   C398      1.0  0.51545  0.76148  0.11185  1.0000
  C   C399      1.0  0.47399  0.75782  0.05612  1.0000
  C   C400      1.0  0.57791  0.94258  0.05810  1.0000
  H   H390      1.0  0.46078  0.74368  0.06802  1.0000
  S   S140      1.0  0.60845  0.91343  0.99713  1.0000
  H   H391      1.0  0.48960  0.89729  0.04355  1.0000
  H   H392      1.0  0.61736  0.83764  0.93030  1.0000
  H   H393      1.0  0.62450  0.87133  0.89568  1.0000
  C   C401      1.0  0.53828  0.92638  0.08587  1.0000
  H   H394      1.0  0.42110  0.93303  0.16082  1.0000
  H   H395      1.0  0.54058  0.91343  0.09815  1.0000
  N   N33       1.0  0.44998  0.95712  0.12799  1.0000
  H   H396      1.0  0.44206  0.77194  0.09674  1.0000
  H   H397      1.0  0.58807  0.95060  0.02726  1.0000
  C   C402      1.0  0.48402  0.87998  0.99591  1.0000
  H   H398      1.0  0.51558  0.89123  0.90034  1.0000
  C   C403      1.0  0.46185  0.96827  0.09062  1.0000
  H   H399      1.0  0.49142  0.80426  0.07321  1.0000
  N   N34       1.0  0.55578  0.94247  0.06391  1.0000
  S   S141      1.0  0.57320  0.94505  0.85765  1.0000
  S   S142      1.0  0.52908  0.96718  0.87548  1.0000
  C   C404      1.0  0.50833  0.79362  0.02624  1.0000
  C   C405      1.0  0.52203  0.90865  0.94730  1.0000
  C   C406      1.0  0.49572  0.89595  0.01236  1.0000
  C   C407      1.0  0.58040  0.91662  0.90293  1.0000
  H   H400      1.0  0.61779  0.84537  0.06707  1.0000
  H   H401      1.0  0.40710  0.92545  0.09968  1.0000
  H   H402      1.0  0.46660  0.97673  0.16400  1.0000
  H   H403      1.0  0.42818  0.94606  0.03154  1.0000
  H   H404      1.0  0.46356  0.97345  0.02589  1.0000
  C   C408      1.0  0.62392  0.84714  0.98663  1.0000
  H   H405      1.0  0.51394  0.75090  0.19890  1.0000
  H   H406      1.0  0.47140  0.95419  0.16401  1.0000
  C   C409      1.0  0.33099  0.79223  0.06551  1.0000
  Fe  Fe72      1.0  0.56146  0.96747  0.88229  1.0000
  C   C410      1.0  0.63368  0.88119  0.98825  1.0000
  H   H407      1.0  0.45170  0.75807  0.13019  1.0000
  H   H408      1.0  0.56056  0.96504  0.79185  1.0000
  H   H409      1.0  0.64707  0.85815  0.04993  1.0000
  C   C411      1.0  0.45890  0.96071  0.16406  1.0000
  Fe  Fe73      1.0  0.52346  0.97097  0.94129  1.0000
  H   H410      1.0  0.31968  0.79581  0.94593  1.0000
  C   C412      1.0  0.63110  0.85921  0.04963  1.0000
  C   C413      1.0  0.62622  0.86890  0.92675  1.0000
  H   H411      1.0  0.62957  0.87121  0.06608  1.0000
  C   C414      1.0  0.52066  0.73956  0.19813  1.0000
  H   H412      1.0  0.53640  0.98020  0.36862  1.0000
  H   H413      1.0  0.47762  0.97991  0.08761  1.0000
  H   H414      1.0  0.63799  0.89351  0.00449  1.0000
  H   H415      1.0  0.54902  0.98238  0.77838  1.0000
  H   H416      1.0  0.59834  0.97592  0.78930  1.0000
  H   H417      1.0  0.74198  0.17184  0.43411  1.0000
  H   H418      1.0  0.68439  0.22370  0.42248  1.0000
  H   H419      1.0  0.65619  0.13880  0.45122  1.0000
  S   S143      1.0  0.77900  0.17849  0.55140  1.0000
  S   S144      1.0  0.73693  0.19850  0.50670  1.0000
  S   S145      1.0  0.66220  0.12349  0.30096  1.0000
  H   H420      1.0  0.84948  0.21861  0.48212  1.0000
  H   H421      1.0  0.68809  0.20174  0.26190  1.0000
  C   C415      1.0  0.69058  0.20140  0.45768  1.0000
  H   H422      1.0  0.69738  0.09404  0.44716  1.0000
  C   C416      1.0  0.71883  0.21226  0.27924  1.0000
  C   C417      1.0  0.82578  0.22303  0.57256  1.0000
  S   S146      1.0  0.78830  0.21398  0.45390  1.0000
  H   H423      1.0  0.71899  0.22691  0.28083  1.0000
  Fe  Fe74      1.0  0.75660  0.21453  0.44397  1.0000
  S   S147      1.0  0.68365  0.11813  0.40082  1.0000
  C   C418      1.0  0.71777  0.08975  0.50464  1.0000
  H   H424      1.0  0.71890  0.17179  0.64948  1.0000
  H   H425      1.0  0.72353  0.08229  0.52737  1.0000
  H   H426      1.0  0.70336  0.18871  0.36231  1.0000
  Fe  Fe75      1.0  0.74554  0.22861  0.52287  1.0000
  C   C419      1.0  0.70153  0.19818  0.26862  1.0000
  C   C420      1.0  0.68141  0.06504  0.53895  1.0000
  H   H427      1.0  0.69268  0.17609  0.49020  1.0000
  N   N35       1.0  0.73501  0.18844  0.28858  1.0000
  C   C421      1.0  0.66481  0.07322  0.47370  1.0000
  Fe  Fe76      1.0  0.76916  0.20033  0.51833  1.0000
  Fe  Fe77      1.0  0.67509  0.09499  0.61645  1.0000
  S   S148      1.0  0.70766  0.09260  0.60591  1.0000
  C   C422      1.0  0.69908  0.14292  0.40005  1.0000
  S   S149      1.0  0.66977  0.11842  0.64891  1.0000
  Fe  Fe78      1.0  0.65683  0.11481  0.36850  1.0000
  C   C423      1.0  0.67903  0.20816  0.43403  1.0000
  N   N36       1.0  0.66577  0.16821  0.46223  1.0000
  H   H428      1.0  0.68155  0.15383  0.36345  1.0000
  H   H429      1.0  0.68778  0.16824  0.25959  1.0000
  C   C424      1.0  0.65871  0.14709  0.47673  1.0000
  H   H430      1.0  0.74868  0.21802  0.29839  1.0000
  H   H431      1.0  0.67118  0.14359  0.48953  1.0000
  H   H432      1.0  0.68761  0.06204  0.56505  1.0000
  C   C425      1.0  0.70132  0.17930  0.26741  1.0000
  N   N37       1.0  0.84061  0.22998  0.53547  1.0000
  C   C426      1.0  0.83552  0.22161  0.49925  1.0000
  C   C427      1.0  0.69460  0.15763  0.37911  1.0000
  H   H433      1.0  0.81018  0.21117  0.57563  1.0000
  N   N38       1.0  0.69486  0.07868  0.50544  1.0000
  S   S150      1.0  0.74175  0.20736  0.39050  1.0000
  C   C428      1.0  0.72865  0.16792  0.41907  1.0000
  H   H434      1.0  0.72849  0.09154  0.47398  1.0000
  H   H435      1.0  0.74510  0.16849  0.32066  1.0000
  H   H436      1.0  0.81852  0.22590  0.63626  1.0000
  H   H437      1.0  0.76369  0.18234  0.27225  1.0000
  H   H438      1.0  0.71928  0.13673  0.43724  1.0000
  C   C429      1.0  0.68680  0.08292  0.47325  1.0000
  C   C430      1.0  0.66363  0.17720  0.65579  1.0000
  H   H439      1.0  0.65844  0.07695  0.44834  1.0000
  C   C431      1.0  0.68365  0.18124  0.47174  1.0000
  S   S151      1.0  0.66134  0.15390  0.57145  1.0000
  C   C432      1.0  0.71590  0.14807  0.42058  1.0000
  H   H440      1.0  0.71966  0.10451  0.51228  1.0000
  C   C433      1.0  0.70349  0.17364  0.65159  1.0000
  N   N39       1.0  0.66495  0.16249  0.68143  1.0000
  C   C434      1.0  0.70224  0.18861  0.62522  1.0000
  C   C435      1.0  0.75907  0.15465  0.56547  1.0000
  C   C436      1.0  0.76484  0.13922  0.57928  1.0000
  C   C437      1.0  0.74909  0.12007  0.59117  1.0000
  C   C438      1.0  0.72747  0.11641  0.58988  1.0000
  C   C439      1.0  0.72172  0.13182  0.57575  1.0000
  C   C440      1.0  0.73752  0.15092  0.56350  1.0000
  H   H441      1.0  0.78150  0.14206  0.58084  1.0000
  H   H442      1.0  0.75358  0.10820  0.60205  1.0000
  H   H443      1.0  0.70513  0.12906  0.57402  1.0000
  H   H444      1.0  0.73291  0.16273  0.55305  1.0000
  C   C441      1.0  0.72455  0.18259  0.39700  1.0000
  C   C442      1.0  0.70715  0.17741  0.37801  1.0000
  C   C443      1.0  0.75229  0.18300  0.30004  1.0000
  H   H445      1.0  0.70492  0.21171  0.46481  1.0000
  H   H446      1.0  0.68564  0.14892  0.69987  1.0000
  C   C444      1.0  0.68460  0.16073  0.67994  1.0000
  C   C445      1.0  0.66051  0.19484  0.42538  1.0000
  C   C446      1.0  0.71831  0.17465  0.27745  1.0000
  H   H447      1.0  0.76166  0.19366  0.31738  1.0000
  H   H448      1.0  0.71769  0.15977  0.27748  1.0000
  C   C447      1.0  0.73563  0.20715  0.28893  1.0000
  S   S152      1.0  0.66084  0.10129  0.56490  1.0000
  H   H449      1.0  0.67366  0.22835  0.57332  1.0000
  H   H450      1.0  0.68108  0.20185  0.60645  1.0000
  C   C448      1.0  0.65404  0.17479  0.43984  1.0000
  C   C449      1.0  0.65104  0.05914  0.50748  1.0000
  H   H451      1.0  0.65961  0.19016  0.53890  1.0000
  C   C450      1.0  0.65931  0.05508  0.54047  1.0000
  H   H452      1.0  0.82113  0.20750  0.50753  1.0000
  Fe  Fe79      1.0  0.65266  0.12284  0.60088  1.0000
  C   C451      1.0  0.68225  0.19051  0.62748  1.0000
  H   H453      1.0  0.83193  0.23206  0.47883  1.0000
  H   H454      1.0  0.71666  0.19861  0.60271  1.0000
  S   S153      1.0  0.77552  0.22866  0.54176  1.0000
  H   H455      1.0  0.65121  0.20007  0.40770  1.0000
  C   C452      1.0  0.83042  0.23125  0.60704  1.0000
  H   H456      1.0  0.91128  0.41608  0.72060  1.0000
  C   C453      1.0  0.84155  0.45358  0.52031  1.0000
  Fe  Fe80      1.0  0.97457  0.45859  0.74432  1.0000
  H   H457      1.0  0.94353  0.41413  0.77267  1.0000
  C   C454      1.0  0.97419  0.40654  0.63671  1.0000
  S   S154      1.0  0.82417  0.43456  0.62637  1.0000
  Fe  Fe81      1.0  0.92531  0.37011  0.55554  1.0000
  S   S155      1.0  0.90314  0.34896  0.52434  1.0000
  C   C455      1.0  0.89850  0.40696  0.45114  1.0000
  Fe  Fe82      1.0  0.88875  0.37325  0.61653  1.0000
  S   S156      1.0  0.86281  0.35226  0.59241  1.0000
  S   S157      1.0  0.88456  0.39076  0.66585  1.0000
  Fe  Fe83      1.0  0.88356  0.33435  0.58789  1.0000
  S   S158      1.0  0.86536  0.30167  0.60396  1.0000
  Fe  Fe84      1.0  0.88383  0.36816  0.53061  1.0000
  S   S159      1.0  0.86523  0.37159  0.48404  1.0000
  S   S160      1.0  0.90750  0.35369  0.61894  1.0000
  S   S161      1.0  0.90808  0.39100  0.55507  1.0000
  C   C456      1.0  0.66468  0.47993  0.73225  1.0000
  C   C457      1.0  0.67138  0.45262  0.70682  1.0000
  C   C458      1.0  0.93475  0.37055  0.71418  1.0000
  C   C459      1.0  0.67993  0.24995  0.47607  1.0000
  C   C460      1.0  0.85318  0.46961  0.48861  1.0000
  C   C461      1.0  0.93822  0.44758  0.62650  1.0000
  S   S162      1.0  0.82549  0.26770  0.45936  1.0000
  H   H458      1.0  0.93255  0.35881  0.69628  1.0000
  C   C462      1.0  0.86949  0.39664  0.41584  1.0000
  H   H459      1.0  0.91684  0.42303  0.60650  1.0000
  H   H460      1.0  0.94347  0.43861  0.64585  1.0000
  C   C463      1.0  0.87882  0.39308  0.44775  1.0000
  H   H461      1.0  0.85419  0.38596  0.41329  1.0000
  H   H462      1.0  0.65492  0.27721  0.50035  1.0000
  C   C464      1.0  0.85411  0.29289  0.56359  1.0000
  C   C465      1.0  0.86679  0.29842  0.52330  1.0000
  C   C466      1.0  0.85793  0.29048  0.49154  1.0000
  C   C467      1.0  0.83630  0.27714  0.49987  1.0000
  C   C468      1.0  0.82358  0.27188  0.54009  1.0000
  C   C469      1.0  0.83250  0.27958  0.57193  1.0000
  H   H463      1.0  0.88365  0.30835  0.51673  1.0000
  H   H464      1.0  0.86789  0.29468  0.46049  1.0000
  H   H465      1.0  0.80675  0.26229  0.54679  1.0000
  H   H466      1.0  0.82259  0.27536  0.60302  1.0000
  C   C470      1.0  0.84065  0.42227  0.63833  1.0000
  C   C471      1.0  0.85766  0.43124  0.65672  1.0000
  C   C472      1.0  0.87079  0.42128  0.66630  1.0000
  C   C473      1.0  0.86733  0.40265  0.65621  1.0000
  C   C474      1.0  0.85063  0.39388  0.63707  1.0000
  C   C475      1.0  0.83710  0.40359  0.62859  1.0000
  C   C476      1.0  0.69432  0.44109  0.55315  1.0000
  H   H467      1.0  0.88380  0.42816  0.68091  1.0000
  H   H468      1.0  0.84775  0.37942  0.62969  1.0000
  H   H469      1.0  0.82392  0.39662  0.61444  1.0000
  C   C477      1.0  0.70268  0.25739  0.46345  1.0000
  H   H470      1.0  0.65208  0.23450  0.52610  1.0000
  S   S163      1.0  0.91171  0.45048  0.35701  1.0000
  H   H471      1.0  0.88043  0.26616  0.56198  1.0000
  N   N40       1.0  0.65888  0.30643  0.50910  1.0000
  H   H472      1.0  0.90642  0.41094  0.77550  1.0000
  H   H473      1.0  0.94981  0.40175  0.60146  1.0000
  C   C478      1.0  0.94037  0.47933  0.59688  1.0000
  H   H474      1.0  0.87270  0.41685  0.36260  1.0000
  H   H475      1.0  0.66212  0.33620  0.50972  1.0000
  H   H476      1.0  0.86050  0.44570  0.66412  1.0000
  H   H477      1.0  0.69109  0.42627  0.54757  1.0000
  N   N41       1.0  0.82465  0.31667  0.48872  1.0000
  C   C479      1.0  0.82665  0.32190  0.52597  1.0000
  C   C480      1.0  0.80552  0.30305  0.48472  1.0000
  C   C481      1.0  0.80941  0.31312  0.56070  1.0000
  C   C482      1.0  0.78793  0.29390  0.51884  1.0000
  C   C483      1.0  0.78996  0.29898  0.55706  1.0000
  C   C484      1.0  0.84283  0.32622  0.45260  1.0000
  H   H478      1.0  0.84180  0.33270  0.52908  1.0000
  H   H479      1.0  0.80401  0.29877  0.45524  1.0000
  H   H480      1.0  0.81135  0.31710  0.59025  1.0000
  H   H481      1.0  0.77297  0.28274  0.51576  1.0000
  H   H482      1.0  0.77655  0.29185  0.58383  1.0000
  H   H483      1.0  0.84330  0.31598  0.43057  1.0000
  H   H484      1.0  0.84130  0.33949  0.43753  1.0000
  H   H485      1.0  0.85876  0.33094  0.46125  1.0000
  H   H486      1.0  0.88991  0.39370  0.74949  1.0000
  Fe  Fe85      1.0  0.84084  0.46621  0.62871  1.0000
  C   C485      1.0  0.94076  0.40165  0.75684  1.0000
  C   C486      1.0  0.91017  0.46108  0.73063  1.0000
  C   C487      1.0  0.68357  0.44439  0.58991  1.0000
  C   C488      1.0  0.65325  0.29071  0.48924  1.0000
  H   H487      1.0  0.96723  0.41435  0.65708  1.0000
  N   N42       1.0  0.86942  0.46895  0.45818  1.0000
  C   C489      1.0  0.70962  0.45702  0.52383  1.0000
  C   C490      1.0  0.86528  0.25368  0.56537  1.0000
  C   C491      1.0  0.93127  0.46718  0.73714  1.0000
  Fe  Fe86      1.0  0.94079  0.46955  0.37660  1.0000
  H   H488      1.0  0.65987  0.28975  0.56304  1.0000
  C   C492      1.0  0.91931  0.37921  0.72125  1.0000
  S   S164      1.0  0.71978  0.23668  0.56090  1.0000
  C   C493      1.0  0.92501  0.47009  0.57537  1.0000
  C   C494      1.0  0.87994  0.41407  0.38720  1.0000
  C   C495      1.0  0.86002  0.24527  0.53145  1.0000
  H   H489      1.0  0.90492  0.37362  0.70942  1.0000
  C   C496      1.0  0.66718  0.30503  0.54576  1.0000
  H   H490      1.0  0.88792  0.45248  0.43519  1.0000
  H   H491      1.0  0.90582  0.40430  0.47555  1.0000
  S   S165      1.0  0.96179  0.38057  0.53843  1.0000
  N   N43       1.0  0.92241  0.39456  0.74238  1.0000
  H   H492      1.0  0.91030  0.43944  0.52538  1.0000
  C   C497      1.0  0.90673  0.40426  0.74731  1.0000
  C   C498      1.0  0.68797  0.46357  0.59715  1.0000
  N   N44       1.0  0.68129  0.47116  0.46024  1.0000
  H   H493      1.0  0.89083  0.44915  0.55053  1.0000
  S   S166      1.0  0.84964  0.47964  0.68305  1.0000
  C   C499      1.0  0.90874  0.42450  0.42295  1.0000
  S   S167      1.0  0.65615  0.38865  0.54384  1.0000
  H   H494      1.0  0.71081  0.26549  0.43278  1.0000
  C   C500      1.0  0.89960  0.42800  0.39071  1.0000
  C   C501      1.0  0.95333  0.37751  0.72934  1.0000
  C   C502      1.0  0.94698  0.46798  0.62260  1.0000
  C   C503      1.0  0.97303  0.38889  0.57925  1.0000
  H   H495      1.0  0.88974  0.42566  0.57152  1.0000
  C   C504      1.0  0.90104  0.44062  0.55542  1.0000
  S   S168      1.0  0.96108  0.45601  0.50453  1.0000
  H   H496      1.0  0.68236  0.44648  0.69055  1.0000
  H   H497      1.0  0.86743  0.42340  0.48977  1.0000
  C   C505      1.0  0.70304  0.47943  0.56780  1.0000
  H   H498      1.0  0.98158  0.42780  0.42708  1.0000
  H   H499      1.0  0.96763  0.42030  0.48060  1.0000
  C   C506      1.0  0.97961  0.46919  0.53117  1.0000
  S   S169      1.0  0.93880  0.45166  0.76825  1.0000
  H   H500      1.0  0.89814  0.44679  0.74560  1.0000
  H   H501      1.0  0.95921  0.47505  0.63877  1.0000
  H   H502      1.0  0.67930  0.46631  0.62484  1.0000
  Fe  Fe87      1.0  0.96328  0.47370  0.44559  1.0000
  H   H503      1.0  0.73247  0.26009  0.48041  1.0000
  C   C507      1.0  0.96416  0.39919  0.60556  1.0000
  C   C508      1.0  0.87478  0.45275  0.45886  1.0000
  C   C509      1.0  0.66957  0.23990  0.51600  1.0000
  H   H504      1.0  0.92359  0.43534  0.42655  1.0000
  H   H505      1.0  0.68583  0.44729  0.43332  1.0000
  H   H506      1.0  0.83771  0.42433  0.54524  1.0000
  C   C510      1.0  0.86336  0.43637  0.48983  1.0000
  N   N45       1.0  0.91640  0.45005  0.57957  1.0000
  C   C511      1.0  0.71496  0.25400  0.49015  1.0000
  H   H507      1.0  0.71808  0.45444  0.49564  1.0000
  C   C512      1.0  0.84666  0.43685  0.52079  1.0000
  H   H508      1.0  0.87136  0.25132  0.50170  1.0000
  C   C513      1.0  0.92308  0.43884  0.60422  1.0000
  C   C514      1.0  0.95632  0.39306  0.75104  1.0000
  S   S170      1.0  0.96699  0.45978  0.38988  1.0000
  C   C515      1.0  0.71383  0.47623  0.53104  1.0000
  C   C516      1.0  0.67921  0.47216  0.71227  1.0000
  H   H509      1.0  0.82870  0.45414  0.54452  1.0000
  C   C517      1.0  0.69305  0.46359  0.42910  1.0000
  S   S171      1.0  0.66471  0.25253  0.44097  1.0000
  C   C518      1.0  0.68185  0.23650  0.54277  1.0000
  H   H510      1.0  0.69245  0.46938  0.39807  1.0000
  H   H511      1.0  0.68519  0.30968  0.53693  1.0000
  H   H512      1.0  0.92029  0.47907  0.55488  1.0000
  H   H513      1.0  0.65196  0.45095  0.40574  1.0000
  H   H514      1.0  0.71035  0.46821  0.43098  1.0000
  C   C519      1.0  0.85034  0.24666  0.60334  1.0000
  H   H515      1.0  0.98056  0.44308  0.56314  1.0000
  H   H516      1.0  0.85394  0.25366  0.62942  1.0000
  H   H517      1.0  0.88867  0.46840  0.69815  1.0000
  S   S172      1.0  0.76334  0.24464  0.45935  1.0000
  S   S173      1.0  0.66399  0.42478  0.62633  1.0000
  Fe  Fe88      1.0  0.79284  0.24245  0.47669  1.0000
  C   C520      1.0  0.70457  0.24306  0.52942  1.0000
  C   C521      1.0  0.66714  0.45888  0.49487  1.0000
  H   H518      1.0  0.96583  0.37138  0.72306  1.0000
  H   H519      1.0  0.66279  0.31445  0.56701  1.0000
  C   C522      1.0  0.65756  0.32368  0.49407  1.0000
  C   C523      1.0  0.90479  0.47329  0.70383  1.0000
  H   H520      1.0  0.97103  0.39884  0.76195  1.0000
  H   H521      1.0  0.66402  0.44330  0.49899  1.0000
  S   S174      1.0  0.98212  0.45272  0.68081  1.0000
  C   C524      1.0  0.65737  0.46636  0.52627  1.0000
  S   S175      1.0  0.93525  0.48123  0.43473  1.0000
  H   H522      1.0  0.88487  0.48098  0.39530  1.0000
  S   S176      1.0  0.87371  0.48203  0.58607  1.0000
  H   H523      1.0  0.69631  0.48146  0.70007  1.0000
  C   C525      1.0  0.64941  0.32519  0.45941  1.0000
  H   H524      1.0  0.84907  0.48252  0.48850  1.0000
  H   H525      1.0  0.69008  0.56534  0.56028  1.0000
  C   C526      1.0  0.81512  0.52432  0.54647  1.0000
  C   C527      1.0  0.80519  0.55632  0.60510  1.0000
  H   H526      1.0  0.85205  0.55376  0.52490  1.0000
  S   S177      1.0  0.87107  0.52191  0.61895  1.0000
  S   S178      1.0  0.86438  0.52009  0.50767  1.0000
  H   H527      1.0  0.84012  0.56929  0.58304  1.0000
  C   C528      1.0  0.78773  0.54285  0.63551  1.0000
  C   C529      1.0  0.90463  0.54280  0.69552  1.0000
  C   C530      1.0  0.86699  0.53214  0.72804  1.0000
  H   H528      1.0  0.68058  0.57114  0.45539  1.0000
  S   S179      1.0  0.91484  0.50748  0.65016  1.0000
  H   H529      1.0  0.91989  0.54050  0.69045  1.0000
  H   H530      1.0  0.67420  0.57163  0.29332  1.0000
  Fe  Fe89      1.0  0.71865  0.53574  0.60029  1.0000
  H   H531      1.0  0.96294  0.49050  0.72260  1.0000
  H   H532      1.0  0.77126  0.54165  0.63617  1.0000
  N   N46       1.0  0.67988  0.54664  0.27376  1.0000
  C   C531      1.0  0.79156  0.53081  0.66522  1.0000
  S   S180      1.0  0.72120  0.58125  0.47986  1.0000
  C   C532      1.0  0.68628  0.56451  0.29189  1.0000
  H   H533      1.0  0.85018  0.55040  0.71042  1.0000
  S   S181      1.0  0.73194  0.49631  0.49385  1.0000
  C   C533      1.0  0.68022  0.54920  0.41740  1.0000
  S   S182      1.0  0.74515  0.52429  0.58338  1.0000
  C   C534      1.0  0.86567  0.54854  0.70637  1.0000
  H   H534      1.0  0.77725  0.51962  0.47286  1.0000
  H   H535      1.0  0.77798  0.52007  0.68812  1.0000
  Fe  Fe90      1.0  0.76619  0.55577  0.55760  1.0000
  C   C535      1.0  0.71317  0.54240  0.40216  1.0000
  S   S183      1.0  0.95729  0.53826  0.39506  1.0000
  Fe  Fe91      1.0  0.73247  0.56272  0.51887  1.0000
  C   C536      1.0  0.67381  0.54836  0.65360  1.0000
  H   H536      1.0  0.82572  0.52552  0.56719  1.0000
  C   C537      1.0  0.67107  0.52859  0.66105  1.0000
  H   H537      1.0  0.69002  0.55969  0.64629  1.0000
  C   C538      1.0  0.67330  0.58152  0.53436  1.0000
  H   H538      1.0  0.88067  0.49932  0.73083  1.0000
  H   H539      1.0  0.70609  0.53928  0.28653  1.0000
  H   H540      1.0  0.95347  0.51209  0.67629  1.0000
  H   H541      1.0  0.68755  0.59513  0.52564  1.0000
  Fe  Fe92      1.0  0.73640  0.52316  0.52297  1.0000
  S   S184      1.0  0.74025  0.56752  0.57962  1.0000
  C   C539      1.0  0.89098  0.52669  0.47804  1.0000
  C   C540      1.0  0.90575  0.52013  0.49252  1.0000
  C   C541      1.0  0.92632  0.52393  0.46718  1.0000
  C   C542      1.0  0.93238  0.53486  0.42782  1.0000
  C   C543      1.0  0.91795  0.54209  0.41388  1.0000
  C   C544      1.0  0.89713  0.53779  0.43882  1.0000
  H   H542      1.0  0.90138  0.51203  0.52303  1.0000
  H   H543      1.0  0.93759  0.51854  0.47813  1.0000
  H   H544      1.0  0.92266  0.55052  0.38338  1.0000
  H   H545      1.0  0.88578  0.54294  0.42755  1.0000
  C   C545      1.0  0.90377  0.55914  0.67270  1.0000
  H   H546      1.0  0.84681  0.54731  0.63386  1.0000
  C   C546      1.0  0.66191  0.48648  0.52175  1.0000
  C   C547      1.0  0.81282  0.53205  0.66408  1.0000
  C   C548      1.0  0.83034  0.54610  0.63470  1.0000
  C   C549      1.0  0.82655  0.55852  0.60583  1.0000
  S   S185      1.0  0.96420  0.49836  0.33968  1.0000
  C   C550      1.0  0.92044  0.49171  0.68423  1.0000
  C   C551      1.0  0.88415  0.56204  0.67835  1.0000
  S   S186      1.0  0.80064  0.56921  0.56389  1.0000
  Fe  Fe93      1.0  0.96122  0.50944  0.39900  1.0000
  H   H547      1.0  0.85196  0.55550  0.47195  1.0000
  H   H548      1.0  0.88312  0.57450  0.66051  1.0000
  S   S187      1.0  0.76016  0.55356  0.49484  1.0000
  C   C552      1.0  0.71067  0.56630  0.44564  1.0000
  S   S188      1.0  0.70811  0.53208  0.54187  1.0000
  H   H549      1.0  0.72236  0.53446  0.38728  1.0000
  C   C553      1.0  0.72237  0.55589  0.42642  1.0000
  C   C554      1.0  0.65016  0.51398  0.67063  1.0000
  H   H550      1.0  0.73860  0.55832  0.43010  1.0000
  C   C555      1.0  0.67480  0.56471  0.55350  1.0000
  C   C556      1.0  0.94130  0.49788  0.69147  1.0000
  S   S189      1.0  0.69346  0.52174  0.65910  1.0000
  N   N47       1.0  0.82126  0.53814  0.51201  1.0000
  C   C557      1.0  0.69195  0.53880  0.39824  1.0000
  S   S190      1.0  0.67998  0.52082  0.37047  1.0000
  Fe  Fe94      1.0  0.88149  0.49758  0.63833  1.0000
  H   H551      1.0  0.89777  0.49431  0.43148  1.0000
  C   C558      1.0  0.84214  0.55491  0.50281  1.0000
  C   C559      1.0  0.68972  0.56321  0.44050  1.0000
  H   H552      1.0  0.65754  0.56876  0.65067  1.0000
  H   H553      1.0  0.78996  0.49794  0.58361  1.0000
  C   C560      1.0  0.69208  0.53526  0.27317  1.0000
  C   C561      1.0  0.68601  0.51775  0.25746  1.0000
  H   H554      1.0  0.70239  0.57522  0.27374  1.0000
  H   H555      1.0  0.87769  0.50902  0.77790  1.0000
  H   H556      1.0  0.83918  0.56874  0.50430  1.0000
  C   C562      1.0  0.78783  0.52078  0.49368  1.0000
  H   H557      1.0  0.85226  0.52129  0.74843  1.0000
  C   C563      1.0  0.65546  0.55348  0.65636  1.0000
  C   C564      1.0  0.67596  0.49881  0.48590  1.0000
  C   C565      1.0  0.78137  0.50670  0.52886  1.0000
  H   H558      1.0  0.81246  0.54783  0.45921  1.0000
  H   H559      1.0  0.91815  0.56926  0.65028  1.0000
  S   S191      1.0  0.81743  0.51518  0.69733  1.0000
  Fe  Fe95      1.0  0.86038  0.50481  0.57060  1.0000
  Fe  Fe96      1.0  0.83846  0.50264  0.65881  1.0000
  H   H560      1.0  0.69528  0.50842  0.25856  1.0000
  N   N48       1.0  0.88641  0.52962  0.72298  1.0000
  H   H561      1.0  0.94726  0.49522  0.59341  1.0000
  H   H562      1.0  0.68743  0.56086  0.32381  1.0000
  C   C566      1.0  0.80782  0.53664  0.48596  1.0000
  H   H563      1.0  0.90434  0.51407  0.74629  1.0000
  C   C567      1.0  0.88731  0.51219  0.74572  1.0000
  H   H564      1.0  0.76567  0.49456  0.53564  1.0000
  C   C568      1.0  0.79499  0.50855  0.55568  1.0000
  C   C569      1.0  0.94674  0.48560  0.71755  1.0000
  S   S192      1.0  0.82667  0.48752  0.60858  1.0000
  H   H565      1.0  0.70598  0.49412  0.57365  1.0000
  H   H566      1.0  0.69724  0.50060  0.42839  1.0000
  H   H567      1.0  0.87299  0.49594  0.42261  1.0000
  H   H568      1.0  0.65800  0.53416  0.57851  1.0000
  H   H569      1.0  0.66372  0.54634  0.41500  1.0000
  H   H570      1.0  0.65242  0.59341  0.50977  1.0000
  C   C570      1.0  0.65661  0.54707  0.56343  1.0000
  C   C571      1.0  0.68569  0.49086  0.45547  1.0000
  H   H571      1.0  0.67987  0.51452  0.48198  1.0000
  C   C572      1.0  0.66761  0.51214  0.24145  1.0000
  C   C573      1.0  0.88180  0.48587  0.42531  1.0000
  H   H572      1.0  0.67086  0.49527  0.73550  1.0000
  C   C574      1.0  0.66195  0.54138  0.25767  1.0000
  H   H573      1.0  0.65216  0.55031  0.25813  1.0000
  H   H574      1.0  0.98189  0.49769  0.50464  1.0000
  C   C575      1.0  0.65367  0.58053  0.52536  1.0000
  H   H575      1.0  0.66248  0.49845  0.22976  1.0000
  C   C576      1.0  0.65559  0.52410  0.24120  1.0000
  H   H576      1.0  0.65499  0.49254  0.54634  1.0000
