data_image0
_chemical_formula_structural       HFeSCSFeS2FeSHFeSFeS3HFeC6H4C3HSCH3C6H2CH4NC6H3NCHNHC2HC3HCHSCH2C2HCSHC2HCH11C2SCSC2HCFeHNCHS2C2SNFeSH2Fe2SCSH2C6H5SCHC6H4CHCHC2H3SCHC2HCH2CFeH3CFeSHFeS2Fe2S3HSCS2HFeSHCNH2CHSFeHC6H2C2HC2SCH2C3HC2H3C2FeHNH2NSH2CH2CS2CHC3HCH4C3HS2FeCHC3HCHNFeC5HC5H3FeH7C2HCHS2Fe2SC2HC3H2C2HSC2SCSH2CHCH2CSH2NH2CSNSHCSFeSFeHS2HFeH2SC6H2C4H2C6H3FeC3NHC2HFeHCNC6H5FeH2CHFeC2HCHSHCNCH2C2SHCHSH2SCSC2H2FeC2H2FeSH2FeS2HCH2FeSCHS2FeSFeS2FeSFeHS2CHC6H4C6H4CHFeC6H4SNCHCHCNSC2H4C3H2CH2C2H2CHCSH4C2FeNCH3NHC3H3CSFeSFeS2FeCFeS3FeS2FeS2FeSFeS3HCHC6H4C6H3C6H4C2HC6H2CN2C2HCH2NH2NHCHSHCHCHCHC2H2C4H7CHSH3CSCH2CH5C2SHFeHFeS2FeSHSNFeSHFeS2FeSFeS2HC6H3C6H4C6H5C6H4C2HCH3CHC2H3C2HCNCH2NC6SH2C2H3C2FeC2SNC3HCH3C2H3SHC2HNHC3HSHSH2SHCH5CH2CFeS2FeCHFeSFeS2H2FeSHFeS2Fe2S3C6H4SH2C6H4C6H3CHC3NH5CHC2HCNC4HCH6NC6H3SH3C2H3CHCHSC2HSCHSHCHC3HCHS3FeSFeSC4SFeC2H3CNC4H5C2HCFeH2SC6H2CSHCH2SH2C2H2C3NCSCH3CHC2HFeSHSCNHCHC2H2SHCHFeH4NCH3CFeH2CH3CH2SCHCH2CHFeSCFeS2FeCSC5H5CHCNSH5C4HS2C3SHCHNCSC5HC2FeHNHSCHSCH3C2HCH2CSCH3CHCH2CFeH5SNCH4CH3SCS3CHFeSH3C4HCNFeH3CHC2HCSC2HCHSHCHCHCH3S2C2H2FeCHFeHCNC
_chemical_formula_sum              "H480 Fe80 S160 C480 N40"
_cell_length_a       47.0016
_cell_length_b       38.2782
_cell_length_c       37.6954
_cell_angle_alpha    90.0549
_cell_angle_beta     105.087
_cell_angle_gamma    90.0734

_space_group_name_H-M_alt    "P 1"
_space_group_IT_number       1

loop_
  _space_group_symop_operation_xyz
  'x, y, z'

loop_
  _atom_site_type_symbol
  _atom_site_label
  _atom_site_symmetry_multiplicity
  _atom_site_fract_x
  _atom_site_fract_y
  _atom_site_fract_z
  _atom_site_occupancy
  H   H1        1.0  0.04670  0.29024  0.23251  1.0000
  Fe  Fe1       1.0  0.04978  0.22641  0.46021  1.0000
  S   S1        1.0  0.07446  0.27607  0.45359  1.0000
  C   C1        1.0  0.12927  0.50883  0.13083  1.0000
  S   S2        1.0  0.06099  0.17109  0.44834  1.0000
  Fe  Fe2       1.0  0.10232  0.37829  0.28267  1.0000
  S   S3        1.0  0.14453  0.36029  0.27113  1.0000
  S   S4        1.0  0.07222  0.33640  0.29548  1.0000
  Fe  Fe3       1.0  0.11117  0.45324  0.25858  1.0000
  S   S5        1.0  0.15354  0.44003  0.24529  1.0000
  H   H2        1.0  0.12661  0.28717  0.19787  1.0000
  Fe  Fe4       1.0  0.13005  0.39167  0.21927  1.0000
  S   S6        1.0  0.13499  0.37406  0.16380  1.0000
  Fe  Fe5       1.0  0.16342  0.41051  0.29840  1.0000
  S   S7        1.0  0.20929  0.41299  0.33665  1.0000
  S   S8        1.0  0.08676  0.40686  0.22887  1.0000
  S   S9        1.0  0.12216  0.42649  0.31374  1.0000
  H   H3        1.0  0.09947  0.30529  0.24294  1.0000
  Fe  Fe6       1.0  0.05236  0.15745  0.50285  1.0000
  C   C2        1.0  0.10522  0.35262  0.13328  1.0000
  C   C3        1.0  0.07835  0.34820  0.14203  1.0000
  C   C4        1.0  0.05579  0.32849  0.11893  1.0000
  C   C5        1.0  0.05996  0.31277  0.08706  1.0000
  C   C6        1.0  0.08632  0.31844  0.07726  1.0000
  C   C7        1.0  0.10891  0.33838  0.10038  1.0000
  H   H4        1.0  0.07514  0.35912  0.16712  1.0000
  H   H5        1.0  0.03534  0.32445  0.12650  1.0000
  H   H6        1.0  0.08980  0.30629  0.05279  1.0000
  H   H7        1.0  0.12966  0.34184  0.09339  1.0000
  C   C8        1.0  0.21610  0.44379  0.37258  1.0000
  C   C9        1.0  0.24522  0.45112  0.39232  1.0000
  C   C10       1.0  0.25098  0.47408  0.42256  1.0000
  H   H8        1.0  0.11748  0.22443  0.14639  1.0000
  S   S10       1.0  0.04556  0.21337  0.51710  1.0000
  C   C11       1.0  0.19282  0.45970  0.38305  1.0000
  H   H9        1.0  0.26333  0.43871  0.38443  1.0000
  H   H10       1.0  0.03590  0.07925  0.47106  1.0000
  H   H11       1.0  0.17037  0.45417  0.36828  1.0000
  C   C12       1.0  0.07414  0.29217  0.40946  1.0000
  C   C13       1.0  0.08974  0.32293  0.40643  1.0000
  C   C14       1.0  0.08951  0.33672  0.37169  1.0000
  C   C15       1.0  0.07371  0.31977  0.33974  1.0000
  C   C16       1.0  0.05808  0.28909  0.34279  1.0000
  C   C17       1.0  0.05833  0.27527  0.37748  1.0000
  H   H12       1.0  0.10175  0.33628  0.43110  1.0000
  H   H13       1.0  0.10082  0.36085  0.36950  1.0000
  C   C18       1.0  0.22754  0.48945  0.43327  1.0000
  H   H14       1.0  0.04624  0.25159  0.37945  1.0000
  H   H15       1.0  0.04952  0.11362  0.39692  1.0000
  H   H16       1.0  0.04568  0.27591  0.31821  1.0000
  H   H17       1.0  0.07498  0.06074  0.38297  1.0000
  N   N1        1.0  0.18194  0.37252  0.41034  1.0000
  C   C19       1.0  0.21190  0.37578  0.42284  1.0000
  C   C20       1.0  0.16383  0.38935  0.42790  1.0000
  C   C21       1.0  0.22439  0.39709  0.45310  1.0000
  C   C22       1.0  0.17558  0.41096  0.45817  1.0000
  C   C23       1.0  0.20607  0.41497  0.47066  1.0000
  C   C24       1.0  0.16900  0.35025  0.37853  1.0000
  H   H18       1.0  0.22628  0.36296  0.40856  1.0000
  H   H19       1.0  0.14011  0.38650  0.41823  1.0000
  H   H20       1.0  0.24808  0.40072  0.46204  1.0000
  N   N2        1.0  0.05719  0.03527  0.45470  1.0000
  C   C25       1.0  0.04463  0.26246  0.18196  1.0000
  H   H21       1.0  0.15038  0.36383  0.35933  1.0000
  N   N3        1.0  0.08962  0.26103  0.16289  1.0000
  H   H22       1.0  0.19375  0.50128  0.29475  1.0000
  C   C26       1.0  0.03707  0.09353  0.37949  1.0000
  C   C27       1.0  0.10367  0.27967  0.19344  1.0000
  H   H23       1.0  0.15057  0.51250  0.23672  1.0000
  C   C28       1.0  0.05873  0.28171  0.21304  1.0000
  C   C29       1.0  0.03559  0.03710  0.34914  1.0000
  C   C30       1.0  0.08953  0.48712  0.15432  1.0000
  H   H24       1.0  0.16116  0.42498  0.47148  1.0000
  C   C31       1.0  0.08672  0.04855  0.47255  1.0000
  H   H25       1.0  0.12954  0.45852  0.15720  1.0000
  S   S11       1.0  0.03294  0.28334  0.06290  1.0000
  C   C32       1.0  0.11728  0.48237  0.14817  1.0000
  H   H26       1.0  0.18518  0.34406  0.36252  1.0000
  H   H27       1.0  0.21548  0.43261  0.49330  1.0000
  C   C33       1.0  0.06056  0.25203  0.15714  1.0000
  C   C34       1.0  0.03310  0.05444  0.45661  1.0000
  H   H28       1.0  0.09131  0.24578  0.10891  1.0000
  C   C35       1.0  0.19853  0.48227  0.41338  1.0000
  S   S12       1.0  0.09176  0.50746  0.24875  1.0000
  H   H29       1.0  0.04930  0.23764  0.13266  1.0000
  C   C36       1.0  0.08844  0.29025  0.21891  1.0000
  C   C37       1.0  0.05150  0.06361  0.37144  1.0000
  H   H30       1.0  0.12275  0.26940  0.13448  1.0000
  C   C38       1.0  0.10614  0.24946  0.13696  1.0000
  H   H31       1.0  0.16077  0.32548  0.38767  1.0000
  H   H32       1.0  0.27343  0.47938  0.43793  1.0000
  H   H33       1.0  0.18033  0.49408  0.42163  1.0000
  H   H34       1.0  0.08801  0.07711  0.46759  1.0000
  H   H35       1.0  0.02144  0.25601  0.17690  1.0000
  H   H36       1.0  0.08034  0.46739  0.16880  1.0000
  H   H37       1.0  0.15100  0.50522  0.12653  1.0000
  H   H38       1.0  0.24199  0.51913  0.33501  1.0000
  H   H39       1.0  0.10392  0.03577  0.46169  1.0000
  H   H40       1.0  0.09167  0.04435  0.50271  1.0000
  H   H41       1.0  0.02338  0.29805  0.48305  1.0000
  C   C39       1.0  0.19474  0.51897  0.31755  1.0000
  C   C40       1.0  0.07391  0.51778  0.14252  1.0000
  S   S13       1.0  0.23305  0.51709  0.47170  1.0000
  C   C41       1.0  0.04558  0.21072  0.82971  1.0000
  S   S14       1.0  0.03542  0.20794  0.98902  1.0000
  C   C42       1.0  0.04980  0.41339  0.96374  1.0000
  C   C43       1.0  0.02632  0.41791  0.85386  1.0000
  H   H42       1.0  0.03683  0.33651  0.89216  1.0000
  C   C44       1.0  0.07365  0.18216  0.79283  1.0000
  Fe  Fe7       1.0  0.02867  0.26347  0.00508  1.0000
  H   H43       1.0  0.02441  0.12641  0.81207  1.0000
  N   N4        1.0  0.19014  0.05336  0.92773  1.0000
  C   C45       1.0  0.03380  0.36727  0.99774  1.0000
  H   H44       1.0  0.04152  0.23319  0.84528  1.0000
  S   S15       1.0  0.14708  0.07101  0.80603  1.0000
  S   S16       1.0  0.08485  0.05905  0.85892  1.0000
  C   C46       1.0  0.04080  0.38702  0.86833  1.0000
  C   C47       1.0  0.05657  0.38507  0.98776  1.0000
  S   S17       1.0  0.08433  0.03745  0.75750  1.0000
  N   N5        1.0  0.05831  0.15188  0.79347  1.0000
  Fe  Fe8       1.0  0.12362  0.06371  0.74618  1.0000
  S   S18       1.0  0.11394  0.11266  0.71134  1.0000
  H   H45       1.0  0.14568  0.04225  0.92884  1.0000
  H   H46       1.0  0.19780  0.07318  0.87806  1.0000
  Fe  Fe9       1.0  0.10879  0.04219  0.81684  1.0000
  Fe  Fe10      1.0  0.04916  0.23208  0.94163  1.0000
  S   S19       1.0  0.08730  0.21433  0.91968  1.0000
  C   C48       1.0  0.23251  0.03112  0.97233  1.0000
  S   S20       1.0  0.04665  0.28762  0.96114  1.0000
  H   H47       1.0  0.15433  0.08793  0.92513  1.0000
  H   H48       1.0  0.06376  0.38345  0.86887  1.0000
  C   C49       1.0  0.10242  0.11140  0.66271  1.0000
  C   C50       1.0  0.10419  0.08083  0.64299  1.0000
  C   C51       1.0  0.09597  0.08129  0.60426  1.0000
  C   C52       1.0  0.08553  0.11212  0.58497  1.0000
  C   C53       1.0  0.08323  0.14245  0.60472  1.0000
  C   C54       1.0  0.09185  0.14212  0.64340  1.0000
  H   H49       1.0  0.11251  0.05713  0.65759  1.0000
  H   H50       1.0  0.09795  0.05779  0.58917  1.0000
  H   H51       1.0  0.07534  0.16635  0.59020  1.0000
  H   H52       1.0  0.09051  0.16589  0.65842  1.0000
  H   H53       1.0  0.25096  0.05986  0.89595  1.0000
  S   S21       1.0  0.04551  0.44977  0.83561  1.0000
  C   C55       1.0  0.02562  0.36046  0.88156  1.0000
  H   H54       1.0  0.08066  0.23553  0.81199  1.0000
  C   C56       1.0  0.08637  0.10218  0.87608  1.0000
  C   C57       1.0  0.06657  0.11215  0.89642  1.0000
  C   C58       1.0  0.06680  0.14637  0.91014  1.0000
  C   C59       1.0  0.08722  0.17076  0.90412  1.0000
  C   C60       1.0  0.10736  0.16065  0.88428  1.0000
  C   C61       1.0  0.10677  0.12658  0.86998  1.0000
  H   H55       1.0  0.05076  0.09340  0.90133  1.0000
  H   H56       1.0  0.05117  0.15386  0.92537  1.0000
  H   H57       1.0  0.12316  0.17945  0.87949  1.0000
  H   H58       1.0  0.12213  0.11928  0.85437  1.0000
  C   C62       1.0  0.20743  0.06181  0.90485  1.0000
  H   H59       1.0  0.08951  0.11817  0.77910  1.0000
  C   C63       1.0  0.23765  0.05463  0.91497  1.0000
  H   H60       1.0  0.05520  0.12305  0.74443  1.0000
  C   C64       1.0  0.15850  0.06103  0.91661  1.0000
  C   C65       1.0  0.02959  0.17995  0.82948  1.0000
  H   H61       1.0  0.06711  0.42711  0.95516  1.0000
  H   H62       1.0  0.09103  0.18307  0.77868  1.0000
  H   H63       1.0  0.05729  0.09666  0.78495  1.0000
  S   S22       1.0  0.07640  0.11192  0.53630  1.0000
  C   C66       1.0  0.06771  0.21195  0.81123  1.0000
  H   H64       1.0  0.03921  0.34513  0.01615  1.0000
  C   C67       1.0  0.03629  0.15057  0.81111  1.0000
  C   C68       1.0  0.06527  0.12094  0.77449  1.0000
  H   H65       1.0  0.14962  0.05875  0.88637  1.0000
  C   C69       1.0  0.20237  0.03875  0.96138  1.0000
  H   H66       1.0  0.34772  0.49334  0.63594  1.0000
  H   H67       1.0  0.18871  0.03203  0.97955  1.0000
  C   C70       1.0  0.25017  0.03895  0.94883  1.0000
  Fe  Fe11      1.0  0.02075  0.49702  0.80736  1.0000
  H   H68       1.0  0.07924  0.37668  0.99832  1.0000
  H   H69       1.0  0.27332  0.03189  0.95639  1.0000
  H   H70       1.0  0.02083  0.38274  0.78160  1.0000
  C   C71       1.0  0.02052  0.42366  0.95024  1.0000
  Fe  Fe12      1.0  0.12312  0.72009  0.08012  1.0000
  S   S23       1.0  0.07481  0.71095  0.05412  1.0000
  H   H71       1.0  0.17587  0.81547  0.02686  1.0000
  Fe  Fe13      1.0  0.12542  0.66104  0.13550  1.0000
  S   S24       1.0  0.07741  0.64907  0.11426  1.0000
  S   S25       1.0  0.15445  0.62511  0.17719  1.0000
  Fe  Fe14      1.0  0.08570  0.65373  0.05841  1.0000
  Fe  Fe15      1.0  0.07156  0.70746  0.11257  1.0000
  S   S26       1.0  0.03386  0.73396  0.12944  1.0000
  S   S27       1.0  0.13428  0.66321  0.07979  1.0000
  S   S28       1.0  0.11925  0.71933  0.13834  1.0000
  H   H72       1.0  0.24286  0.70162  0.47449  1.0000
  S   S29       1.0  0.27992  0.79365  0.09004  1.0000
  C   C72       1.0  0.33248  0.87893  0.17905  1.0000
  S   S30       1.0  0.05451  0.87538  0.22037  1.0000
  S   S31       1.0  0.30189  0.89015  0.07097  1.0000
  H   H73       1.0  0.07275  0.88687  0.14612  1.0000
  Fe  Fe16      1.0  0.02326  0.90043  0.24986  1.0000
  S   S32       1.0  0.27647  0.59906  0.50373  1.0000
  H   H74       1.0  0.25094  0.56711  0.42176  1.0000
  C   C73       1.0  0.17042  0.55356  0.35440  1.0000
  N   N6        1.0  0.05187  0.80780  0.31443  1.0000
  H   H75       1.0  0.25964  0.58569  0.38174  1.0000
  H   H76       1.0  0.07221  0.57471  0.21857  1.0000
  C   C74       1.0  0.02955  0.79954  0.06565  1.0000
  H   H77       1.0  0.03209  0.79003  0.47138  1.0000
  S   S33       1.0  0.04126  0.90163  0.31112  1.0000
  Fe  Fe17      1.0  0.32317  0.59624  0.49989  1.0000
  H   H78       1.0  0.11744  0.59228  0.10469  1.0000
  C   C75       1.0  0.03306  0.86975  0.40779  1.0000
  C   C76       1.0  0.04834  0.83392  0.19917  1.0000
  C   C77       1.0  0.07259  0.81496  0.19434  1.0000
  C   C78       1.0  0.06849  0.78377  0.17391  1.0000
  C   C79       1.0  0.04006  0.77114  0.15832  1.0000
  C   C80       1.0  0.32360  0.84768  0.16010  1.0000
  H   H79       1.0  0.09467  0.82494  0.20550  1.0000
  H   H80       1.0  0.08732  0.76991  0.16970  1.0000
  C   C81       1.0  0.18048  0.77258  0.06493  1.0000
  C   C82       1.0  0.20041  0.75218  0.09059  1.0000
  H   H81       1.0  0.19911  0.57989  0.40041  1.0000
  C   C83       1.0  0.24158  0.78574  0.07964  1.0000
  C   C84       1.0  0.22164  0.80608  0.05390  1.0000
  S   S34       1.0  0.14205  0.76571  0.05541  1.0000
  C   C85       1.0  0.16882  0.53134  0.32457  1.0000
  H   H82       1.0  0.22966  0.82693  0.03971  1.0000
  H   H83       1.0  0.24616  0.74302  0.11794  1.0000
  C   C86       1.0  0.13684  0.59288  0.19731  1.0000
  C   C87       1.0  0.10793  0.59718  0.20001  1.0000
  C   C88       1.0  0.09450  0.57104  0.21631  1.0000
  H   H84       1.0  0.07426  0.56742  0.11606  1.0000
  C   C89       1.0  0.07664  0.82446  0.31050  1.0000
  C   C90       1.0  0.15219  0.56230  0.21099  1.0000
  H   H85       1.0  0.09610  0.62097  0.19025  1.0000
  H   H86       1.0  0.33506  0.68151  0.51883  1.0000
  H   H87       1.0  0.17462  0.55893  0.20918  1.0000
  C   C91       1.0  0.07586  0.86551  0.12849  1.0000
  C   C92       1.0  0.12682  0.56624  0.10146  1.0000
  Fe  Fe18      1.0  0.34834  0.88663  0.06549  1.0000
  H   H88       1.0  0.15036  0.56320  0.36009  1.0000
  N   N7        1.0  0.05536  0.81856  0.08730  1.0000
  H   H89       1.0  0.03075  0.78279  0.35132  1.0000
  H   H90       1.0  0.11596  0.82655  0.40009  1.0000
  N   N8        1.0  0.22334  0.55060  0.36997  1.0000
  S   S35       1.0  0.32208  0.53795  0.49297  1.0000
  H   H91       1.0  0.08609  0.78736  0.06837  1.0000
  H   H92       1.0  0.26889  0.54086  0.39515  1.0000
  C   C93       1.0  0.05377  0.00381  0.43674  1.0000
  H   H93       1.0  0.07804  0.83323  0.28364  1.0000
  H   H94       1.0  0.12220  0.56054  0.07159  1.0000
  C   C94       1.0  0.02723  0.80168  0.28206  1.0000
  S   S36       1.0  0.34523  0.82873  0.05684  1.0000
  S   S37       1.0  0.07682  0.83971  0.51050  1.0000
  C   C95       1.0  0.19119  0.79958  0.04669  1.0000
  H   H95       1.0  0.02074  0.81250  0.03873  1.0000
  C   C96       1.0  0.26200  0.69977  0.49783  1.0000
  C   C97       1.0  0.28955  0.69155  0.49260  1.0000
  C   C98       1.0  0.01992  0.82076  0.18467  1.0000
  H   H96       1.0  0.30042  0.84062  0.15125  1.0000
  C   C99       1.0  0.09827  0.82070  0.37589  1.0000
  H   H97       1.0  0.12969  0.81926  0.10432  1.0000
  H   H98       1.0  0.31587  0.89598  0.18493  1.0000
  H   H99       1.0  0.12325  0.86951  0.14358  1.0000
  H   H100      1.0  0.11920  0.84579  0.33802  1.0000
  C   C100      1.0  0.05235  0.86843  0.44318  1.0000
  C   C101      1.0  0.10965  0.54015  0.22936  1.0000
  C   C102      1.0  0.05222  0.83966  0.46623  1.0000
  H   H101      1.0  0.06754  0.88976  0.45272  1.0000
  S   S38       1.0  0.05376  0.99822  0.34301  1.0000
  S   S39       1.0  0.33706  0.63424  0.46163  1.0000
  Fe  Fe19      1.0  0.27687  0.54046  0.50245  1.0000
  C   C103      1.0  0.22198  0.52910  0.34053  1.0000
  H   H102      1.0  0.29214  0.68704  0.46517  1.0000
  C   C104      1.0  0.10006  0.83153  0.34118  1.0000
  C   C105      1.0  0.02565  0.99134  0.41911  1.0000
  C   C106      1.0  0.05035  0.79609  0.34817  1.0000
  H   H103      1.0  0.15096  0.56863  0.11372  1.0000
  C   C107      1.0  0.10780  0.82732  0.10554  1.0000
  H   H104      1.0  0.07170  0.79423  0.40631  1.0000
  N   N9        1.0  0.11401  0.53908  0.11995  1.0000
  Fe  Fe20      1.0  0.29771  0.83316  0.05668  1.0000
  C   C108      1.0  0.23086  0.75885  0.09800  1.0000
  C   C109      1.0  0.13855  0.53590  0.22660  1.0000
  C   C110      1.0  0.19804  0.56301  0.37695  1.0000
  C   C111      1.0  0.05154  0.84660  0.10814  1.0000
  C   C112      1.0  0.03249  0.81219  0.45372  1.0000
  H   H105      1.0  0.19239  0.73134  0.10481  1.0000
  C   C113      1.0  0.07344  0.80250  0.37941  1.0000
  C   C114      1.0  0.08299  0.80917  0.08535  1.0000
  C   C115      1.0  0.08644  0.54352  0.12496  1.0000
  C   C116      1.0  0.25209  0.56170  0.39316  1.0000
  C   C117      1.0  0.10416  0.85557  0.12734  1.0000
  H   H106      1.0  0.07279  0.98877  0.43458  1.0000
  H   H107      1.0  0.18163  0.63581  0.51602  1.0000
  H   H108      1.0  0.02314  0.96714  0.40350  1.0000
  Fe  Fe21      1.0  0.02528  0.95694  0.30812  1.0000
  H   H109      1.0  0.02432  0.82439  0.26315  1.0000
  H   H110      1.0  0.02969  0.85384  0.11007  1.0000
  H   H111      1.0  0.03352  0.89194  0.39021  1.0000
  H   H112      1.0  0.14752  0.52360  0.30707  1.0000
  H   H113      1.0  0.03140  0.77800  0.26712  1.0000
  H   H114      1.0  0.03519  0.77201  0.06097  1.0000
  H   H115      1.0  0.33805  0.80167  0.13683  1.0000
  C   C118      1.0  0.34473  0.82575  0.15201  1.0000
  C   C119      1.0  0.01583  0.78944  0.16432  1.0000
  H   H116      1.0  0.05258  0.52201  0.14787  1.0000
  C   C120      1.0  0.31380  0.68825  0.52314  1.0000
  H   H117      1.0  0.26837  0.97282  0.86969  1.0000
  S   S40       1.0  0.07798  0.79497  0.60404  1.0000
  S   S41       1.0  0.07935  0.73535  0.54281  1.0000
  Fe  Fe22      1.0  0.08769  0.79306  0.54884  1.0000
  Fe  Fe23      1.0  0.07455  0.73630  0.60077  1.0000
  S   S42       1.0  0.03709  0.70690  0.61543  1.0000
  C   C121      1.0  0.04356  0.67548  0.65103  1.0000
  C   C122      1.0  0.07195  0.66330  0.66751  1.0000
  H   H118      1.0  0.28137  0.70538  0.59079  1.0000
  C   C123      1.0  0.05176  0.58122  0.95086  1.0000
  C   C124      1.0  0.05232  0.60955  0.97475  1.0000
  C   C125      1.0  0.07818  0.64654  0.88894  1.0000
  H   H119      1.0  0.06619  0.87550  0.69393  1.0000
  H   H120      1.0  0.14030  0.63376  0.59671  1.0000
  C   C126      1.0  0.05617  0.65532  0.85740  1.0000
  C   C127      1.0  0.07601  0.63487  0.69192  1.0000
  H   H121      1.0  0.06185  0.87430  0.57549  1.0000
  S   S43       1.0  0.05772  0.57964  0.72635  1.0000
  C   C128      1.0  0.05180  0.61851  0.70025  1.0000
  C   C129      1.0  0.06547  0.63422  0.57607  1.0000
  S   S44       1.0  0.04162  0.55017  0.81489  1.0000
  C   C130      1.0  0.28390  0.70194  0.56319  1.0000
  S   S45       1.0  0.29294  0.53454  0.56390  1.0000
  H   H122      1.0  0.21271  0.92505  0.80466  1.0000
  H   H123      1.0  0.11460  0.85954  0.58480  1.0000
  C   C131      1.0  0.11353  0.60052  0.62140  1.0000
  H   H124      1.0  0.04794  0.92746  0.60470  1.0000
  C   C132      1.0  0.02352  0.63183  0.68536  1.0000
  H   H125      1.0  0.12247  0.60039  0.84780  1.0000
  H   H126      1.0  0.18669  0.88973  0.78879  1.0000
  C   C133      1.0  0.11811  0.62645  0.59747  1.0000
  S   S46       1.0  0.21375  0.00275  0.82844  1.0000
  H   H127      1.0  0.08044  0.99628  0.62488  1.0000
  H   H128      1.0  0.23773  0.71107  0.53784  1.0000
  N   N10       1.0  0.06115  0.60873  0.59955  1.0000
  H   H129      1.0  0.34372  0.71457  0.60163  1.0000
  H   H130      1.0  0.03479  0.66055  0.98049  1.0000
  C   C134      1.0  0.19554  0.64497  0.54194  1.0000
  S   S47       1.0  0.08501  0.94043  0.72936  1.0000
  N   N11       1.0  0.31062  0.69276  0.55791  1.0000
  S   S48       1.0  0.28260  0.84055  0.99564  1.0000
  H   H131      1.0  0.03352  0.56000  0.89652  1.0000
  C   C135      1.0  0.08469  0.59165  0.62180  1.0000
  S   S49       1.0  0.25050  0.93411  0.98653  1.0000
  Fe  Fe24      1.0  0.12631  0.78559  0.62702  1.0000
  S   S50       1.0  0.15413  0.82038  0.67149  1.0000
  Fe  Fe25      1.0  0.12775  0.72896  0.57023  1.0000
  H   H132      1.0  0.07629  0.65451  0.91589  1.0000
  S   S51       1.0  0.13646  0.78653  0.57203  1.0000
  S   S52       1.0  0.12245  0.72677  0.62776  1.0000
  H   H133      1.0  0.06345  0.97057  0.65429  1.0000
  Fe  Fe26      1.0  0.33845  0.53716  0.55497  1.0000
  H   H134      1.0  0.13219  0.58756  0.63965  1.0000
  H   H135      1.0  0.19502  0.95656  0.94178  1.0000
  S   S53       1.0  0.27863  0.62706  0.60433  1.0000
  C   C136      1.0  0.18525  0.67105  0.56160  1.0000
  C   C137      1.0  0.20324  0.68243  0.59531  1.0000
  C   C138      1.0  0.23159  0.66806  0.60886  1.0000
  C   C139      1.0  0.24204  0.64237  0.58876  1.0000
  C   C140      1.0  0.22374  0.63062  0.55549  1.0000
  C   C141      1.0  0.10208  0.62648  0.88559  1.0000
  H   H136      1.0  0.19542  0.70245  0.61073  1.0000
  H   H137      1.0  0.24557  0.67719  0.63474  1.0000
  C   C142      1.0  0.26075  0.95300  0.92007  1.0000
  C   C143      1.0  0.22311  0.98022  0.87070  1.0000
  C   C144      1.0  0.03369  0.58192  0.91470  1.0000
  C   C145      1.0  0.03463  0.63868  0.96223  1.0000
  H   H138      1.0  0.21959  0.85554  0.94420  1.0000
  H   H139      1.0  0.06538  0.55861  0.96038  1.0000
  C   C146      1.0  0.10509  0.90652  0.71574  1.0000
  C   C147      1.0  0.08979  0.87735  0.69793  1.0000
  C   C148      1.0  0.10482  0.85047  0.68519  1.0000
  C   C149      1.0  0.13524  0.85262  0.68987  1.0000
  C   C150      1.0  0.15074  0.88149  0.70848  1.0000
  C   C151      1.0  0.13567  0.90852  0.72128  1.0000
  H   H140      1.0  0.09281  0.82787  0.67219  1.0000
  H   H141      1.0  0.17431  0.88327  0.71220  1.0000
  H   H142      1.0  0.14759  0.93104  0.73486  1.0000
  Fe  Fe27      1.0  0.28898  0.89770  0.00932  1.0000
  C   C152      1.0  0.24021  0.94896  0.94075  1.0000
  C   C153      1.0  0.21098  0.95958  0.92583  1.0000
  C   C154      1.0  0.20241  0.97498  0.89089  1.0000
  N   N12       1.0  0.05776  0.64404  0.82352  1.0000
  H   H143      1.0  0.03025  0.58730  0.62639  1.0000
  C   C155      1.0  0.08393  0.97473  0.64525  1.0000
  C   C156      1.0  0.03420  0.65305  0.79091  1.0000
  H   H144      1.0  0.08322  0.61702  0.79289  1.0000
  Fe  Fe28      1.0  0.29491  0.59322  0.56436  1.0000
  H   H145      1.0  0.11893  0.61892  0.90998  1.0000
  C   C157      1.0  0.08167  0.62543  0.81982  1.0000
  N   N13       1.0  0.20071  0.89558  0.84670  1.0000
  C   C158      1.0  0.22883  0.88459  0.86268  1.0000
  C   C159      1.0  0.17896  0.89121  0.86441  1.0000
  C   C160      1.0  0.23599  0.86983  0.89785  1.0000
  C   C161      1.0  0.18538  0.87664  0.89966  1.0000
  C   C162      1.0  0.21414  0.86614  0.91653  1.0000
  C   C163      1.0  0.19353  0.91070  0.80971  1.0000
  H   H146      1.0  0.24603  0.88778  0.84855  1.0000
  H   H147      1.0  0.15657  0.89943  0.85148  1.0000
  H   H148      1.0  0.25847  0.86192  0.91086  1.0000
  H   H149      1.0  0.16828  0.87386  0.91402  1.0000
  H   H150      1.0  0.09069  0.67487  0.66042  1.0000
  Fe  Fe29      1.0  0.10928  0.98764  0.75746  1.0000
  H   H151      1.0  0.28338  0.94509  0.93147  1.0000
  H   H152      1.0  0.09799  0.62488  0.70354  1.0000
  C   C164      1.0  0.12158  0.93495  0.63399  1.0000
  H   H153      1.0  0.04688  0.64822  0.55884  1.0000
  Fe  Fe30      1.0  0.33080  0.84094  0.99697  1.0000
  C   C165      1.0  0.25221  0.96878  0.88517  1.0000
  C   C166      1.0  0.09394  0.64321  0.57450  1.0000
  H   H154      1.0  0.15307  0.89797  0.62301  1.0000
  C   C167      1.0  0.07106  0.92139  0.60847  1.0000
  H   H155      1.0  0.09727  0.66321  0.55569  1.0000
  S   S54       1.0  0.14697  0.01325  0.74127  1.0000
  H   H156      1.0  0.18005  0.98392  0.88028  1.0000
  C   C168      1.0  0.01571  0.61082  0.90231  1.0000
  N   N14       1.0  0.09241  0.94264  0.62934  1.0000
  C   C169      1.0  0.07872  0.89131  0.59198  1.0000
  H   H157      1.0  0.02245  0.57912  0.57751  1.0000
  H   H158      1.0  0.13852  0.95158  0.65078  1.0000
  C   C170      1.0  0.10401  0.61604  0.85080  1.0000
  C   C171      1.0  0.12999  0.90490  0.61815  1.0000
  S   S55       1.0  0.12965  0.98915  0.81817  1.0000
  H   H159      1.0  0.10109  0.98275  0.67026  1.0000
  C   C172      1.0  0.10838  0.88305  0.59701  1.0000
  H   H160      1.0  0.17543  0.93013  0.80612  1.0000
  S   S56       1.0  0.14994  0.68861  0.54247  1.0000
  H   H161      1.0  0.03725  0.67015  0.86034  1.0000
  H   H162      1.0  0.23119  0.61032  0.54019  1.0000
  S   S57       1.0  0.34197  0.59561  0.56092  1.0000
  C   C173      1.0  0.33600  0.68861  0.58983  1.0000
  S   S58       1.0  0.33592  0.89909  0.00505  1.0000
  C   C174      1.0  0.03104  0.59860  0.59949  1.0000
  C   C175      1.0  0.01622  0.63918  0.92617  1.0000
  H   H163      1.0  0.01627  0.62180  0.59486  1.0000
  H   H164      1.0  0.08127  0.57172  0.64077  1.0000
  Fe  Fe31      1.0  0.16624  0.01765  0.80259  1.0000
  C   C176      1.0  0.01944  0.66016  0.66072  1.0000
  C   C177      1.0  0.25913  0.70523  0.53332  1.0000
  H   H165      1.0  0.03838  0.67919  0.78057  1.0000
  H   H166      1.0  0.03268  0.63357  0.76861  1.0000
  Fe  Fe32      1.0  0.02442  0.55617  0.75378  1.0000
  S   S59       1.0  0.07507  0.60704  0.02006  1.0000
  H   H167      1.0  0.32978  0.67237  0.61113  1.0000
  H   H168      1.0  0.24191  0.01787  0.99821  1.0000
  Fe  Fe33      1.0  0.53325  0.05469  0.27446  1.0000
  S   S60       1.0  0.49067  0.07860  0.27834  1.0000
  S   S61       1.0  0.56895  0.08333  0.25578  1.0000
  H   H169      1.0  0.59704  0.35899  0.26913  1.0000
  C   C178      1.0  0.68013  0.23377  0.50633  1.0000
  H   H170      1.0  0.43892  0.07465  0.14916  1.0000
  H   H171      1.0  0.58872  0.40328  0.11024  1.0000
  Fe  Fe34      1.0  0.50081  0.05437  0.33453  1.0000
  S   S62       1.0  0.49449  0.08230  0.38498  1.0000
  C   C179      1.0  0.46102  0.07661  0.14538  1.0000
  H   H172      1.0  0.49908  0.21158  0.37386  1.0000
  S   S63       1.0  0.56733  0.45950  0.21289  1.0000
  S   S64       1.0  0.59700  0.17321  0.48433  1.0000
  Fe  Fe35      1.0  0.57149  0.28602  0.05351  1.0000
  S   S65       1.0  0.62021  0.29281  0.07351  1.0000
  Fe  Fe36      1.0  0.57172  0.22981  0.11149  1.0000
  S   S66       1.0  0.62093  0.23309  0.13603  1.0000
  S   S67       1.0  0.53805  0.19725  0.13062  1.0000
  Fe  Fe37      1.0  0.61394  0.29138  0.13019  1.0000
  S   S68       1.0  0.63842  0.33375  0.16822  1.0000
  Fe  Fe38      1.0  0.62293  0.23441  0.07695  1.0000
  H   H173      1.0  0.52153  0.19239  0.41576  1.0000
  S   S69       1.0  0.56491  0.28799  0.11032  1.0000
  S   S70       1.0  0.57408  0.22744  0.05243  1.0000
  C   C180      1.0  0.49671  0.10448  0.11874  1.0000
  H   H174      1.0  0.65785  0.44396  0.30229  1.0000
  C   C181      1.0  0.58692  0.42574  0.19800  1.0000
  C   C182      1.0  0.61690  0.42915  0.19984  1.0000
  C   C183      1.0  0.63225  0.40119  0.18926  1.0000
  C   C184      1.0  0.61782  0.36957  0.17717  1.0000
  C   C185      1.0  0.58771  0.36645  0.17464  1.0000
  C   C186      1.0  0.57228  0.39455  0.18476  1.0000
  H   H175      1.0  0.62836  0.45315  0.20974  1.0000
  H   H176      1.0  0.65552  0.40383  0.19114  1.0000
  H   H177      1.0  0.57643  0.34210  0.16586  1.0000
  H   H178      1.0  0.54907  0.39175  0.18324  1.0000
  C   C187      1.0  0.52488  0.10216  0.41624  1.0000
  C   C188      1.0  0.55242  0.10424  0.40870  1.0000
  C   C189      1.0  0.57506  0.12432  0.43137  1.0000
  C   C190      1.0  0.57040  0.14243  0.46174  1.0000
  C   C191      1.0  0.54345  0.13875  0.47059  1.0000
  C   C192      1.0  0.52072  0.11875  0.44779  1.0000
  H   H179      1.0  0.55597  0.09165  0.38458  1.0000
  H   H180      1.0  0.59593  0.12683  0.42452  1.0000
  H   H181      1.0  0.53960  0.15269  0.49390  1.0000
  H   H182      1.0  0.49948  0.11718  0.45388  1.0000
  C   C193      1.0  0.56075  0.18877  0.37775  1.0000
  H   H183      1.0  0.45142  0.12108  0.10912  1.0000
  Fe  Fe39      1.0  0.47075  0.02657  0.25748  1.0000
  C   C194      1.0  0.54787  0.17013  0.16961  1.0000
  C   C195      1.0  0.52544  0.15620  0.18374  1.0000
  C   C196      1.0  0.53171  0.13022  0.21096  1.0000
  C   C197      1.0  0.56060  0.11837  0.22455  1.0000
  C   C198      1.0  0.58329  0.13363  0.21188  1.0000
  C   C199      1.0  0.57696  0.15940  0.18438  1.0000
  H   H184      1.0  0.50293  0.16470  0.17262  1.0000
  H   H185      1.0  0.51405  0.11872  0.22055  1.0000
  H   H186      1.0  0.60573  0.12466  0.22246  1.0000
  H   H187      1.0  0.59440  0.16997  0.17365  1.0000
  S   S71       1.0  0.42747  0.02684  0.21337  1.0000
  N   N15       1.0  0.51798  0.08179  0.13706  1.0000
  C   C200      1.0  0.65321  0.41772  0.29142  1.0000
  H   H188      1.0  0.53688  0.13056  0.29166  1.0000
  C   C201      1.0  0.56326  0.42148  0.05752  1.0000
  H   H189      1.0  0.47729  0.03297  0.18055  1.0000
  C   C202      1.0  0.52353  0.15668  0.33556  1.0000
  N   N16       1.0  0.53227  0.17710  0.36629  1.0000
  S   S72       1.0  0.65693  0.21370  0.04933  1.0000
  C   C203      1.0  0.62519  0.40341  0.28785  1.0000
  C   C204      1.0  0.64096  0.35082  0.26329  1.0000
  H   H190      1.0  0.66827  0.48472  0.37746  1.0000
  H   H191      1.0  0.65731  0.31720  0.51089  1.0000
  H   H192      1.0  0.64047  0.25645  0.51472  1.0000
  H   H193      1.0  0.54763  0.43565  0.06874  1.0000
  C   C205      1.0  0.66174  0.26151  0.50945  1.0000
  C   C206      1.0  0.57286  0.15796  0.32768  1.0000
  C   C207      1.0  0.46801  0.10248  0.12293  1.0000
  H   H194      1.0  0.52818  0.03840  0.17373  1.0000
  H   H195      1.0  0.53229  0.51826  0.15817  1.0000
  C   C208      1.0  0.54367  0.14693  0.31582  1.0000
  H   H196      1.0  0.60806  0.41866  0.29505  1.0000
  H   H197      1.0  0.64211  0.35417  0.03374  1.0000
  C   C209      1.0  0.48269  0.05321  0.16329  1.0000
  C   C210      1.0  0.61903  0.36983  0.27345  1.0000
  H   H198      1.0  0.56454  0.07798  0.15831  1.0000
  H   H199      1.0  0.56783  0.20448  0.40250  1.0000
  C   C211      1.0  0.54786  0.08384  0.13210  1.0000
  H   H200      1.0  0.63612  0.32516  0.25083  1.0000
  C   C212      1.0  0.58627  0.40318  0.08087  1.0000
  S   S73       1.0  0.61211  0.49741  0.30933  1.0000
  H   H201      1.0  0.60430  0.18740  0.36870  1.0000
  H   H202      1.0  0.50212  0.12510  0.10177  1.0000
  H   H203      1.0  0.50101  0.14719  0.32663  1.0000
  H   H204      1.0  0.66233  0.15724  0.10357  1.0000
  C   C213      1.0  0.51128  0.05626  0.15899  1.0000
  C   C214      1.0  0.51069  0.18755  0.38622  1.0000
  Fe  Fe40      1.0  0.59362  0.50199  0.24828  1.0000
  N   N17       1.0  0.67430  0.39930  0.28032  1.0000
  C   C215      1.0  0.58154  0.17908  0.35885  1.0000
  H   H205      1.0  0.49422  0.16640  0.38534  1.0000
  H   H206      1.0  0.58866  0.14979  0.31277  1.0000
  H   H207      1.0  0.55876  0.51811  0.13088  1.0000
  N   N18       1.0  0.60233  0.38324  0.02879  1.0000
  H   H208      1.0  0.55031  0.06497  0.11075  1.0000
  C   C216      1.0  0.67143  0.29584  0.50725  1.0000
  C   C217      1.0  0.66864  0.36605  0.26687  1.0000
  C   C218      1.0  0.60566  0.38392  0.06599  1.0000
  H   H209      1.0  0.62300  0.36907  0.08444  1.0000
  H   H210      1.0  0.67302  0.20706  0.50874  1.0000
  H   H211      1.0  0.55286  0.11058  0.12376  1.0000
  C   C219      1.0  0.68113  0.15649  0.09205  1.0000
  S   S74       1.0  0.54471  0.03388  0.33208  1.0000
  Fe  Fe41      1.0  0.60201  0.18830  0.54387  1.0000
  S   S75       1.0  0.64930  0.18677  0.57654  1.0000
  Fe  Fe42      1.0  0.58208  0.21624  0.60963  1.0000
  S   S76       1.0  0.62781  0.21591  0.64706  1.0000
  S   S77       1.0  0.54495  0.23306  0.63388  1.0000
  Fe  Fe43      1.0  0.64089  0.23887  0.59872  1.0000
  C   C220      1.0  0.45199  0.42055  0.59135  1.0000
  Fe  Fe44      1.0  0.63171  0.16366  0.62141  1.0000
  S   S78       1.0  0.65485  0.11556  0.64987  1.0000
  S   S79       1.0  0.59469  0.24253  0.56274  1.0000
  S   S80       1.0  0.58486  0.16179  0.58737  1.0000
  Fe  Fe45      1.0  0.46865  0.42300  0.75957  1.0000
  S   S81       1.0  0.50540  0.45384  0.74690  1.0000
  S   S82       1.0  0.42096  0.43952  0.73823  1.0000
  Fe  Fe46      1.0  0.51112  0.37074  0.80822  1.0000
  S   S83       1.0  0.55051  0.39828  0.79865  1.0000
  S   S84       1.0  0.52109  0.32011  0.83998  1.0000
  Fe  Fe47      1.0  0.52730  0.44762  0.80703  1.0000
  S   S85       1.0  0.55151  0.48821  0.84725  1.0000
  Fe  Fe48      1.0  0.52438  0.40094  0.73979  1.0000
  S   S86       1.0  0.54514  0.38849  0.69324  1.0000
  S   S87       1.0  0.48941  0.41986  0.82053  1.0000
  S   S88       1.0  0.48606  0.37051  0.74858  1.0000
  H   H212      1.0  0.66814  0.04643  0.67770  1.0000
  C   C221      1.0  0.60779  0.04173  0.71165  1.0000
  H   H213      1.0  0.42875  0.37541  0.67092  1.0000
  C   C222      1.0  0.52888  0.32229  0.88839  1.0000
  C   C223      1.0  0.54223  0.29374  0.90974  1.0000
  C   C224      1.0  0.54802  0.29468  0.94834  1.0000
  C   C225      1.0  0.53989  0.32393  0.96565  1.0000
  C   C226      1.0  0.52652  0.35240  0.94427  1.0000
  C   C227      1.0  0.52138  0.35179  0.90585  1.0000
  H   H214      1.0  0.54800  0.27078  0.89638  1.0000
  H   H215      1.0  0.55823  0.27257  0.96458  1.0000
  H   H216      1.0  0.51980  0.37488  0.95742  1.0000
  H   H217      1.0  0.51091  0.37377  0.88967  1.0000
  C   C228      1.0  0.41019  0.46277  0.69642  1.0000
  C   C229      1.0  0.43039  0.47037  0.67611  1.0000
  C   C230      1.0  0.61791  0.29737  0.71348  1.0000
  C   C231      1.0  0.38310  0.40118  0.62021  1.0000
  C   C232      1.0  0.37085  0.48762  0.64731  1.0000
  C   C233      1.0  0.38052  0.47229  0.68236  1.0000
  H   H218      1.0  0.45327  0.46337  0.68660  1.0000
  H   H219      1.0  0.61450  0.28190  0.68771  1.0000
  H   H220      1.0  0.55338  0.22081  0.74652  1.0000
  C   C234      1.0  0.54346  0.27699  0.64764  1.0000
  C   C235      1.0  0.56083  0.30288  0.63748  1.0000
  C   C236      1.0  0.56055  0.33719  0.65089  1.0000
  C   C237      1.0  0.54346  0.34566  0.67518  1.0000
  C   C238      1.0  0.52581  0.31985  0.68492  1.0000
  C   C239      1.0  0.52548  0.28581  0.67074  1.0000
  H   H221      1.0  0.57465  0.29642  0.61951  1.0000
  H   H222      1.0  0.57416  0.35703  0.64305  1.0000
  H   H223      1.0  0.51264  0.32584  0.70368  1.0000
  H   H224      1.0  0.51193  0.26593  0.67864  1.0000
  C   C240      1.0  0.43506  0.38776  0.64818  1.0000
  C   C241      1.0  0.62135  0.36108  0.01303  1.0000
  H   H225      1.0  0.64038  0.29208  0.73105  1.0000
  C   C242      1.0  0.46484  0.38864  0.64834  1.0000
  C   C243      1.0  0.64812  0.05455  0.68442  1.0000
  C   C244      1.0  0.63660  0.08793  0.67416  1.0000
  C   C245      1.0  0.61057  0.09817  0.68256  1.0000
  C   C246      1.0  0.59637  0.07522  0.70157  1.0000
  C   C247      1.0  0.58821  0.31277  0.75590  1.0000
  H   H226      1.0  0.49656  0.40644  0.62030  1.0000
  H   H227      1.0  0.60151  0.12384  0.67466  1.0000
  C   C248      1.0  0.42075  0.48567  0.64119  1.0000
  N   N19       1.0  0.41427  0.40302  0.62023  1.0000
  N   N20       1.0  0.59583  0.28853  0.73328  1.0000
  C   C249      1.0  0.65716  0.16359  0.97237  1.0000
  C   C250      1.0  0.56340  0.24656  0.74981  1.0000
  H   H228      1.0  0.45836  0.43399  0.56928  1.0000
  C   C251      1.0  0.57997  0.40138  0.00571  1.0000
  H   H229      1.0  0.58965  0.23653  0.71203  1.0000
  H   H230      1.0  0.56407  0.06318  0.61190  1.0000
  N   N21       1.0  0.59939  0.03101  0.60521  1.0000
  H   H231      1.0  0.59733  0.33899  0.75798  1.0000
  H   H232      1.0  0.61628  0.32535  0.70523  1.0000
  N   N22       1.0  0.44784  0.51899  0.84631  1.0000
  H   H233      1.0  0.38057  0.40367  0.64865  1.0000
  C   C252      1.0  0.68079  0.15552  0.95783  1.0000
  H   H234      1.0  0.48103  0.51565  0.89729  1.0000
  S   S89       1.0  0.54591  0.32635  0.01381  1.0000
  H   H235      1.0  0.44346  0.47860  0.80614  1.0000
  C   C253      1.0  0.61110  0.05764  0.58485  1.0000
  H   H236      1.0  0.48136  0.37677  0.67051  1.0000
  C   C254      1.0  0.47336  0.40528  0.61990  1.0000
  H   H237      1.0  0.63562  0.05759  0.59303  1.0000
  C   C255      1.0  0.58398  0.25563  0.73038  1.0000
  H   H238      1.0  0.57632  0.08334  0.70821  1.0000
  C   C256      1.0  0.56799  0.30440  0.77603  1.0000
  C   C257      1.0  0.64843  0.13981  0.99551  1.0000
  H   H239      1.0  0.66516  0.07669  0.78843  1.0000
  H   H240      1.0  0.40987  0.51247  0.75699  1.0000
  C   C258      1.0  0.42232  0.41889  0.59177  1.0000
  C   C259      1.0  0.68204  0.02447  0.78842  1.0000
  C   C260      1.0  0.39086  0.49340  0.62620  1.0000
  C   C261      1.0  0.55541  0.27118  0.77281  1.0000
  H   H241      1.0  0.40589  0.43153  0.56990  1.0000
  H   H242      1.0  0.56184  0.32360  0.79385  1.0000
  H   H243      1.0  0.60302  0.05299  0.55483  1.0000
  H   H244      1.0  0.53934  0.26480  0.78799  1.0000
  H   H245      1.0  0.36475  0.46664  0.69801  1.0000
  H   H246      1.0  0.65766  0.09071  0.02350  1.0000
  H   H247      1.0  0.37032  0.42299  0.60408  1.0000
  C   C262      1.0  0.57460  0.03778  0.61667  1.0000
  H   H248      1.0  0.62742  0.37458  0.98996  1.0000
  S   S90       1.0  0.66745  0.28861  0.60174  1.0000
  H   H249      1.0  0.60940  0.33651  0.00247  1.0000
  H   H250      1.0  0.37350  0.37595  0.60830  1.0000
  H   H251      1.0  0.60449  0.08437  0.59109  1.0000
  C   C263      1.0  0.56010  0.42077  0.01968  1.0000
  S   S91       1.0  0.37897  0.50413  0.57913  1.0000
  C   C264      1.0  0.66391  0.10849  0.00445  1.0000
  H   H252      1.0  0.63074  0.14653  0.00791  1.0000
  H   H253      1.0  0.48428  0.48444  0.86358  1.0000
  C   C265      1.0  0.46800  0.49857  0.87504  1.0000
  H   H254      1.0  0.54191  0.43419  0.00114  1.0000
  H   H255      1.0  0.64618  0.18870  0.96680  1.0000
  H   H256      1.0  0.45539  0.47928  0.88688  1.0000
  H   H257      1.0  0.43639  0.49036  0.62513  1.0000
  H   H258      1.0  0.57671  0.39978  0.97618  1.0000
  C   C266      1.0  0.43712  0.50475  0.81212  1.0000
  C   C267      1.0  0.63353  0.03133  0.70259  1.0000
  S   S92       1.0  0.54092  0.93406  0.32851  1.0000
  H   H259      1.0  0.55905  0.86953  0.48001  1.0000
  Fe  Fe49      1.0  0.51998  0.98566  0.30781  1.0000
  H   H260      1.0  0.45932  0.96425  0.20292  1.0000
  Fe  Fe50      1.0  0.61335  0.57747  0.24589  1.0000
  S   S93       1.0  0.57177  0.55320  0.25243  1.0000
  S   S94       1.0  0.60517  0.62629  0.21090  1.0000
  Fe  Fe51      1.0  0.59433  0.55163  0.31249  1.0000
  S   S95       1.0  0.56586  0.56769  0.34977  1.0000
  H   H261      1.0  0.49691  0.69721  0.31725  1.0000
  S   S96       1.0  0.63505  0.57915  0.30672  1.0000
  N   N23       1.0  0.53088  0.90213  0.43996  1.0000
  Fe  Fe52      1.0  0.49085  0.72356  0.47771  1.0000
  S   S97       1.0  0.39326  0.89847  0.10375  1.0000
  H   H262      1.0  0.58063  0.57498  0.44699  1.0000
  Fe  Fe53      1.0  0.49159  0.78001  0.42048  1.0000
  S   S98       1.0  0.53861  0.79388  0.44641  1.0000
  S   S99       1.0  0.46627  0.81099  0.37152  1.0000
  Fe  Fe54      1.0  0.54561  0.73590  0.45176  1.0000
  S   S100      1.0  0.58487  0.71051  0.43789  1.0000
  Fe  Fe55      1.0  0.52581  0.79142  0.49958  1.0000
  S   S101      1.0  0.49927  0.72206  0.42172  1.0000
  S   S102      1.0  0.47803  0.78018  0.47338  1.0000
  H   H263      1.0  0.60982  0.62256  0.48384  1.0000
  C   C268      1.0  0.43439  0.66693  0.49091  1.0000
  C   C269      1.0  0.52680  0.61333  0.47683  1.0000
  C   C270      1.0  0.39509  0.63003  0.50175  1.0000
  C   C271      1.0  0.37456  0.64668  0.47326  1.0000
  C   C272      1.0  0.38400  0.67367  0.45377  1.0000
  C   C273      1.0  0.41384  0.68389  0.46263  1.0000
  H   H264      1.0  0.36085  0.96155  0.11321  1.0000
  H   H265      1.0  0.36823  0.68665  0.43167  1.0000
  H   H266      1.0  0.42096  0.70461  0.44741  1.0000
  C   C274      1.0  0.57125  0.60885  0.37124  1.0000
  C   C275      1.0  0.59907  0.62457  0.38167  1.0000
  C   C276      1.0  0.60297  0.65605  0.40170  1.0000
  C   C277      1.0  0.57911  0.67193  0.41130  1.0000
  C   C278      1.0  0.55129  0.65637  0.40028  1.0000
  C   C279      1.0  0.54736  0.62505  0.38024  1.0000
  H   H267      1.0  0.61773  0.61200  0.37523  1.0000
  H   H268      1.0  0.62463  0.66783  0.41028  1.0000
  H   H269      1.0  0.53288  0.66785  0.40793  1.0000
  H   H270      1.0  0.52577  0.61303  0.37223  1.0000
  C   C280      1.0  0.58292  0.61576  0.08537  1.0000
  C   C281      1.0  0.59638  0.58799  0.10786  1.0000
  C   C282      1.0  0.60391  0.59119  0.14637  1.0000
  C   C283      1.0  0.59820  0.62232  0.16268  1.0000
  C   C284      1.0  0.58556  0.65046  0.14020  1.0000
  C   C285      1.0  0.57776  0.64715  0.10167  1.0000
  H   H271      1.0  0.60072  0.56377  0.09543  1.0000
  H   H272      1.0  0.61416  0.56959  0.16340  1.0000
  H   H273      1.0  0.58131  0.67473  0.15262  1.0000
  H   H274      1.0  0.56754  0.66875  0.08461  1.0000
  H   H275      1.0  0.38813  0.60905  0.51679  1.0000
  C   C286      1.0  0.51918  0.89911  0.33683  1.0000
  C   C287      1.0  0.53336  0.86869  0.35295  1.0000
  C   C288      1.0  0.51714  0.84125  0.36275  1.0000
  C   C289      1.0  0.48660  0.84406  0.35664  1.0000
  C   C290      1.0  0.47220  0.87388  0.33907  1.0000
  C   C291      1.0  0.48848  0.90147  0.32929  1.0000
  H   H276      1.0  0.55704  0.86650  0.35818  1.0000
  H   H277      1.0  0.52828  0.81777  0.37453  1.0000
  H   H278      1.0  0.44852  0.87599  0.33383  1.0000
  H   H279      1.0  0.47734  0.92469  0.31646  1.0000
  C   C292      1.0  0.43002  0.93596  0.15854  1.0000
  C   C293      1.0  0.40220  0.93489  0.13324  1.0000
  H   H280      1.0  0.50237  0.97350  0.39055  1.0000
  C   C294      1.0  0.39040  0.99040  0.15720  1.0000
  H   H281      1.0  0.44552  0.91494  0.15913  1.0000
  H   H282      1.0  0.60763  0.65884  0.31237  1.0000
  H   H283      1.0  0.52218  0.53953  0.45286  1.0000
  C   C295      1.0  0.50300  0.94941  0.40589  1.0000
  H   H284      1.0  0.58390  0.66791  0.26737  1.0000
  C   C296      1.0  0.52988  0.93270  0.42087  1.0000
  C   C297      1.0  0.52302  0.56285  0.43567  1.0000
  H   H285      1.0  0.42079  0.74755  0.04954  1.0000
  H   H286      1.0  0.50609  0.86200  0.45764  1.0000
  H   H287      1.0  0.45593  0.94631  0.39716  1.0000
  C   C298      1.0  0.57292  0.64350  0.50081  1.0000
  C   C299      1.0  0.50543  0.88675  0.44342  1.0000
  H   H288      1.0  0.57440  0.75902  0.36133  1.0000
  C   C300      1.0  0.51088  0.59464  0.07225  1.0000
  N   N24       1.0  0.53395  0.56537  0.12883  1.0000
  C   C301      1.0  0.56994  0.59291  0.46177  1.0000
  H   H289      1.0  0.49624  0.64730  0.07729  1.0000
  H   H290      1.0  0.40565  0.87377  0.19011  1.0000
  N   N25       1.0  0.56693  0.68411  0.31181  1.0000
  C   C302      1.0  0.53735  0.67857  0.30655  1.0000
  C   C303      1.0  0.58011  0.71298  0.33059  1.0000
  C   C304      1.0  0.52026  0.70194  0.32087  1.0000
  C   C305      1.0  0.56370  0.73679  0.34538  1.0000
  C   C306      1.0  0.53359  0.73120  0.34044  1.0000
  C   C307      1.0  0.58431  0.65980  0.29581  1.0000
  S   S103      1.0  0.53797  0.73480  0.50820  1.0000
  H   H291      1.0  0.60356  0.71738  0.33490  1.0000
  H   H292      1.0  0.36639  0.91848  0.23803  1.0000
  C   C308      1.0  0.37440  0.83519  0.16296  1.0000
  C   C309      1.0  0.42489  0.64003  0.51040  1.0000
  H   H293      1.0  0.52693  0.65564  0.29177  1.0000
  H   H294      1.0  0.50334  0.61138  0.47470  1.0000
  H   H295      1.0  0.57564  0.63267  0.29506  1.0000
  C   C310      1.0  0.58664  0.61963  0.48271  1.0000
  C   C311      1.0  0.50621  0.62403  0.09186  1.0000
  Fe  Fe56      1.0  0.65146  0.52487  0.29904  1.0000
  C   C312      1.0  0.41817  0.99129  0.18270  1.0000
  C   C313      1.0  0.47697  0.93408  0.40955  1.0000
  S   S104      1.0  0.47223  0.67775  0.50239  1.0000
  N   N26       1.0  0.36165  0.88797  0.18979  1.0000
  C   C314      1.0  0.38232  0.96215  0.13265  1.0000
  C   C315      1.0  0.43793  0.96392  0.18334  1.0000
  C   C316      1.0  0.52910  0.59391  0.14834  1.0000
  H   H296      1.0  0.54983  0.94398  0.41629  1.0000
  C   C317      1.0  0.51526  0.62368  0.13018  1.0000
  H   H297      1.0  0.56370  0.86660  0.43390  1.0000
  H   H298      1.0  0.53688  0.59420  0.17809  1.0000
  H   H299      1.0  0.51240  0.64670  0.14567  1.0000
  C   C318      1.0  0.54294  0.64000  0.49839  1.0000
  C   C319      1.0  0.43859  0.84201  0.05300  1.0000
  H   H300      1.0  0.39090  0.81875  0.15593  1.0000
  H   H301      1.0  0.43664  0.84223  0.08106  1.0000
  H   H302      1.0  0.50488  0.59505  0.04245  1.0000
  S   S105      1.0  0.63378  0.52623  0.23727  1.0000
  H   H303      1.0  0.52067  0.74934  0.35206  1.0000
  C   C320      1.0  0.38256  0.86645  0.18221  1.0000
  C   C321      1.0  0.37030  0.92055  0.21030  1.0000
  H   H304      1.0  0.53282  0.55525  0.41285  1.0000
  N   N27       1.0  0.54027  0.59059  0.45832  1.0000
  H   H305      1.0  0.57747  0.90392  0.46269  1.0000
  C   C322      1.0  0.55920  0.88468  0.45485  1.0000
  C   C323      1.0  0.47812  0.90242  0.42823  1.0000
  C   C324      1.0  0.54842  0.53443  0.14846  1.0000
  H   H306      1.0  0.45800  0.88962  0.43031  1.0000
  S   S106      1.0  0.47643  0.00452  0.31424  1.0000
  H   H307      1.0  0.53209  0.65809  0.51273  1.0000
  S   S107      1.0  0.51289  0.00423  0.24959  1.0000
  H   H308      1.0  0.52913  0.54311  0.07563  1.0000
  H   H309      1.0  0.37614  0.78295  0.02606  1.0000
  S   S108      1.0  0.57124  0.60933  0.03732  1.0000
  H   H310      1.0  0.50017  0.57178  0.42270  1.0000
  C   C325      1.0  0.52479  0.56533  0.09125  1.0000
  H   H311      1.0  0.39398  0.92680  0.21375  1.0000
  H   H312      1.0  0.35746  0.94284  0.19533  1.0000
  H   H313      1.0  0.37502  0.01156  0.15657  1.0000
  H   H314      1.0  0.58540  0.66502  0.51618  1.0000
  H   H315      1.0  0.39913  0.87215  0.03228  1.0000
  C   C326      1.0  0.46172  0.82429  0.04376  1.0000
  H   H316      1.0  0.56647  0.54215  0.17264  1.0000
  H   H317      1.0  0.47770  0.81051  0.06507  1.0000
  C   C327      1.0  0.41750  0.85901  0.02560  1.0000
  Fe  Fe57      1.0  0.50573  0.65724  0.92171  1.0000
  S   S109      1.0  0.55464  0.65998  0.94398  1.0000
  S   S110      1.0  0.48638  0.62834  0.86851  1.0000
  Fe  Fe58      1.0  0.49483  0.70197  0.98352  1.0000
  C   C328      1.0  0.60204  0.97328  0.63106  1.0000
  H   H318      1.0  0.35456  0.67500  0.58246  1.0000
  Fe  Fe59      1.0  0.54706  0.71699  0.95226  1.0000
  S   S111      1.0  0.57961  0.75488  0.93810  1.0000
  Fe  Fe60      1.0  0.54630  0.65135  0.99934  1.0000
  S   S112      1.0  0.49828  0.71507  0.92656  1.0000
  S   S113      1.0  0.49762  0.64394  0.97617  1.0000
  H   H319      1.0  0.59937  0.75736  0.72598  1.0000
  H   H320      1.0  0.56908  0.96108  0.65972  1.0000
  Fe  Fe61      1.0  0.60577  0.95951  0.75378  1.0000
  S   S114      1.0  0.64930  0.93853  0.74964  1.0000
  H   H321      1.0  0.41481  0.59812  0.83246  1.0000
  Fe  Fe62      1.0  0.58999  0.89220  0.78892  1.0000
  S   S115      1.0  0.63248  0.86666  0.78738  1.0000
  S   S116      1.0  0.55321  0.86242  0.80461  1.0000
  Fe  Fe63      1.0  0.65320  0.91868  0.80684  1.0000
  Fe  Fe64      1.0  0.62431  0.88902  0.73058  1.0000
  S   S117      1.0  0.63236  0.85509  0.68503  1.0000
  S   S118      1.0  0.61111  0.94291  0.81251  1.0000
  S   S119      1.0  0.58033  0.91130  0.73050  1.0000
  C   C329      1.0  0.56055  0.84321  0.57726  1.0000
  C   C330      1.0  0.58469  0.82058  0.58551  1.0000
  C   C331      1.0  0.60703  0.82504  0.61826  1.0000
  C   C332      1.0  0.60496  0.85158  0.64324  1.0000
  C   C333      1.0  0.58079  0.87413  0.63494  1.0000
  C   C334      1.0  0.55884  0.87020  0.60186  1.0000
  H   H322      1.0  0.58628  0.79990  0.56652  1.0000
  H   H323      1.0  0.62581  0.80766  0.62447  1.0000
  H   H324      1.0  0.57902  0.89459  0.65395  1.0000
  H   H325      1.0  0.54021  0.88780  0.59554  1.0000
  S   S120      1.0  0.46468  0.72213  0.01679  1.0000
  H   H326      1.0  0.61674  0.79985  0.73585  1.0000
  H   H327      1.0  0.43594  0.74609  0.94201  1.0000
  C   C335      1.0  0.57160  0.78459  0.90081  1.0000
  C   C336      1.0  0.54280  0.79043  0.87964  1.0000
  C   C337      1.0  0.53749  0.81427  0.85018  1.0000
  C   C338      1.0  0.56085  0.83253  0.84171  1.0000
  C   C339      1.0  0.58964  0.82652  0.86274  1.0000
  C   C340      1.0  0.59494  0.80269  0.89216  1.0000
  H   H328      1.0  0.52458  0.77704  0.88625  1.0000
  H   H329      1.0  0.51514  0.81892  0.83414  1.0000
  H   H330      1.0  0.60781  0.84052  0.85665  1.0000
  H   H331      1.0  0.61728  0.79850  0.90851  1.0000
  C   C341      1.0  0.43161  0.74474  0.99751  1.0000
  C   C342      1.0  0.44327  0.84059  0.98121  1.0000
  C   C343      1.0  0.51079  0.54058  0.82388  1.0000
  C   C344      1.0  0.38084  0.78612  0.97101  1.0000
  C   C345      1.0  0.39756  0.77489  0.94718  1.0000
  C   C346      1.0  0.42294  0.75422  0.96038  1.0000
  H   H332      1.0  0.49778  0.84388  0.66115  1.0000
  H   H333      1.0  0.66752  0.98719  0.85308  1.0000
  H   H334      1.0  0.50501  0.82502  0.99500  1.0000
  C   C347      1.0  0.48839  0.80573  0.99880  1.0000
  H   H335      1.0  0.61416  0.78019  0.69247  1.0000
  C   C348      1.0  0.49691  0.57205  0.82880  1.0000
  C   C349      1.0  0.50451  0.58933  0.86283  1.0000
  C   C350      1.0  0.52646  0.57539  0.89171  1.0000
  N   N28       1.0  0.46373  0.82365  0.00817  1.0000
  H   H336      1.0  0.44454  0.83958  0.95291  1.0000
  H   H337      1.0  0.48010  0.58288  0.80624  1.0000
  H   H338      1.0  0.53245  0.58843  0.91808  1.0000
  H   H339      1.0  0.62064  0.59965  0.88321  1.0000
  H   H340      1.0  0.61315  0.94827  0.63700  1.0000
  C   C351      1.0  0.41978  0.85834  0.98946  1.0000
  H   H341      1.0  0.57074  0.58839  0.84230  1.0000
  C   C352      1.0  0.57689  0.61451  0.85286  1.0000
  C   C353      1.0  0.60490  0.62085  0.87579  1.0000
  H   H342      1.0  0.55803  0.53390  0.90888  1.0000
  C   C354      1.0  0.42053  0.57166  0.82655  1.0000
  N   N29       1.0  0.56391  0.67462  0.85842  1.0000
  C   C355      1.0  0.59161  0.68130  0.88008  1.0000
  C   C356      1.0  0.55654  0.64187  0.84439  1.0000
  C   C357      1.0  0.61243  0.65450  0.88937  1.0000
  C   C358      1.0  0.40988  0.55755  0.79142  1.0000
  H   H343      1.0  0.52485  0.85158  0.72695  1.0000
  C   C359      1.0  0.54214  0.70284  0.85072  1.0000
  H   H344      1.0  0.59748  0.70731  0.89110  1.0000
  H   H345      1.0  0.53461  0.63654  0.82718  1.0000
  H   H346      1.0  0.63406  0.65976  0.90748  1.0000
  H   H347      1.0  0.54894  0.72344  0.83386  1.0000
  H   H348      1.0  0.51975  0.69324  0.83634  1.0000
  H   H349      1.0  0.54039  0.71474  0.87693  1.0000
  N   N30       1.0  0.57354  0.79994  0.69957  1.0000
  C   C360      1.0  0.55840  0.79460  0.66371  1.0000
  C   C361      1.0  0.56148  0.81957  0.72227  1.0000
  C   C362      1.0  0.53099  0.81037  0.64929  1.0000
  C   C363      1.0  0.53404  0.83557  0.70885  1.0000
  C   C364      1.0  0.51886  0.83115  0.67204  1.0000
  C   C365      1.0  0.60226  0.78327  0.71423  1.0000
  H   H350      1.0  0.56784  0.77885  0.64572  1.0000
  H   H351      1.0  0.57321  0.82329  0.75089  1.0000
  H   H352      1.0  0.51958  0.80708  0.62045  1.0000
  S   S121      1.0  0.53198  0.83891  0.53670  1.0000
  H   H353      1.0  0.48043  0.79023  0.97315  1.0000
  H   H354      1.0  0.64206  0.00530  0.70916  1.0000
  H   H355      1.0  0.40282  0.87043  0.96780  1.0000
  C   C366      1.0  0.41807  0.52382  0.78416  1.0000
  C   C367      1.0  0.56320  0.01259  0.63610  1.0000
  H   H356      1.0  0.39115  0.78269  0.91863  1.0000
  H   H357      1.0  0.54443  0.01859  0.64678  1.0000
  H   H358      1.0  0.39539  0.57274  0.76982  1.0000
  C   C368      1.0  0.38914  0.77551  0.00770  1.0000
  H   H359      1.0  0.63246  0.99372  0.60253  1.0000
  C   C369      1.0  0.57715  0.98027  0.64351  1.0000
  H   H360      1.0  0.49928  0.78682  0.02048  1.0000
  S   S122      1.0  0.54330  0.70865  0.01005  1.0000
  C   C370      1.0  0.54085  0.54443  0.88651  1.0000
  C   C371      1.0  0.43932  0.55173  0.85396  1.0000
  H   H361      1.0  0.44794  0.56327  0.88095  1.0000
  S   S123      1.0  0.35091  0.81508  0.95498  1.0000
  C   C372      1.0  0.61287  0.99910  0.61170  1.0000
  H   H362      1.0  0.44066  0.62676  0.53226  1.0000
  S   S124      1.0  0.58849  0.01317  0.73389  1.0000
  H   H363      1.0  0.50476  0.52728  0.79762  1.0000
  C   C373      1.0  0.53292  0.52681  0.85273  1.0000
  H   H364      1.0  0.66084  0.01340  0.77454  1.0000
  C   C374      1.0  0.41441  0.75509  0.02090  1.0000
  C   C375      1.0  0.00528  0.04115  0.33394  1.0000
  C   C376      1.0  0.79799  0.50001  0.46556  1.0000
  H   H365      1.0  0.93179  0.11670  0.11730  1.0000
  C   C377      1.0  0.90836  0.06899  0.05469  1.0000
  H   H366      1.0  0.92827  0.15003  0.47246  1.0000
  S   S125      1.0  0.98786  0.13387  0.37597  1.0000
  S   S126      1.0  0.82918  0.40340  0.48194  1.0000
  S   S127      1.0  0.78856  0.33388  0.48213  1.0000
  Fe  Fe65      1.0  0.83486  0.34521  0.47944  1.0000
  S   S128      1.0  0.85832  0.32190  0.43960  1.0000
  Fe  Fe66      1.0  0.78469  0.39156  0.49072  1.0000
  S   S129      1.0  0.74018  0.41795  0.47006  1.0000
  C   C378      1.0  0.70325  0.41529  0.28373  1.0000
  C   C379      1.0  0.00461  0.30876  0.49124  1.0000
  C   C380      1.0  0.70914  0.47949  0.36231  1.0000
  C   C381      1.0  0.70870  0.18072  0.05197  1.0000
  S   S130      1.0  0.83073  0.08658  0.07707  1.0000
  Fe  Fe67      1.0  0.01217  0.16477  0.42558  1.0000
  C   C382      1.0  0.72582  0.12734  0.08546  1.0000
  C   C383      1.0  0.72936  0.15364  0.06132  1.0000
  H   H367      1.0  0.75794  0.49247  0.48189  1.0000
  H   H368      1.0  0.86873  0.27915  0.50498  1.0000
  H   H369      1.0  0.70139  0.34729  0.47013  1.0000
  C   C384      1.0  0.93305  0.24708  0.49273  1.0000
  N   N31       1.0  0.92204  0.10078  0.06153  1.0000
  C   C385      1.0  0.88670  0.27537  0.49244  1.0000
  C   C386      1.0  0.88645  0.29212  0.45946  1.0000
  C   C387      1.0  0.90921  0.28553  0.44255  1.0000
  C   C388      1.0  0.93251  0.26301  0.45915  1.0000
  H   H370      1.0  0.94762  0.15311  0.41745  1.0000
  H   H371      1.0  0.89334  0.12030  0.09236  1.0000
  H   H372      1.0  0.90903  0.29827  0.41687  1.0000
  H   H373      1.0  0.95014  0.25834  0.44623  1.0000
  H   H374      1.0  0.94759  0.36512  0.46232  1.0000
  C   C389      1.0  0.91643  0.12330  0.09043  1.0000
  C   C390      1.0  0.99089  0.07130  0.34167  1.0000
  H   H375      1.0  0.71626  0.41487  0.31291  1.0000
  C   C391      1.0  0.91005  0.25325  0.50919  1.0000
  Fe  Fe68      1.0  0.78130  0.08506  0.05820  1.0000
  H   H376      1.0  0.78668  0.50534  0.43709  1.0000
  H   H377      1.0  0.96742  0.07417  0.33001  1.0000
  S   S131      1.0  0.75048  0.09155  0.09508  1.0000
  C   C392      1.0  0.96195  0.34638  0.47985  1.0000
  C   C393      1.0  0.70000  0.45453  0.41757  1.0000
  C   C394      1.0  0.72856  0.44043  0.42777  1.0000
  C   C395      1.0  0.74734  0.44565  0.40495  1.0000
  C   C396      1.0  0.73770  0.46529  0.37246  1.0000
  C   C397      1.0  0.98625  0.33323  0.46909  1.0000
  H   H378      1.0  0.76937  0.43487  0.41250  1.0000
  H   H379      1.0  0.98576  0.05911  0.43899  1.0000
  C   C398      1.0  0.00668  0.09734  0.36487  1.0000
  S   S132      1.0  0.00419  0.14772  0.47883  1.0000
  H   H380      1.0  0.72277  0.21929  0.49969  1.0000
  C   C399      1.0  0.69025  0.47382  0.38489  1.0000
  H   H381      1.0  0.69900  0.10898  0.12018  1.0000
  H   H382      1.0  0.74813  0.15340  0.04995  1.0000
  S   S133      1.0  0.85783  0.16216  0.02834  1.0000
  H   H383      1.0  0.85935  0.22144  0.42132  1.0000
  H   H384      1.0  0.99075  0.34168  0.44360  1.0000
  C   C400      1.0  0.87827  0.20564  0.42021  1.0000
  C   C401      1.0  0.80615  0.02769  0.16512  1.0000
  H   H385      1.0  0.73264  0.34101  0.50906  1.0000
  H   H386      1.0  0.75244  0.46956  0.35508  1.0000
  C   C402      1.0  0.00468  0.04299  0.43885  1.0000
  C   C403      1.0  0.91692  0.16551  0.44891  1.0000
  C   C404      1.0  0.89015  0.20757  0.38985  1.0000
  N   N32       1.0  0.69877  0.30234  0.50224  1.0000
  C   C405      1.0  0.92803  0.16780  0.41799  1.0000
  S   S134      1.0  0.69795  0.50385  0.32118  1.0000
  C   C406      1.0  0.70183  0.12909  0.10124  1.0000
  H   H387      1.0  0.88352  0.18370  0.47420  1.0000
  H   H388      1.0  0.71578  0.40160  0.26665  1.0000
  H   H389      1.0  0.87983  0.22471  0.36730  1.0000
  C   C407      1.0  0.78184  0.49265  0.49103  1.0000
  H   H390      1.0  0.89308  0.06055  0.07013  1.0000
  C   C408      1.0  0.82872  0.49999  0.47698  1.0000
  C   C409      1.0  0.89180  0.18444  0.44989  1.0000
  H   H391      1.0  0.91424  0.20798  0.33530  1.0000
  Fe  Fe69      1.0  0.82953  0.03826  0.04324  1.0000
  S   S135      1.0  0.96192  0.21940  0.51525  1.0000
  H   H392      1.0  0.91891  0.15135  0.08409  1.0000
  S   S136      1.0  0.78013  0.03365  0.02895  1.0000
  C   C410      1.0  0.84285  0.49292  0.51363  1.0000
  N   N33       1.0  0.91467  0.18863  0.38900  1.0000
  H   H393      1.0  0.95012  0.20080  0.36589  1.0000
  C   C411      1.0  0.70792  0.24061  0.50105  1.0000
  H   H394      1.0  0.73886  0.28035  0.49581  1.0000
  C   C412      1.0  0.92716  0.19065  0.35723  1.0000
  C   C413      1.0  0.70828  0.33848  0.49916  1.0000
  H   H395      1.0  0.92788  0.16418  0.34527  1.0000
  H   H396      1.0  0.86527  0.03593  0.12618  1.0000
  S   S137      1.0  0.00139  0.22111  0.43301  1.0000
  H   H397      1.0  0.69893  0.35643  0.51638  1.0000
  C   C414      1.0  0.71689  0.27526  0.49889  1.0000
  H   H398      1.0  0.70073  0.44296  0.27436  1.0000
  Fe  Fe70      1.0  0.99787  0.20447  0.48860  1.0000
  H   H399      1.0  0.70648  0.06185  0.02933  1.0000
  H   H400      1.0  0.68510  0.35152  0.25746  1.0000
  H   H401      1.0  0.84155  0.50523  0.45746  1.0000
  H   H402      1.0  0.90505  0.21016  0.03128  1.0000
  N   N34       1.0  0.95597  0.33518  0.51163  1.0000
  C   C415      1.0  0.94187  0.11098  0.04264  1.0000
  H   H403      1.0  0.91210  0.35554  0.49834  1.0000
  H   H404      1.0  0.95263  0.13625  0.04783  1.0000
  H   H405      1.0  0.68537  0.45073  0.43516  1.0000
  C   C416      1.0  0.91358  0.04701  0.02740  1.0000
  Fe  Fe71      1.0  0.82861  0.11468  0.02411  1.0000
  H   H406      1.0  0.79622  0.05274  0.16835  1.0000
  H   H407      1.0  0.89168  0.02639  0.19130  1.0000
  C   C417      1.0  0.93065  0.34963  0.52270  1.0000
  H   H408      1.0  0.78447  0.02403  0.10755  1.0000
  H   H409      1.0  0.86676  0.49249  0.52289  1.0000
  H   H410      1.0  0.71144  0.20053  0.03266  1.0000
  C   C418      1.0  0.68438  0.18216  0.06694  1.0000
  H   H411      1.0  0.83106  0.02394  0.22180  1.0000
  H   H412      1.0  0.71389  0.11763  0.95552  1.0000
  S   S138      1.0  0.88705  0.42974  0.56788  1.0000
  C   C419      1.0  0.71754  0.31896  0.59205  1.0000
  H   H413      1.0  0.93704  0.37402  0.53884  1.0000
  C   C420      1.0  0.82601  0.48557  0.53833  1.0000
  H   H414      1.0  0.72451  0.06815  0.99365  1.0000
  H   H415      1.0  0.68802  0.17404  0.94024  1.0000
  C   C421      1.0  0.92567  0.41456  0.76315  1.0000
  H   H416      1.0  0.70790  0.23146  0.59948  1.0000
  Fe  Fe72      1.0  0.98955  0.21190  0.95204  1.0000
  S   S139      1.0  0.95797  0.16615  0.94384  1.0000
  C   C422      1.0  0.00349  0.39692  0.76093  1.0000
  Fe  Fe73      1.0  0.84675  0.39652  0.54305  1.0000
  S   S140      1.0  0.83003  0.06636  0.99091  1.0000
  S   S141      1.0  0.91977  0.50210  0.72507  1.0000
  Fe  Fe74      1.0  0.78051  0.06628  0.97977  1.0000
  C   C423      1.0  0.92789  0.19222  0.99193  1.0000
  S   S142      1.0  0.85439  0.33903  0.53982  1.0000
  C   C424      1.0  0.92875  0.16728  0.96511  1.0000
  C   C425      1.0  0.90684  0.14138  0.95650  1.0000
  C   C426      1.0  0.88461  0.13987  0.97522  1.0000
  C   C427      1.0  0.90549  0.19092  0.01039  1.0000
  C   C428      1.0  0.97409  0.31153  0.53375  1.0000
  H   H417      1.0  0.76009  0.45929  0.54042  1.0000
  H   H418      1.0  0.90735  0.12209  0.93567  1.0000
  H   H419      1.0  0.86804  0.11963  0.96866  1.0000
  H   H420      1.0  0.93711  0.04109  0.98570  1.0000
  H   H421      1.0  0.96250  0.09858  0.99925  1.0000
  C   C429      1.0  0.91149  0.48090  0.68195  1.0000
  H   H422      1.0  0.76886  0.50235  0.56033  1.0000
  C   C430      1.0  0.77832  0.47772  0.55283  1.0000
  N   N35       1.0  0.97452  0.39287  0.76823  1.0000
  S   S143      1.0  0.00373  0.23246  0.90344  1.0000
  H   H423      1.0  0.94470  0.21219  0.99885  1.0000
  H   H424      1.0  0.75593  0.34330  0.58124  1.0000
  H   H425      1.0  0.71345  0.10111  0.82400  1.0000
  H   H426      1.0  0.98531  0.44599  0.84216  1.0000
  H   H427      1.0  0.95857  0.39950  0.86584  1.0000
  C   C431      1.0  0.89622  0.44796  0.61249  1.0000
  C   C432      1.0  0.87661  0.44728  0.63472  1.0000
  C   C433      1.0  0.88418  0.46391  0.66925  1.0000
  C   C434      1.0  0.92361  0.46471  0.62533  1.0000
  H   H428      1.0  0.85553  0.43432  0.62520  1.0000
  S   S144      1.0  0.98161  0.26522  0.97159  1.0000
  S   S145      1.0  0.00753  0.50074  0.74575  1.0000
  C   C435      1.0  0.71832  0.25585  0.59559  1.0000
  C   C436      1.0  0.74655  0.25585  0.58935  1.0000
  C   C437      1.0  0.75997  0.28731  0.58341  1.0000
  S   S146      1.0  0.79412  0.28617  0.57231  1.0000
  H   H429      1.0  0.75777  0.23134  0.58839  1.0000
  C   C438      1.0  0.74552  0.31892  0.58515  1.0000
  H   H430      1.0  0.93884  0.46544  0.60821  1.0000
  N   N36       1.0  0.68721  0.10091  0.99034  1.0000
  C   C439      1.0  0.73575  0.05142  0.82776  1.0000
  S   S147      1.0  0.97561  0.33164  0.89487  1.0000
  C   C440      1.0  0.94069  0.35914  0.79244  1.0000
  C   C441      1.0  0.99669  0.42237  0.85324  1.0000
  C   C442      1.0  0.91931  0.38498  0.78130  1.0000
  C   C443      1.0  0.69550  0.12370  0.96689  1.0000
  C   C444      1.0  0.71143  0.07365  0.81664  1.0000
  H   H431      1.0  0.96919  0.30216  0.55867  1.0000
  C   C445      1.0  0.99587  0.36480  0.88039  1.0000
  C   C446      1.0  0.95351  0.41803  0.75665  1.0000
  Fe  Fe75      1.0  0.99999  0.28581  0.92654  1.0000
  H   H432      1.0  0.75645  0.06203  0.84413  1.0000
  N   N37       1.0  0.00510  0.37723  0.98397  1.0000
  H   H433      1.0  0.97547  0.41231  0.94881  1.0000
  S   S148      1.0  0.74439  0.06276  0.92680  1.0000
  C   C447      1.0  0.96828  0.36342  0.78538  1.0000
  H   H434      1.0  0.89793  0.38222  0.78696  1.0000
  S   S149      1.0  0.77926  0.11749  0.00831  1.0000
  C   C448      1.0  0.94767  0.08965  0.01519  1.0000
  H   H435      1.0  0.86876  0.46381  0.68613  1.0000
  H   H436      1.0  0.68955  0.04615  0.98302  1.0000
  H   H437      1.0  0.98982  0.33728  0.01459  1.0000
  C   C449      1.0  0.93134  0.48088  0.66006  1.0000
  C   C450      1.0  0.98127  0.35785  0.99367  1.0000
  H   H438      1.0  0.83730  0.47983  0.56670  1.0000
  C   C451      1.0  0.70366  0.28743  0.59667  1.0000
  H   H439      1.0  0.91017  0.24069  0.53496  1.0000
  H   H440      1.0  0.01224  0.27820  0.54082  1.0000
  C   C452      1.0  0.98156  0.39595  0.86663  1.0000
  S   S150      1.0  0.80164  0.38946  0.55248  1.0000
  C   C453      1.0  0.99828  0.40499  0.96047  1.0000
  H   H441      1.0  0.95827  0.44120  0.74262  1.0000
  H   H442      1.0  0.70640  0.34348  0.59327  1.0000
  H   H443      1.0  0.93628  0.33640  0.80741  1.0000
  C   C454      1.0  0.93323  0.05758  0.00738  1.0000
  H   H444      1.0  0.90926  0.43490  0.75437  1.0000
  C   C455      1.0  0.70259  0.06755  0.99952  1.0000
  H   H445      1.0  0.79176  0.46526  0.57835  1.0000
  H   H446      1.0  0.98498  0.34360  0.79494  1.0000
  C   C456      1.0  0.88401  0.16453  0.00241  1.0000
  Fe  Fe76      1.0  0.80764  0.33228  0.54312  1.0000
  H   H447      1.0  0.95237  0.49400  0.66953  1.0000
  H   H448      1.0  0.00279  0.38719  0.73298  1.0000
  H   H449      1.0  0.92195  0.33066  0.53960  1.0000
  H   H450      1.0  0.96730  0.34480  0.96879  1.0000
  H   H451      1.0  0.96739  0.37582  0.00511  1.0000
  S   S151      1.0  0.97765  0.51594  0.81486  1.0000
  N   N38       1.0  0.79588  0.48508  0.52675  1.0000
  C   C457      1.0  0.68440  0.05999  0.79686  1.0000
  H   H452      1.0  0.68717  0.04323  0.88282  1.0000
  H   H453      1.0  0.01040  0.42479  0.76311  1.0000
  H   H454      1.0  0.01291  0.17843  0.84466  1.0000
  H   H455      1.0  0.90225  0.02207  0.02175  1.0000
  C   C458      1.0  0.99855  0.29787  0.52382  1.0000
  H   H456      1.0  0.01502  0.44533  0.93111  1.0000
  H   H457      1.0  0.86644  0.92642  0.17182  1.0000
  H   H458      1.0  0.85359  0.96721  0.21319  1.0000
  S   S152      1.0  0.97811  0.88216  0.25153  1.0000
  C   C459      1.0  0.01287  0.81374  0.41841  1.0000
  S   S153      1.0  0.86081  0.99290  0.06119  1.0000
  S   S154      1.0  0.98100  0.94221  0.31515  1.0000
  S   S155      1.0  0.98956  0.84284  0.35040  1.0000
  C   C460      1.0  0.84486  0.93008  0.15127  1.0000
  H   H459      1.0  0.99375  0.77976  0.15242  1.0000
  Fe  Fe77      1.0  0.96754  0.93960  0.25322  1.0000
  S   S156      1.0  0.92498  0.96870  0.22791  1.0000
  H   H460      1.0  0.80808  0.96766  0.09953  1.0000
  H   H461      1.0  0.84921  0.92811  0.12370  1.0000
  H   H462      1.0  0.90527  0.94355  0.09611  1.0000
  C   C461      1.0  0.91331  0.97939  0.18089  1.0000
  C   C462      1.0  0.79960  0.01159  0.13076  1.0000
  C   C463      1.0  0.83806  0.97932  0.18998  1.0000
  C   C464      1.0  0.88317  0.99025  0.10667  1.0000
  H   H463      1.0  0.00104  0.83526  0.18806  1.0000
  C   C465      1.0  0.91788  0.95670  0.15381  1.0000
  N   N39       1.0  0.83189  0.96403  0.15597  1.0000
  Fe  Fe78      1.0  0.99573  0.88678  0.31298  1.0000
  H   H464      1.0  0.82974  0.90870  0.15444  1.0000
  H   H465      1.0  0.93171  0.93393  0.16164  1.0000
  H   H466      1.0  0.01206  0.79808  0.08061  1.0000
  C   C466      1.0  0.00100  0.01130  0.41983  1.0000
  H   H467      1.0  0.00608  0.79861  0.28982  1.0000
  C   C467      1.0  0.90274  0.96210  0.11675  1.0000
  C   C468      1.0  0.82552  0.01152  0.19500  1.0000
  H   H468      1.0  0.99287  0.02097  0.31643  1.0000
  C   C469      1.0  0.81278  0.97961  0.12658  1.0000
  S   S157      1.0  0.01142  0.95769  0.24653  1.0000
  C   C470      1.0  0.88020  0.01418  0.13347  1.0000
  C   C471      1.0  0.01317  0.84247  0.39532  1.0000
  H   H469      1.0  0.97920  0.00255  0.40494  1.0000
  C   C472      1.0  0.89518  0.00869  0.17044  1.0000
  H   H470      1.0  0.99750  0.79256  0.40894  1.0000
  S   S158      1.0  0.99346  0.61296  0.85670  1.0000
  H   H471      1.0  0.74865  0.93653  0.90715  1.0000
  C   C473      1.0  0.70695  0.00314  0.79917  1.0000
  H   H472      1.0  0.70481  0.97541  0.79297  1.0000
  C   C474      1.0  0.74589  0.99119  0.91996  1.0000
  H   H473      1.0  0.77271  0.00161  0.85847  1.0000
  C   C475      1.0  0.75900  0.99381  0.83086  1.0000
  H   H474      1.0  0.76796  0.99231  0.93796  1.0000
  H   H475      1.0  0.00467  0.61944  0.69156  1.0000
  H   H476      1.0  0.99740  0.66953  0.64819  1.0000
  S   S159      1.0  0.98100  0.57887  0.75652  1.0000
  S   S160      1.0  0.69661  0.92053  0.85040  1.0000
  C   C476      1.0  0.73495  0.95965  0.90245  1.0000
  C   C477      1.0  0.70701  0.95832  0.87744  1.0000
  H   H477      1.0  0.77246  0.99518  0.81070  1.0000
  H   H478      1.0  0.75229  0.96617  0.83331  1.0000
  Fe  Fe79      1.0  0.99737  0.56957  0.81744  1.0000
  C   C478      1.0  0.68925  0.98813  0.87189  1.0000
  H   H479      1.0  0.00234  0.66162  0.91674  1.0000
  Fe  Fe80      1.0  0.96529  0.52291  0.75342  1.0000
  H   H480      1.0  0.01239  0.65304  0.79737  1.0000
  C   C479      1.0  0.70040  0.01982  0.88881  1.0000
  N   N40       1.0  0.73321  0.01660  0.81923  1.0000
  C   C480      1.0  0.72902  0.02160  0.91208  1.0000
