data_image0
_chemical_formula_structural       H2CH4SCHNFeS2FeS2FeSFeS3FeS2FeS2FeSFeS4HCFe2SH2S2FeSFeSCSC2H2CHCFeHSC3HSCH2C11H2C2H2SCHC3HC2HC2H2SC6H4C4H3C6H4C5H3NC7H4FeH3CH2CNC2HC2H5C2H3C2H3CNH4FeHNC6H8SHNH3CHCNC2HC2NC2H5CNCHCHCHC2SH2CH2C2H3C8H3SCHCNCH5CH3SHCH2SH2FeSH2C3H3C2H3N2C4FeSCFeSFe2SFeS3FeHSH3CSC2HCHCFeSHC3FeSHCHC2HNHSHFeS2FeSCFeCFeS4H2CH2CHC6H5CHCSH2C2H2CHCNHCH4C6H4C6H7C5H4CHSC4HCH4CS2HC5HCH3C3H5CHCHSC2HSCH4CNCSHCHSHC3NH2SHSHCSH2CNSHCFeHC2HCHSC2HC2NSCFeS2FeS2FeSFeS3HNS2CSNFeS2FeS2FeSFeS3FeSCFeS2FeHFeS3FeS2FeS2FeSFeS3CS2C4HC2H3C7H5C6H4C6H4C6H4C3H2C7H3CNC4H3CHC6H4C2HNCHSC3H8FeH11NCHNC6H8C2HCHC3FeCHCNC3H2C2HCH5CHCH2C2NH3CH4FeCH3C2HC5HSHC2HNC6H8SCHCH3CH4SCH4C2H3CHCHCHC3H2CHCHCSHCNHSHC3HFeS2FeS2FeSFeS3HFeSCFeS2FeSFeS3FeS2FeS2FeSFeS3FeS2FeSFeHFeS3HSHSHSC8H4C2HC6H4C6H4C4HCH2C8H4C6H7NSC4HCH4FeHC6H4CHC3H2FeHSCHCFeH4SCH3CH3C2H3CHC2H2C3NC6H8NH2SH2CHC4FeC3HCSC2H3CNC6H8SHSH2CHCH2SH2FeCNC6H8NHCHC3NHCHCHNCHC2H2CNH6CH2CH2NCHSH2CHC2H2CSHSHCFeS2FeS2FeHFeS4H3NFeS2FeS2FeSCSHC2FeS2FeS2FeSFeS3HCSC8H4C5H5C4H4C6H3SC3FeH4C2SC3SH2C3SC2H2C2H4C6H5NCHNH2C7H4CNC6HCH5SHC2H2CHCHCSHFeHSNC4HCH2FeH2CHCNC6H8CNH2CHCFeCHCH4FeC2HC3SHFeHSHC2HSHNC3H3CSCHC2H2CNHC2H3SCH3FeH3C2HSH2CH2C6H2SH2CFe2S2FeS2FeSFeHS3HCSFe2CSHCSCSFeSFeCHFeSFeS2FeSFeS4HCH2CSCHC2H2FeS2HC3H5FeC3H2C2HC7H4C6H5CSHC2HCH2FeCHCH3CH2NC3SHC6H5CH2C7H5FeNH5CHS2H3NH2NCHCSHNC3H2CHC2SCHSCNC4S2CHNSNH5CH5CHC4FeHCHNHC2SH2C5HCHCH3CHCH2CHFeSHSHNC6H8C2HC4H2NH2C3HC4SHC2H2SFeH2C4FeS2FeS2FeSFeS3HSFeS2FeS2FeSFeS3CHSCHC4FeS2HC4N2FeS2FeSFeSHCS2FeS2HSCHC4H3SH2CHFeC3HCHCSCHC2HFeHCH3C6H5FeH3C5H4NCNC6H4C6H4C6H4C6H2NC6H9CHCHCHCHC3HFeSCH2SC2H2NCH4CNHC3HNHC4H2CHCH2NHC2H2CH3CHC2H3CHCHCFeC3HCHCHFeCH2C3H2CH3C2HS2CNH2CH3FeCH2CHC5HC2H2CHSFeH6NFeS2FeS2FeSFeS3HSFeS2FeS2FeSFeS4FeS2FeSFeS3FeCSFeCHSFeS2HFeSCH5SCHCSC2NHCH3C2HSH2C2HC2H3C2H3C6H7CHSC2H2FeH2C5H2C6H4C6H4C6H3NC6H8CHFeCNFeHC3SC2HSCSH2CHC3HCH2SCHFeSCHCH4C3HCNC7H6C2SNFeHCHC3HCHCNC4H6NC6H3CHC2HNC5H2CH3C6H9C7SHC2H7FeHSHNCH4C2H2FeH2NHFeS2FeS2FeSFeS3FeS3FeSFeS4FeS2CFeSFeS2FeS2FeSFeS3H2C3H2SHS3H2CFeHCNHCFeHC3HC2HCH2C6H4CNC2HCHSC6H2C6H4C6H4FeH2C3H3FeC3HC2HC3HC3HC4HC4NC6H8FeH2C5H4SCHCHCHC2SH3SH2NH5C2HCHC2NCNHFeN2H7NC6H8CHC3H2FeHCHCHCHC3HC2SCHCHCH4CH2C2HCHCSCHCNH2C6HC2HC2SH2CSH3SFeS2FeS2FeSFeS3HSCH3FeHSHCHCHSFeS2FeS2FeSFeS3FeS2FeSFe2S3H3CHSH7CFeHC2H2C2H2CH2C6H4C6H5CH3CNH2CNH2C2HC2H3C6H4C6H4CHCHC8H2C5H3CH2NC2H2C2HNHCSHCHNC6HCH2C2HC2HCHSHCH3C2NH3CH2C2SC2HNC6H5CH2CSHCHCHCHSH2CNHSC3HNCH3C2H2CHC3HCHC6H2CH3CHC3H2CH2CHFeCHC3NCHFeSCFeS2FeHFeS3HSHSHFeSFeSH2FeHSHCS2HSHCFeS2FeS2FeSFeS3C6H3C6H5NHCHC2H5CHC2H2CHNHCHC2HC6H4C2FeCHC6H5CHCHNCSC2HCHCHC2HCHNH4SH2NC3NCH4C3HC3HCH4CHC2H2SCH3S2CHC2HSC3SCH4FeHC2SC3H4S2H2SH2CHC4H2CHCH4C2FeC2SNHSHC3H3CFeCNC5H5CHC4SH3FeCHCHCH2C3H2CFeS2CFeS2FeS2FeSFeHS3H2CS4CHNFeCHSC2FeSCNHCHFeS2FeS2FeSFeS3FeHSFeHSH2C2HS2H3CH4C6H4C6H3C4NSH5CHNCHCHCH2CHSC2HCH3C5H6C6H4CHC3H3SHC3NHC2H3C2HCHCFeCHSCFeSHFeHCHC4HC2SHC2NHCHCHCH3CHNFeH2CHC2HFeHC3NC2HC3SHNSCS2CH3CH2C2HCHC3HC2FeH2C2H3CHNCHC2H3CNFeSHC3H2CH3C5HCFeSHFeSFe2S2FeHFeS3FeS2FeCSH2FeS3FeS2CHFeH4FeS2FeSCH2FeS2FeS2FeSFeS3C6H3C7H4C2HC6HCH2C6H4SH5SC2NCHC9H4SC6H5C5HCHCHCSH3CSH4CHNCHC2H4C2H2CH2CH2NC2HCHCHC2H2SHNCSHSCH5C2N3Fe2NC4HCHC3H6CHSCH3C2HSCHC2S2HC4SC2H3NCH2C2H2CHCH4CSC2SFeSH4CH2CHCHC3H4CHFeS2FeS2Fe2S3FeSHFeS2FeSFeSH2CSFeSFeS2FeSFeS2CFeS2FeS2FeSFeS3C6H4CHCHC11H4C6H4C6H5CH3SC5H3C7H4C5H5C2H5CH2C2HCNHNHC2SHCH2NHC2HC2H3CSC2NSCHCS2H2C3HNC6H10NSC3SHFeHNH2CFeCH2CH2CHCH2C3HNC6H3C2H3NC6H8CHCHC4H2CH5NHCHNCHCHCH5SCH3C2H3SFeS2FeSFeSFeS2CFeS2FeS2FeSFeS3H3S2CHSH2CHCHFeSC2HCSHFeH2SHC6H4C6H4CHC7H4C6H6CNCH2C7H3CH3NCHC4NH3CNC2H4CHSCFeCHCHCHCNC6H8FeSNFeHSHNC6H8C2H2CH3CHSCSC2HC2H3FeCHSCHCHSCNC5H6FeC2HC3HSC4HCHCHNC5SHCHCFeCHC2H4NH4C2HCH3CH3SHCFeCHSHCH2SCFeHC2HNFeS2FeSNFeSFeS3HSC2HSFeS2CH2C2SHCH2CHCFeHCFeSFeS2FeS2FeS2FeSFeS3H2C3FeS2C2SCFeHFeHFeCSNHSCH2C4H2C6H4C6H4CHC6HC2HCHC3HFeHCHCHSHC4NHNHCNC6H4CHC6H4C2HSC6H2C3H3CSCSCHFeH2SHCH2FeCH2NC6H9SH6NHSH7C2H2CH2SH3C2H3SCHSHC2SCHC2H4CHCH3CS2CH2CH4SFeS2FeS2FeSFeS3FeS2FeSCFeSFeS5HC3HSFeS3HSFeSCFeSFeS2HFeS2FeS2FeHFeS3CH4C5H2C7H4SHNH2CN2HC5H2CH2C6H4CH2CHC5H3C6H4C6H4C6H5CSH6CH2CH2CNC6H8CHCFeHC2H2CH2SCHCHCH2CHCHCHSHCFeH2NHC2HC2H3C2HNC6H4C2HSNC6H8C2HSHSHCHCHC6HNH2NC2H3FeHFeCHCH2SHC2SH3C2HSHFeS2FeS2FeSFeS3FeS2FeS2FeSFeS3CSC2HSFeS2FeSCSH3SHFeSFeSHFeS2Fe2CFeS3H2CH6SHCH2C5H3NH3CFeC2NC3HCHFeHCFeSHC4H2C6H5C2H3C6H3C6H4C6H4C6H4CH4CHC2H5CHC4HSNC13H2CH2C2HCHCHNC2HCH3S2CHCH2SC2H5NCNH3SNH2CHC4HSH2CH2CHSCH2NC6H8C2NH2CFeC3H2CHC2HCHC3HCHNH4CH3C2HC3HC3HFeSCFeS2FeSFeHS2CHNH2CSFeSFeS2FeS2FeSFeS6HSH2NSH3C2H2SH2SCHCSCHCSH3C3HCH3C3H2C6H4NC5H2C4H2SCNCSHC2H2SHCH2CHC2H2FeC6H4C6H4FeH5CHCHCNH5CH2C2H3SH2C5HCFeH2NCFeHSFeC4FeC4HCNCHCHC2HC4H3CHC2H2CSCHCHCH2SC2HCNCHCHCH2CSC2NCHSHCHCH2FeHCHCFeS2FeS2HCFeS3CFeS2FeS2FeS2FeSFeNS2FeS2FeHFeS2CSH2SCSFeSFeSC2HFe2CHCHC2H2FeC3H2NCSCSC6H5CS2HC6H4C3H2SCH6SCH5C6H4C6H7SCFeHSCHCFeCH2CH5C3HFeH2CH2NHC3HC3H3CH2CHSCNC6H8SC2HCSHNHCHSCH2CNC4HCNHCHCH3SHCHFeCSHC4HSCHC2HCSHC2HFeCFeNC3H2C2SCH4CSNCNH2CH3CH2FeHC2HCHFeSHC2HC4HFe2S2HCFeSFeSCSFeS2FeS2FeSFeS3FeCSFeHSHSNS2FeS2FeS2FeSFeS3FeSFeS4HFeC7H3C6H5SCSHNHCH2C2H2C6H4C6H4C6H4C2HC6H4C6H4CHC3H3CFeC2FeCH2NHC2FeH3CNC6H9CH2C3NH5CHNC3HSC2H2C2H2C2H2C2NC3H6SHCH6CSHCHCFeH5CHFeSC2NHC2HC2SHCH2SC3HFeH2NCNC5HFeH3CHCHCHCHCHC2H2C4H5NCH2SCHC2SH2S2HCSFeS2FeS2Fe2S4FeS2FeS2FeSFeS3FeS2FeS2FeSFeS3FeHSH3CSHSC3FeSC2FeH2SCFe2HFeHC2H2C6H4C6H4C4H2C6H4C6H4C4H3CHC2H3FeC3SH2C6H4C2H3C7H2CFeH2NC6H8CSCSCNC6H8NC5H3CH5NHC2H3CHCH6S2CH2C2NC2SHSH5C2HC2SCHSH2CH3CHSC2HCHCNCHC3SH3CNC3SHC3HFeH2NHC2FeSHC4FeSH2C2H3SNHCFeSH2CHCFeHC2SCSHCHFeCH2FeS2H2FeSHSFeSCFeS2FeSFeS3C7H4C6H5NH2C2HSH4C3H3CH4FeHC2SHC12H4C3HC2H6C3H2CHCNH2CS2C2HCHC2NH4CH3CHCH2C7SNH2NH2C2H2SFeH2SHNCHFeHCFeH5CFeSH2SFeSFeS2FeS2FeS2FeSFeS2FeS3CSFeHSC2HS2HN2FeSHFeS2FeSFeS3CHFeS2CSFeSFeS2C7H4C4SCHC2HC6H2SCHC2H8C4HFeC6HSH3C6H4C3H2C6H4FeH3CHNCH2CHC2H3CHCSCH2CHCHC2NC6H11C2HCHCH4C2H2C2NSCHCH4NH2C4H2C4HCHCHSHC2FeCHNHNH3C2H2FeC2HCHCHCHSH3CH2C2HCHC3SC2HC
_chemical_formula_sum              "H2736 C2736 S912 N228 Fe456"
_cell_length_a       91.441
_cell_length_b       90.892
_cell_length_c       49.8908
_cell_angle_alpha    77.9562
_cell_angle_beta     78.2854
_cell_angle_gamma    101.774

_space_group_name_H-M_alt    "P 1"
_space_group_IT_number       1

loop_
  _space_group_symop_operation_xyz
  'x, y, z'

loop_
  _atom_site_type_symbol
  _atom_site_label
  _atom_site_symmetry_multiplicity
  _atom_site_fract_x
  _atom_site_fract_y
  _atom_site_fract_z
  _atom_site_occupancy
  H   H1        1.0  0.06267  0.02250  0.00941  1.0000
  H   H2        1.0  0.10561  0.31672  0.33294  1.0000
  C   C1        1.0  0.01707  0.27098  0.14740  1.0000
  H   H3        1.0  0.09843  0.21162  0.34179  1.0000
  H   H4        1.0  0.19709  0.07916  0.24650  1.0000
  H   H5        1.0  0.12885  0.16894  0.18432  1.0000
  H   H6        1.0  0.22246  0.02611  0.19541  1.0000
  S   S1        1.0  0.00960  0.29727  0.05888  1.0000
  C   C2        1.0  0.98888  0.16976  0.05017  1.0000
  H   H7        1.0  0.10447  0.22631  0.40424  1.0000
  N   N1        1.0  0.01815  0.25626  0.15861  1.0000
  Fe  Fe1       1.0  0.18937  0.21363  0.11717  1.0000
  S   S2        1.0  0.16413  0.20400  0.12025  1.0000
  S   S3        1.0  0.20293  0.23724  0.08787  1.0000
  Fe  Fe2       1.0  0.19131  0.18485  0.15865  1.0000
  S   S4        1.0  0.16620  0.17318  0.16584  1.0000
  S   S5        1.0  0.21045  0.17424  0.16988  1.0000
  Fe  Fe3       1.0  0.16986  0.18125  0.11854  1.0000
  S   S6        1.0  0.15939  0.16179  0.10011  1.0000
  Fe  Fe4       1.0  0.16213  0.19670  0.16701  1.0000
  S   S7        1.0  0.14010  0.19895  0.19449  1.0000
  S   S8        1.0  0.19531  0.19156  0.11121  1.0000
  S   S9        1.0  0.18701  0.20779  0.16404  1.0000
  Fe  Fe5       1.0  0.08321  0.25941  0.27643  1.0000
  S   S10       1.0  0.09368  0.24296  0.30248  1.0000
  S   S11       1.0  0.06051  0.25175  0.26299  1.0000
  Fe  Fe6       1.0  0.10677  0.28840  0.28168  1.0000
  S   S12       1.0  0.11866  0.27372  0.30704  1.0000
  S   S13       1.0  0.11316  0.31500  0.27253  1.0000
  Fe  Fe7       1.0  0.11660  0.25894  0.27617  1.0000
  S   S14       1.0  0.13844  0.25189  0.25937  1.0000
  Fe  Fe8       1.0  0.09492  0.25923  0.33116  1.0000
  S   S15       1.0  0.08742  0.25058  0.37964  1.0000
  S   S16       1.0  0.10634  0.27474  0.24861  1.0000
  S   S17       1.0  0.08282  0.27455  0.30731  1.0000
  S   S18       1.0  0.09587  0.12155  0.00699  1.0000
  H   H8        1.0  0.98571  0.15917  0.01589  1.0000
  C   C3        1.0  0.22541  0.06866  0.24761  1.0000
  Fe  Fe9       1.0  0.10525  0.10621  0.98115  1.0000
  Fe  Fe10      1.0  0.98773  0.18935  0.13624  1.0000
  S   S19       1.0  0.19746  0.02038  0.13384  1.0000
  H   H9        1.0  0.22377  0.13517  0.46217  1.0000
  H   H10       1.0  0.11203  0.18860  0.11445  1.0000
  S   S20       1.0  0.16534  0.01410  0.18129  1.0000
  S   S21       1.0  0.99400  0.18240  0.09427  1.0000
  Fe  Fe11      1.0  0.17240  0.00871  0.13897  1.0000
  S   S22       1.0  0.16106  0.01475  0.10221  1.0000
  Fe  Fe12      1.0  0.19079  0.02384  0.17793  1.0000
  S   S23       1.0  0.20334  0.04775  0.18280  1.0000
  C   C4        1.0  0.00871  0.12391  0.05562  1.0000
  S   S24       1.0  0.19360  0.00059  0.19938  1.0000
  C   C5        1.0  0.11366  0.23096  0.38480  1.0000
  C   C6        1.0  0.21547  0.12561  0.45808  1.0000
  H   H11       1.0  0.99806  0.21522  0.05875  1.0000
  H   H12       1.0  0.98555  0.25876  0.04383  1.0000
  C   C7        1.0  0.20157  0.11782  0.22687  1.0000
  H   H13       1.0  0.12799  0.24558  0.40355  1.0000
  C   C8        1.0  0.21519  0.11608  0.38868  1.0000
  Fe  Fe13      1.0  0.00244  0.20318  0.18069  1.0000
  H   H14       1.0  0.22024  0.10440  0.26153  1.0000
  S   S25       1.0  0.02632  0.21157  0.18975  1.0000
  C   C9        1.0  0.99343  0.23787  0.04887  1.0000
  C   C10       1.0  0.22796  0.15365  0.23177  1.0000
  C   C11       1.0  0.12320  0.23316  0.33578  1.0000
  H   H15       1.0  0.11935  0.19013  0.15924  1.0000
  S   S26       1.0  0.00005  0.21344  0.13699  1.0000
  C   C12       1.0  0.19232  0.09137  0.20885  1.0000
  H   H16       1.0  0.00067  0.17622  0.03943  1.0000
  H   H17       1.0  0.20351  0.12560  0.46842  1.0000
  C   C13       1.0  0.22724  0.07761  0.22004  1.0000
  C   C14       1.0  0.13880  0.32105  0.29458  1.0000
  C   C15       1.0  0.13660  0.24419  0.33470  1.0000
  C   C16       1.0  0.22059  0.24552  0.12384  1.0000
  C   C17       1.0  0.15055  0.00371  0.08318  1.0000
  C   C18       1.0  0.11600  0.17921  0.12551  1.0000
  C   C19       1.0  0.12647  0.15550  0.15386  1.0000
  C   C20       1.0  0.08171  0.01103  0.03532  1.0000
  C   C21       1.0  0.13735  0.00340  0.04479  1.0000
  C   C22       1.0  0.14604  0.01162  0.06002  1.0000
  C   C23       1.0  0.19239  0.10588  0.19247  1.0000
  H   H18       1.0  0.18905  0.08092  0.20180  1.0000
  H   H19       1.0  0.14926  0.02421  0.05381  1.0000
  C   C24       1.0  0.21202  0.05525  0.20815  1.0000
  C   C25       1.0  0.21044  0.04623  0.23553  1.0000
  H   H20       1.0  0.21273  0.23577  0.14017  1.0000
  H   H21       1.0  0.20528  0.12822  0.23362  1.0000
  S   S27       1.0  0.13155  0.16080  0.99276  1.0000
  C   C26       1.0  0.22057  0.07097  0.20059  1.0000
  H   H22       1.0  0.20392  0.03416  0.24193  1.0000
  C   C27       1.0  0.10811  0.31047  0.41063  1.0000
  C   C28       1.0  0.99223  0.10902  0.03322  1.0000
  C   C29       1.0  0.22577  0.16053  0.20539  1.0000
  H   H23       1.0  0.00459  0.24349  0.03397  1.0000
  C   C30       1.0  0.09679  0.30046  0.40309  1.0000
  C   C31       1.0  0.23310  0.25476  0.13007  1.0000
  H   H24       1.0  0.06553  0.04036  0.01949  1.0000
  C   C32       1.0  0.00609  0.24583  0.17908  1.0000
  C   C33       1.0  0.00354  0.27548  0.15644  1.0000
  H   H25       1.0  0.00631  0.14977  0.07600  1.0000
  H   H26       1.0  0.21082  0.10295  0.43178  1.0000
  S   S28       1.0  0.21888  0.14276  0.29017  1.0000
  C   C34       1.0  0.05126  0.24026  0.24272  1.0000
  C   C35       1.0  0.05924  0.23314  0.22426  1.0000
  C   C36       1.0  0.05141  0.22443  0.20851  1.0000
  C   C37       1.0  0.03542  0.22248  0.21098  1.0000
  C   C38       1.0  0.02743  0.22953  0.22954  1.0000
  C   C39       1.0  0.03530  0.23839  0.24505  1.0000
  H   H27       1.0  0.07147  0.23438  0.22206  1.0000
  H   H28       1.0  0.05780  0.21908  0.19434  1.0000
  H   H29       1.0  0.01514  0.22807  0.23227  1.0000
  H   H30       1.0  0.02890  0.24371  0.25928  1.0000
  C   C40       1.0  0.09586  0.25825  0.40466  1.0000
  C   C41       1.0  0.10980  0.26980  0.39636  1.0000
  C   C42       1.0  0.11604  0.27557  0.41693  1.0000
  C   C43       1.0  0.08841  0.25242  0.43375  1.0000
  H   H31       1.0  0.11576  0.27435  0.37412  1.0000
  H   H32       1.0  0.12674  0.28465  0.41022  1.0000
  H   H33       1.0  0.07764  0.24344  0.44047  1.0000
  C   C44       1.0  0.15204  0.16192  0.06974  1.0000
  C   C45       1.0  0.14513  0.14760  0.06535  1.0000
  C   C46       1.0  0.13868  0.14702  0.04209  1.0000
  C   C47       1.0  0.13923  0.16079  0.02273  1.0000
  C   C48       1.0  0.14623  0.17513  0.02700  1.0000
  C   C49       1.0  0.15252  0.17572  0.05047  1.0000
  H   H34       1.0  0.14477  0.13685  0.08004  1.0000
  H   H35       1.0  0.13342  0.13591  0.03899  1.0000
  H   H36       1.0  0.14674  0.18586  0.01211  1.0000
  H   H37       1.0  0.15781  0.18681  0.05355  1.0000
  C   C50       1.0  0.21258  0.16596  0.20374  1.0000
  C   C51       1.0  0.20156  0.16452  0.22872  1.0000
  C   C52       1.0  0.20374  0.15762  0.25516  1.0000
  C   C53       1.0  0.21691  0.15210  0.25677  1.0000
  C   C54       1.0  0.21835  0.24889  0.09657  1.0000
  H   H38       1.0  0.20253  0.09099  0.28343  1.0000
  H   H39       1.0  0.19136  0.16868  0.22769  1.0000
  H   H40       1.0  0.19514  0.15646  0.27444  1.0000
  N   N2        1.0  0.09598  0.30278  0.37548  1.0000
  C   C55       1.0  0.11853  0.32300  0.38975  1.0000
  C   C56       1.0  0.13981  0.21293  0.21426  1.0000
  C   C57       1.0  0.15344  0.22208  0.21696  1.0000
  C   C58       1.0  0.15277  0.23356  0.23188  1.0000
  C   C59       1.0  0.13853  0.23619  0.24371  1.0000
  C   C60       1.0  0.12488  0.22683  0.24153  1.0000
  C   C61       1.0  0.12554  0.21519  0.22696  1.0000
  H   H41       1.0  0.16448  0.22034  0.20750  1.0000
  H   H42       1.0  0.16337  0.24068  0.23370  1.0000
  H   H43       1.0  0.11384  0.22872  0.25064  1.0000
  H   H44       1.0  0.11493  0.20808  0.22512  1.0000
  Fe  Fe14      1.0  0.19903  0.99684  0.15580  1.0000
  H   H45       1.0  0.02653  0.27926  0.13098  1.0000
  H   H46       1.0  0.22659  0.21891  0.08260  1.0000
  H   H47       1.0  0.22742  0.20156  0.12704  1.0000
  C   C62       1.0  0.21909  0.01548  0.05076  1.0000
  H   H48       1.0  0.05356  0.02261  0.04512  1.0000
  H   H49       1.0  0.21309  0.10580  0.38074  1.0000
  C   C63       1.0  0.09852  0.03209  0.05785  1.0000
  N   N3        1.0  0.99628  0.12788  0.06989  1.0000
  C   C64       1.0  0.99798  0.28066  0.08512  1.0000
  C   C65       1.0  0.09458  0.25831  0.45431  1.0000
  H   H50       1.0  0.02967  0.23991  0.14539  1.0000
  C   C66       1.0  0.00322  0.26711  0.08926  1.0000
  C   C67       1.0  0.20752  0.10259  0.26796  1.0000
  H   H51       1.0  0.07926  0.29767  0.35229  1.0000
  H   H52       1.0  0.19722  0.13062  0.18896  1.0000
  H   H53       1.0  0.01436  0.26716  0.07665  1.0000
  H   H54       1.0  0.01670  0.11107  0.02621  1.0000
  H   H55       1.0  0.13404  0.00968  0.02704  1.0000
  C   C68       1.0  0.19699  0.11921  0.20155  1.0000
  C   C69       1.0  0.10837  0.27006  0.44600  1.0000
  H   H56       1.0  0.09102  0.28408  0.35696  1.0000
  H   H57       1.0  0.03325  0.14354  0.98497  1.0000
  H   H58       1.0  0.11973  0.05483  0.99921  1.0000
  C   C70       1.0  0.06415  0.02764  0.02739  1.0000
  C   C71       1.0  0.12009  0.18015  0.15078  1.0000
  H   H59       1.0  0.07529  0.00283  0.02624  1.0000
  H   H60       1.0  0.00252  0.28698  0.14685  1.0000
  H   H61       1.0  0.00700  0.23419  0.18794  1.0000
  C   C72       1.0  0.12539  0.16822  0.16495  1.0000
  N   N4        1.0  0.07766  0.02458  0.03688  1.0000
  H   H62       1.0  0.09493  0.20520  0.37965  1.0000
  H   H63       1.0  0.13108  0.14642  0.16417  1.0000
  H   H64       1.0  0.20490  0.11156  0.27900  1.0000
  H   H65       1.0  0.13749  0.30861  0.30023  1.0000
  Fe  Fe15      1.0  0.00247  0.31991  0.05457  1.0000
  H   H66       1.0  0.03870  0.25103  0.16633  1.0000
  N   N5        1.0  0.14940  0.25290  0.16913  1.0000
  C   C73       1.0  0.16035  0.26261  0.17694  1.0000
  C   C74       1.0  0.15367  0.24378  0.15186  1.0000
  C   C75       1.0  0.17603  0.26324  0.16764  1.0000
  C   C76       1.0  0.16926  0.24423  0.14198  1.0000
  C   C77       1.0  0.18048  0.25403  0.14994  1.0000
  C   C78       1.0  0.13309  0.25290  0.17799  1.0000
  H   H67       1.0  0.15694  0.26968  0.19098  1.0000
  H   H68       1.0  0.14500  0.23596  0.14589  1.0000
  H   H69       1.0  0.18467  0.27077  0.17419  1.0000
  H   H70       1.0  0.17267  0.23705  0.12821  1.0000
  H   H71       1.0  0.19260  0.25445  0.14235  1.0000
  H   H72       1.0  0.12543  0.24107  0.18185  1.0000
  H   H73       1.0  0.13052  0.25637  0.19822  1.0000
  H   H74       1.0  0.13015  0.26114  0.16140  1.0000
  S   S29       1.0  0.11599  0.27915  0.47038  1.0000
  H   H75       1.0  0.18475  0.02096  0.04731  1.0000
  N   N6        1.0  0.20148  0.10358  0.24278  1.0000
  H   H76       1.0  0.02019  0.12832  0.05806  1.0000
  H   H77       1.0  0.14860  0.25740  0.35853  1.0000
  H   H78       1.0  0.08788  0.22125  0.36403  1.0000
  C   C79       1.0  0.99239  0.24993  0.18857  1.0000
  H   H79       1.0  0.14536  0.24945  0.31478  1.0000
  C   C80       1.0  0.98980  0.22208  0.06275  1.0000
  N   N7        1.0  0.21731  0.12742  0.42758  1.0000
  C   C81       1.0  0.09763  0.21562  0.36151  1.0000
  C   C82       1.0  0.19690  0.09044  0.23414  1.0000
  H   H80       1.0  0.12182  0.23002  0.31643  1.0000
  C   C83       1.0  0.22309  0.14396  0.38034  1.0000
  C   C84       1.0  0.22622  0.00359  0.05848  1.0000
  N   N8        1.0  0.11711  0.16669  0.11476  1.0000
  C   C85       1.0  0.12214  0.15486  0.12871  1.0000
  C   C86       1.0  0.11277  0.16609  0.08819  1.0000
  H   H81       1.0  0.12342  0.14509  0.11994  1.0000
  H   H82       1.0  0.10029  0.16555  0.09094  1.0000
  H   H83       1.0  0.11972  0.17656  0.07101  1.0000
  H   H84       1.0  0.11495  0.15577  0.08097  1.0000
  H   H85       1.0  0.21791  0.11458  0.46822  1.0000
  C   C87       1.0  0.11046  0.05408  0.98867  1.0000
  N   N9        1.0  0.11195  0.22670  0.36066  1.0000
  C   C88       1.0  0.13841  0.24863  0.35921  1.0000
  H   H86       1.0  0.20331  0.03452  0.03228  1.0000
  C   C89       1.0  0.12691  0.24195  0.38448  1.0000
  H   H87       1.0  0.08903  0.29050  0.41935  1.0000
  C   C90       1.0  0.19447  0.99876  0.07650  1.0000
  H   H88       1.0  0.22200  0.07812  0.17950  1.0000
  C   C91       1.0  0.10281  0.01836  0.05615  1.0000
  C   C92       1.0  0.08489  0.29158  0.36735  1.0000
  S   S30       1.0  0.99206  0.17872  0.17813  1.0000
  H   H89       1.0  0.08273  0.04585  0.04906  1.0000
  H   H90       1.0  0.04014  0.25985  0.12954  1.0000
  C   C93       1.0  0.99864  0.13819  0.08855  1.0000
  H   H91       1.0  0.00395  0.13309  0.10517  1.0000
  H   H92       1.0  0.11088  0.03114  0.98328  1.0000
  C   C94       1.0  0.21706  0.05289  0.25499  1.0000
  C   C95       1.0  0.10335  0.06642  0.98460  1.0000
  H   H93       1.0  0.22435  0.15223  0.41732  1.0000
  H   H94       1.0  0.10517  0.04057  0.06615  1.0000
  H   H95       1.0  0.99812  0.24306  0.11202  1.0000
  C   C96       1.0  0.10616  0.31501  0.35488  1.0000
  C   C97       1.0  0.09440  0.00775  0.04479  1.0000
  C   C98       1.0  0.23338  0.02482  0.18403  1.0000
  C   C99       1.0  0.00683  0.11423  0.03746  1.0000
  C   C100      1.0  0.99113  0.26485  0.17713  1.0000
  C   C101      1.0  0.08578  0.03499  0.04821  1.0000
  C   C102      1.0  0.21397  0.11454  0.41759  1.0000
  C   C103      1.0  0.21980  0.13088  0.36999  1.0000
  H   H96       1.0  0.10902  0.30823  0.43244  1.0000
  H   H97       1.0  0.99073  0.10199  0.01832  1.0000
  H   H98       1.0  0.18900  0.10680  0.17268  1.0000
  S   S31       1.0  0.10907  0.08243  0.99840  1.0000
  C   C104      1.0  0.22873  0.26162  0.07562  1.0000
  H   H99       1.0  0.22772  0.99995  0.20137  1.0000
  C   C105      1.0  0.99405  0.25344  0.10939  1.0000
  N   N10       1.0  0.20337  0.01288  0.05938  1.0000
  C   C106      1.0  0.03241  0.25163  0.14942  1.0000
  H   H100      1.0  0.11268  0.01598  0.06351  1.0000
  H   H101      1.0  0.22098  0.13222  0.34746  1.0000
  H   H102      1.0  0.22704  0.26433  0.05447  1.0000
  H   H103      1.0  0.09777  0.99710  0.04312  1.0000
  H   H104      1.0  0.19388  0.03105  0.06945  1.0000
  C   C107      1.0  0.19604  0.02551  0.05165  1.0000
  H   H105      1.0  0.18207  0.99683  0.08402  1.0000
  H   H106      1.0  0.07566  0.28384  0.38598  1.0000
  H   H107      1.0  0.98761  0.14021  0.09935  1.0000
  S   S32       1.0  0.23282  0.07650  0.27390  1.0000
  H   H108      1.0  0.22867  0.01926  0.11592  1.0000
  C   C108      1.0  0.22169  0.14202  0.40942  1.0000
  H   H109      1.0  0.21556  0.04576  0.27614  1.0000
  H   H110      1.0  0.22624  0.02682  0.03806  1.0000
  S   S33       1.0  0.22864  0.10521  0.31982  1.0000
  H   H111      1.0  0.22682  0.15550  0.36580  1.0000
  H   H112      1.0  0.08851  0.25395  0.47653  1.0000
  Fe  Fe16      1.0  0.11699  0.14056  0.98116  1.0000
  S   S34       1.0  0.06163  0.13454  0.98043  1.0000
  H   H113      1.0  0.23369  0.08970  0.21376  1.0000
  H   H114      1.0  0.13887  0.30437  0.61179  1.0000
  C   C109      1.0  0.04476  0.12717  0.97013  1.0000
  C   C110      1.0  0.17626  0.18214  0.88899  1.0000
  C   C111      1.0  0.12342  0.20636  0.68062  1.0000
  H   H115      1.0  0.22608  0.26473  0.83607  1.0000
  H   H116      1.0  0.99851  0.12784  0.88805  1.0000
  H   H117      1.0  0.00781  0.31204  0.88407  1.0000
  C   C112      1.0  0.19793  0.24336  0.80019  1.0000
  C   C113      1.0  0.11123  0.22025  0.61449  1.0000
  H   H118      1.0  0.11411  0.05040  0.87149  1.0000
  H   H119      1.0  0.15988  0.30581  0.54051  1.0000
  H   H120      1.0  0.04363  0.26943  0.64332  1.0000
  N   N11       1.0  0.11392  0.06452  0.90049  1.0000
  N   N12       1.0  0.20487  0.25892  0.78916  1.0000
  C   C114      1.0  0.10791  0.07648  0.89017  1.0000
  C   C115      1.0  0.01688  0.11556  0.95617  1.0000
  C   C116      1.0  0.09146  0.06540  0.97081  1.0000
  C   C117      1.0  0.16298  0.28930  0.57517  1.0000
  Fe  Fe17      1.0  0.20983  0.23211  0.72124  1.0000
  S   S35       1.0  0.18478  0.22913  0.74037  1.0000
  C   C118      1.0  0.01147  0.16284  0.89590  1.0000
  Fe  Fe18      1.0  0.20368  0.19976  0.71096  1.0000
  S   S36       1.0  0.17787  0.19418  0.73029  1.0000
  Fe  Fe19      1.0  0.08497  0.12861  0.97108  1.0000
  Fe  Fe20      1.0  0.17993  0.21868  0.70517  1.0000
  S   S37       1.0  0.15989  0.22683  0.69158  1.0000
  Fe  Fe21      1.0  0.18434  0.20521  0.76408  1.0000
  S   S38       1.0  0.17330  0.19975  0.81141  1.0000
  S   S39       1.0  0.20531  0.22357  0.68364  1.0000
  S   S40       1.0  0.20986  0.20889  0.74713  1.0000
  Fe  Fe22      1.0  0.11435  0.13144  0.92603  1.0000
  H   H121      1.0  0.20204  0.99489  0.81765  1.0000
  S   S41       1.0  0.12659  0.13471  0.88016  1.0000
  H   H122      1.0  0.09957  0.07481  0.87770  1.0000
  H   H123      1.0  0.00190  0.16759  0.89187  1.0000
  H   H124      1.0  0.09233  0.23075  0.61101  1.0000
  C   C119      1.0  0.11931  0.21393  0.63300  1.0000
  S   S42       1.0  0.09289  0.11189  0.94727  1.0000
  C   C120      1.0  0.20113  0.23498  0.82422  1.0000
  C   C121      1.0  0.14305  0.31690  0.60676  1.0000
  H   H125      1.0  0.21486  0.07770  0.60272  1.0000
  C   C122      1.0  0.02231  0.17099  0.90729  1.0000
  H   H126      1.0  0.14820  0.18434  0.93546  1.0000
  C   C123      1.0  0.10913  0.04947  0.89420  1.0000
  Fe  Fe23      1.0  0.18279  0.99999  0.68590  1.0000
  S   S43       1.0  0.18640  0.02425  0.65680  1.0000
  H   H127      1.0  0.02843  0.09929  0.94107  1.0000
  C   C124      1.0  0.16538  0.30428  0.55789  1.0000
  C   C125      1.0  0.09470  0.22542  0.65375  1.0000
  C   C126      1.0  0.20273  0.05389  0.62572  1.0000
  Fe  Fe24      1.0  0.09563  0.00127  0.96138  1.0000
  S   S44       1.0  0.08550  0.02228  0.95759  1.0000
  H   H128      1.0  0.15588  0.27935  0.57102  1.0000
  C   C127      1.0  0.21977  0.07455  0.68407  1.0000
  H   H129      1.0  0.13493  0.20567  0.66910  1.0000
  C   C128      1.0  0.22027  0.08950  0.66881  1.0000
  C   C129      1.0  0.21456  0.26664  0.80221  1.0000
  H   H130      1.0  0.04551  0.14615  0.91044  1.0000
  N   N13       1.0  0.20741  0.09272  0.66148  1.0000
  H   H131      1.0  0.22420  0.00130  0.72786  1.0000
  S   S45       1.0  0.00431  0.21280  0.63037  1.0000
  H   H132      1.0  0.04308  0.17107  0.92160  1.0000
  Fe  Fe25      1.0  0.09405  0.26278  0.58198  1.0000
  S   S46       1.0  0.10614  0.25073  0.55228  1.0000
  S   S47       1.0  0.07288  0.25143  0.61977  1.0000
  Fe  Fe26      1.0  0.12057  0.29274  0.56123  1.0000
  S   S48       1.0  0.13423  0.28269  0.53040  1.0000
  C   C130      1.0  0.11235  0.09100  0.89569  1.0000
  Fe  Fe27      1.0  0.11209  0.27365  0.51898  1.0000
  C   C131      1.0  0.21562  0.06697  0.61595  1.0000
  Fe  Fe28      1.0  0.12733  0.26078  0.56557  1.0000
  S   S49       1.0  0.14538  0.24751  0.57242  1.0000
  S   S50       1.0  0.09863  0.28517  0.54796  1.0000
  S   S51       1.0  0.11514  0.27136  0.59718  1.0000
  S   S52       1.0  0.13933  0.99270  0.89269  1.0000
  H   H133      1.0  0.09631  0.04554  0.89920  1.0000
  H   H134      1.0  0.15039  0.15447  0.94260  1.0000
  C   C132      1.0  0.17364  0.15715  0.87845  1.0000
  H   H135      1.0  0.00478  0.31298  0.93424  1.0000
  H   H136      1.0  0.13704  0.08250  0.93550  1.0000
  C   C133      1.0  0.21735  0.17264  0.67329  1.0000
  H   H137      1.0  0.17626  0.15016  0.86383  1.0000
  C   C134      1.0  0.02357  0.22275  0.62805  1.0000
  C   C135      1.0  0.02848  0.22501  0.65201  1.0000
  C   C136      1.0  0.04374  0.23348  0.64904  1.0000
  C   C137      1.0  0.05420  0.23995  0.62214  1.0000
  C   C138      1.0  0.04934  0.23757  0.59820  1.0000
  C   C139      1.0  0.03413  0.22896  0.60119  1.0000
  H   H138      1.0  0.02052  0.22027  0.67280  1.0000
  H   H139      1.0  0.04736  0.23523  0.66773  1.0000
  H   H140      1.0  0.05725  0.24243  0.57737  1.0000
  H   H141      1.0  0.03047  0.22720  0.58253  1.0000
  H   H142      1.0  0.18846  0.17859  0.84991  1.0000
  C   C140      1.0  0.00670  0.25382  0.68366  1.0000
  H   H143      1.0  0.10761  0.10054  0.88755  1.0000
  C   C141      1.0  0.02491  0.14309  0.89511  1.0000
  S   S53       1.0  0.10557  0.14861  0.94680  1.0000
  H   H144      1.0  0.12912  0.20979  0.62447  1.0000
  H   H145      1.0  0.20878  0.10836  0.62247  1.0000
  C   C142      1.0  0.01253  0.32261  0.91730  1.0000
  C   C143      1.0  0.17883  0.30016  0.60304  1.0000
  H   H146      1.0  0.16140  0.99584  0.79285  1.0000
  H   H147      1.0  0.16106  0.00324  0.83819  1.0000
  C   C144      1.0  0.04335  0.11476  0.95753  1.0000
  H   H148      1.0  0.19006  0.23721  0.79024  1.0000
  C   C145      1.0  0.08636  0.05192  0.96210  1.0000
  N   N14       1.0  0.01276  0.14896  0.89036  1.0000
  H   H149      1.0  0.21832  0.11720  0.64555  1.0000
  C   C146      1.0  0.18052  0.17311  0.87068  1.0000
  H   H150      1.0  0.22980  0.23352  0.76653  1.0000
  H   H151      1.0  0.21210  0.27634  0.74988  1.0000
  H   H152      1.0  0.02106  0.18183  0.91215  1.0000
  H   H153      1.0  0.16797  0.27566  0.61140  1.0000
  C   C147      1.0  0.15891  0.18218  0.82843  1.0000
  C   C148      1.0  0.14917  0.18073  0.85506  1.0000
  C   C149      1.0  0.13893  0.16633  0.87082  1.0000
  C   C150      1.0  0.13831  0.15327  0.85998  1.0000
  C   C151      1.0  0.14770  0.15484  0.83297  1.0000
  C   C152      1.0  0.15797  0.16924  0.81722  1.0000
  H   H154      1.0  0.14976  0.19072  0.86377  1.0000
  H   H155      1.0  0.13166  0.16529  0.89149  1.0000
  H   H156      1.0  0.14723  0.14482  0.82438  1.0000
  H   H157      1.0  0.16544  0.17023  0.79676  1.0000
  C   C153      1.0  0.15067  0.24350  0.60483  1.0000
  C   C154      1.0  0.16224  0.23558  0.60715  1.0000
  C   C155      1.0  0.16589  0.23113  0.63328  1.0000
  C   C156      1.0  0.15791  0.23451  0.65730  1.0000
  C   C157      1.0  0.14664  0.24281  0.65474  1.0000
  C   C158      1.0  0.14307  0.24734  0.62863  1.0000
  H   H158      1.0  0.16817  0.23256  0.58880  1.0000
  H   H159      1.0  0.17448  0.22461  0.63505  1.0000
  H   H160      1.0  0.14035  0.24539  0.67328  1.0000
  H   H161      1.0  0.13410  0.25337  0.62718  1.0000
  H   H162      1.0  0.15708  0.13804  0.91038  1.0000
  H   H163      1.0  0.98751  0.24494  0.66786  1.0000
  H   H164      1.0  0.16216  0.18030  0.95481  1.0000
  C   C159      1.0  0.16976  0.28724  0.59786  1.0000
  C   C160      1.0  0.09879  0.22592  0.62504  1.0000
  C   C161      1.0  0.21722  0.03899  0.65067  1.0000
  C   C162      1.0  0.20339  0.03989  0.64337  1.0000
  C   C163      1.0  0.03124  0.26432  0.64883  1.0000
  H   H165      1.0  0.21419  0.23635  0.85554  1.0000
  H   H166      1.0  0.16733  0.19726  0.92530  1.0000
  H   H167      1.0  0.21793  0.02830  0.66412  1.0000
  H   H168      1.0  0.20000  0.16705  0.62061  1.0000
  C   C164      1.0  0.22761  0.16317  0.66955  1.0000
  H   H169      1.0  0.05289  0.10950  0.95340  1.0000
  S   S54       1.0  0.12049  0.00255  0.96016  1.0000
  C   C165      1.0  0.20151  0.26756  0.76383  1.0000
  C   C166      1.0  0.03608  0.15104  0.90609  1.0000
  C   C167      1.0  0.20734  0.17392  0.65567  1.0000
  C   C168      1.0  0.20773  0.16593  0.63427  1.0000
  H   H170      1.0  0.19231  0.27341  0.76998  1.0000
  C   C169      1.0  0.12452  0.06667  0.91608  1.0000
  H   H171      1.0  0.19941  0.18118  0.65832  1.0000
  H   H172      1.0  0.20575  0.05096  0.70201  1.0000
  H   H173      1.0  0.18404  0.29871  0.62079  1.0000
  H   H174      1.0  0.00621  0.14292  0.85489  1.0000
  C   C170      1.0  0.19400  0.08120  0.66825  1.0000
  S   S55       1.0  0.21849  0.18358  0.69863  1.0000
  S   S56       1.0  0.13000  0.31818  0.56076  1.0000
  H   H175      1.0  0.12921  0.05718  0.92447  1.0000
  C   C171      1.0  0.22938  0.06613  0.62359  1.0000
  C   C172      1.0  0.09320  0.03942  0.96682  1.0000
  C   C173      1.0  0.20811  0.10833  0.64495  1.0000
  C   C174      1.0  0.00147  0.14060  0.87813  1.0000
  C   C175      1.0  0.03466  0.16500  0.91246  1.0000
  H   H176      1.0  0.23016  0.07191  0.68884  1.0000
  C   C176      1.0  0.22817  0.15538  0.64788  1.0000
  H   H177      1.0  0.99055  0.14430  0.88186  1.0000
  H   H178      1.0  0.08589  0.07482  0.96759  1.0000
  H   H179      1.0  0.15489  0.31648  0.64011  1.0000
  C   C177      1.0  0.15111  0.99512  0.83634  1.0000
  C   C178      1.0  0.10307  0.21908  0.67167  1.0000
  C   C179      1.0  0.21121  0.24272  0.83737  1.0000
  H   H180      1.0  0.18268  0.05679  0.68778  1.0000
  H   H181      1.0  0.07686  0.05105  0.95213  1.0000
  H   H182      1.0  0.11651  0.19444  0.69274  1.0000
  H   H183      1.0  0.18398  0.08359  0.66148  1.0000
  H   H184      1.0  0.12568  0.21348  0.69569  1.0000
  C   C180      1.0  0.12294  0.09319  0.91195  1.0000
  H   H185      1.0  0.11287  0.04015  0.90730  1.0000
  C   C181      1.0  0.15898  0.15971  0.92250  1.0000
  H   H186      1.0  0.23117  0.09835  0.66211  1.0000
  S   S57       1.0  0.98439  0.20926  0.71205  1.0000
  C   C182      1.0  0.16284  0.15036  0.90456  1.0000
  C   C183      1.0  0.02251  0.26082  0.67683  1.0000
  H   H187      1.0  0.08511  0.23000  0.66188  1.0000
  S   S58       1.0  0.99968  0.10795  0.94699  1.0000
  C   C184      1.0  0.21828  0.15682  0.63004  1.0000
  H   H188      1.0  0.09982  0.21871  0.69399  1.0000
  H   H189      1.0  0.99074  0.24004  0.62173  1.0000
  H   H190      1.0  0.19210  0.05468  0.61985  1.0000
  H   H191      1.0  0.98649  0.24703  0.79114  1.0000
  C   C185      1.0  0.23014  0.05203  0.64077  1.0000
  N   N15       1.0  0.11522  0.21347  0.66119  1.0000
  C   C186      1.0  0.16067  0.18488  0.93330  1.0000
  S   S59       1.0  0.21892  0.14775  0.60185  1.0000
  H   H192      1.0  0.99979  0.25103  0.70534  1.0000
  C   C187      1.0  0.02946  0.10898  0.95062  1.0000
  H   H193      1.0  0.00886  0.13339  0.97258  1.0000
  S   S60       1.0  0.99906  0.31434  0.82668  1.0000
  H   H194      1.0  0.19596  0.22254  0.83212  1.0000
  C   C188      1.0  0.02399  0.26063  0.62806  1.0000
  C   C189      1.0  0.19312  0.06608  0.68333  1.0000
  C   C190      1.0  0.20610  0.06278  0.69134  1.0000
  N   N16       1.0  0.00851  0.25357  0.63504  1.0000
  H   H195      1.0  0.02798  0.26343  0.69325  1.0000
  H   H196      1.0  0.19773  0.11217  0.65344  1.0000
  S   S61       1.0  0.18312  0.99635  0.73199  1.0000
  H   H197      1.0  0.11479  0.22102  0.59200  1.0000
  S   S62       1.0  0.22665  0.25514  0.71719  1.0000
  H   H198      1.0  0.12631  0.10433  0.91665  1.0000
  C   C191      1.0  0.12908  0.08099  0.92224  1.0000
  S   S63       1.0  0.98902  0.27819  0.79620  1.0000
  H   H199      1.0  0.02580  0.13198  0.89105  1.0000
  H   H200      1.0  0.03093  0.26304  0.60648  1.0000
  C   C192      1.0  0.99982  0.25034  0.66235  1.0000
  N   N17       1.0  0.16559  0.17538  0.91453  1.0000
  S   S64       1.0  0.12720  0.12471  0.95834  1.0000
  H   H201      1.0  0.18115  0.19462  0.88213  1.0000
  C   C193      1.0  0.01837  0.12812  0.96839  1.0000
  Fe  Fe29      1.0  0.98581  0.30178  0.80108  1.0000
  H   H202      1.0  0.22025  0.27892  0.79327  1.0000
  C   C194      1.0  0.18103  0.31499  0.58526  1.0000
  C   C195      1.0  0.01425  0.32208  0.88911  1.0000
  H   H203      1.0  0.00900  0.24671  0.59659  1.0000
  C   C196      1.0  0.21784  0.25868  0.82654  1.0000
  H   H204      1.0  0.99754  0.26042  0.60265  1.0000
  S   S65       1.0  0.23170  0.11673  0.56624  1.0000
  C   C197      1.0  0.03224  0.13388  0.97534  1.0000
  C   C198      1.0  0.00108  0.25013  0.61285  1.0000
  H   H205      1.0  0.19777  0.25974  0.75072  1.0000
  C   C199      1.0  0.15217  0.32381  0.62274  1.0000
  C   C200      1.0  0.23074  0.99621  0.74135  1.0000
  N   N18       1.0  0.17423  0.31689  0.56317  1.0000
  S   S66       1.0  0.98986  0.32353  0.76670  1.0000
  C   C201      1.0  0.10548  0.04067  0.97964  1.0000
  Fe  Fe30      1.0  0.17488  0.38609  0.29096  1.0000
  S   S67       1.0  0.17470  0.40062  0.24884  1.0000
  S   S68       1.0  0.16805  0.35943  0.30231  1.0000
  Fe  Fe31      1.0  0.18977  0.41522  0.30924  1.0000
  S   S69       1.0  0.19005  0.43157  0.26863  1.0000
  S   S70       1.0  0.20039  0.42262  0.34371  1.0000
  Fe  Fe32      1.0  0.16629  0.41660  0.27353  1.0000
  S   S71       1.0  0.14611  0.42679  0.26811  1.0000
  Fe  Fe33      1.0  0.19845  0.41411  0.24780  1.0000
  S   S72       1.0  0.21798  0.42267  0.20777  1.0000
  S   S73       1.0  0.16517  0.40135  0.31622  1.0000
  S   S74       1.0  0.19947  0.39846  0.28801  1.0000
  H   H206      1.0  0.11291  0.39590  0.15340  1.0000
  N   N19       1.0  0.00035  0.54087  0.25845  1.0000
  S   S75       1.0  0.21178  0.52605  0.45692  1.0000
  S   S76       1.0  0.16958  0.64698  0.41595  1.0000
  C   C202      1.0  0.99143  0.53204  0.24566  1.0000
  S   S77       1.0  0.22222  0.48968  0.43503  1.0000
  N   N20       1.0  0.06608  0.42871  0.02851  1.0000
  Fe  Fe34      1.0  0.03787  0.52681  0.28060  1.0000
  S   S78       1.0  0.05009  0.53756  0.23475  1.0000
  S   S79       1.0  0.01336  0.51068  0.29639  1.0000
  Fe  Fe35      1.0  0.06476  0.54503  0.30085  1.0000
  S   S80       1.0  0.07863  0.55693  0.25622  1.0000
  S   S81       1.0  0.07210  0.54933  0.34049  1.0000
  Fe  Fe36      1.0  0.05609  0.55990  0.24751  1.0000
  S   S82       1.0  0.05042  0.58157  0.22548  1.0000
  Fe  Fe37      1.0  0.07136  0.53340  0.24786  1.0000
  S   S83       1.0  0.08912  0.52327  0.22477  1.0000
  S   S84       1.0  0.04249  0.54952  0.29275  1.0000
  S   S85       1.0  0.05882  0.52113  0.29321  1.0000
  Fe  Fe38      1.0  0.16151  0.62094  0.41738  1.0000
  S   S86       1.0  0.16648  0.60103  0.44617  1.0000
  C   C203      1.0  0.08068  0.61395  0.26655  1.0000
  Fe  Fe39      1.0  0.14111  0.59818  0.39170  1.0000
  S   S87       1.0  0.14481  0.57698  0.41917  1.0000
  S   S88       1.0  0.13030  0.59736  0.35399  1.0000
  Fe  Fe40      1.0  0.14117  0.58918  0.45405  1.0000
  H   H207      1.0  0.12272  0.34819  0.26300  1.0000
  Fe  Fe41      1.0  0.16960  0.59054  0.40904  1.0000
  S   S89       1.0  0.18962  0.58131  0.39049  1.0000
  S   S90       1.0  0.13580  0.60963  0.42743  1.0000
  S   S91       1.0  0.16629  0.61122  0.37943  1.0000
  Fe  Fe42      1.0  0.10204  0.43545  0.14695  1.0000
  S   S92       1.0  0.07802  0.42982  0.17536  1.0000
  S   S93       1.0  0.12234  0.42679  0.15687  1.0000
  Fe  Fe43      1.0  0.09317  0.45081  0.09494  1.0000
  S   S94       1.0  0.06856  0.44653  0.11879  1.0000
  S   S95       1.0  0.09871  0.46187  0.04800  1.0000
  Fe  Fe44      1.0  0.07812  0.45409  0.15307  1.0000
  S   S96       1.0  0.06389  0.46878  0.17200  1.0000
  Fe  Fe45      1.0  0.07014  0.42280  0.13899  1.0000
  S   S97       1.0  0.04944  0.40246  0.14767  1.0000
  S   S98       1.0  0.10287  0.46047  0.12743  1.0000
  S   S99       1.0  0.09401  0.42629  0.11232  1.0000
  C   C204      1.0  0.04105  0.41161  0.03534  1.0000
  S   S100      1.0  0.10437  0.64357  0.17602  1.0000
  S   S101      1.0  0.03913  0.37110  0.04857  1.0000
  C   C205      1.0  0.13056  0.34336  0.27360  1.0000
  C   C206      1.0  0.11763  0.47375  0.03267  1.0000
  C   C207      1.0  0.12832  0.47542  0.04897  1.0000
  C   C208      1.0  0.14292  0.48595  0.03707  1.0000
  H   H208      1.0  0.22838  0.45915  0.38749  1.0000
  C   C209      1.0  0.02621  0.45484  0.22303  1.0000
  C   C210      1.0  0.01400  0.55125  0.24288  1.0000
  H   H209      1.0  0.12532  0.46873  0.07081  1.0000
  H   H210      1.0  0.15109  0.48735  0.04988  1.0000
  H   H211      1.0  0.98748  0.52789  0.30040  1.0000
  C   C211      1.0  0.15068  0.33109  0.30126  1.0000
  C   C212      1.0  0.04210  0.37860  0.07743  1.0000
  C   C213      1.0  0.03017  0.37575  0.10182  1.0000
  C   C214      1.0  0.03263  0.38296  0.12345  1.0000
  C   C215      1.0  0.04694  0.39318  0.12063  1.0000
  C   C216      1.0  0.05896  0.39582  0.09646  1.0000
  C   C217      1.0  0.05657  0.38845  0.07503  1.0000
  H   H212      1.0  0.01899  0.36816  0.10384  1.0000
  H   H213      1.0  0.02331  0.38080  0.14221  1.0000
  H   H214      1.0  0.07004  0.40363  0.09416  1.0000
  H   H215      1.0  0.06584  0.39066  0.05619  1.0000
  H   H216      1.0  0.19845  0.64070  0.42755  1.0000
  C   C218      1.0  0.08889  0.56213  0.34356  1.0000
  C   C219      1.0  0.09103  0.56213  0.37073  1.0000
  C   C220      1.0  0.10375  0.57260  0.37436  1.0000
  C   C221      1.0  0.11437  0.58341  0.35080  1.0000
  C   C222      1.0  0.11233  0.58330  0.32359  1.0000
  C   C223      1.0  0.09980  0.57261  0.31993  1.0000
  H   H217      1.0  0.08268  0.55407  0.38918  1.0000
  H   H218      1.0  0.10514  0.57250  0.39542  1.0000
  H   H219      1.0  0.12050  0.59156  0.30516  1.0000
  H   H220      1.0  0.09839  0.57271  0.29888  1.0000
  C   C224      1.0  0.08217  0.50813  0.21005  1.0000
  C   C225      1.0  0.06727  0.50549  0.20605  1.0000
  C   C226      1.0  0.06198  0.49356  0.19382  1.0000
  C   C227      1.0  0.07143  0.48398  0.18604  1.0000
  C   C228      1.0  0.08632  0.48653  0.19009  1.0000
  C   C229      1.0  0.09172  0.49869  0.20190  1.0000
  H   H221      1.0  0.05989  0.51278  0.21200  1.0000
  H   H222      1.0  0.05050  0.49172  0.19043  1.0000
  H   H223      1.0  0.09359  0.47905  0.18448  1.0000
  H   H224      1.0  0.10324  0.50066  0.20515  1.0000
  C   C230      1.0  0.06556  0.59859  0.20987  1.0000
  C   C231      1.0  0.08093  0.59832  0.20834  1.0000
  C   C232      1.0  0.09274  0.61220  0.19733  1.0000
  C   C233      1.0  0.08927  0.62641  0.18778  1.0000
  C   C234      1.0  0.07393  0.62668  0.18890  1.0000
  C   C235      1.0  0.06210  0.61277  0.19990  1.0000
  H   H225      1.0  0.08375  0.58746  0.21571  1.0000
  H   H226      1.0  0.10461  0.61193  0.19645  1.0000
  H   H227      1.0  0.07116  0.63760  0.18161  1.0000
  H   H228      1.0  0.05022  0.61305  0.20103  1.0000
  C   C236      1.0  0.00140  0.50179  0.27711  1.0000
  C   C237      1.0  0.00696  0.50199  0.24872  1.0000
  C   C238      1.0  0.99711  0.49430  0.23465  1.0000
  H   H229      1.0  0.01888  0.50784  0.23772  1.0000
  H   H230      1.0  0.00163  0.49420  0.21290  1.0000
  C   C239      1.0  0.20438  0.54003  0.43738  1.0000
  C   C240      1.0  0.19263  0.54551  0.45183  1.0000
  C   C241      1.0  0.18765  0.55788  0.43759  1.0000
  C   C242      1.0  0.19446  0.56489  0.40878  1.0000
  C   C243      1.0  0.20589  0.55911  0.39414  1.0000
  C   C244      1.0  0.21078  0.54668  0.40834  1.0000
  C   C245      1.0  0.06106  0.43229  0.05351  1.0000
  H   H231      1.0  0.17883  0.56223  0.44907  1.0000
  H   H232      1.0  0.21115  0.56443  0.37179  1.0000
  H   H233      1.0  0.21981  0.54254  0.39698  1.0000
  C   C246      1.0  0.09171  0.49438  0.08314  1.0000
  N   N21       1.0  0.09027  0.38897  0.18139  1.0000
  C   C247      1.0  0.21026  0.45499  0.32442  1.0000
  C   C248      1.0  0.20998  0.44158  0.34451  1.0000
  C   C249      1.0  0.21680  0.44323  0.36695  1.0000
  C   C250      1.0  0.22342  0.45808  0.36983  1.0000
  H   H234      1.0  0.10956  0.64314  0.11399  1.0000
  H   H235      1.0  0.20500  0.45397  0.30710  1.0000
  H   H236      1.0  0.99870  0.62689  0.02772  1.0000
  C   C251      1.0  0.09542  0.39477  0.20412  1.0000
  H   H237      1.0  0.12749  0.33076  0.39525  1.0000
  C   C252      1.0  0.13958  0.42688  0.23706  1.0000
  C   C253      1.0  0.14724  0.42168  0.21510  1.0000
  C   C254      1.0  0.14184  0.42184  0.19064  1.0000
  C   C255      1.0  0.12879  0.42728  0.18780  1.0000
  C   C256      1.0  0.12106  0.43248  0.20971  1.0000
  C   C257      1.0  0.12646  0.43228  0.23428  1.0000
  H   H238      1.0  0.15743  0.41770  0.21680  1.0000
  H   H239      1.0  0.14790  0.41787  0.17370  1.0000
  H   H240      1.0  0.11098  0.43669  0.20774  1.0000
  H   H241      1.0  0.12050  0.43636  0.25116  1.0000
  C   C258      1.0  0.15257  0.34730  0.29419  1.0000
  C   C259      1.0  0.14244  0.35340  0.28026  1.0000
  H   H242      1.0  0.14373  0.36584  0.27468  1.0000
  N   N22       1.0  0.17955  0.44886  0.38302  1.0000
  C   C260      1.0  0.18030  0.43683  0.40394  1.0000
  H   H243      1.0  0.19914  0.45758  0.44183  1.0000
  S   S102      1.0  0.00155  0.65117  0.11202  1.0000
  C   C261      1.0  0.00231  0.64937  0.99898  1.0000
  C   C262      1.0  0.18540  0.46396  0.38314  1.0000
  C   C263      1.0  0.17187  0.44558  0.36100  1.0000
  H   H244      1.0  0.17589  0.42486  0.40359  1.0000
  H   H245      1.0  0.10945  0.51112  0.14203  1.0000
  H   H246      1.0  0.10331  0.57767  0.47228  1.0000
  H   H247      1.0  0.21685  0.48015  0.31187  1.0000
  H   H248      1.0  0.10780  0.39514  0.20269  1.0000
  H   H249      1.0  0.17295  0.43426  0.35670  1.0000
  H   H250      1.0  0.13924  0.64106  0.03688  1.0000
  H   H251      1.0  0.17727  0.45459  0.34057  1.0000
  Fe  Fe46      1.0  0.99633  0.34570  0.01161  1.0000
  H   H252      1.0  0.03641  0.46995  0.29379  1.0000
  H   H253      1.0  0.22173  0.43916  0.28057  1.0000
  H   H254      1.0  0.18506  0.47352  0.36634  1.0000
  H   H255      1.0  0.10543  0.61589  0.32046  1.0000
  H   H256      1.0  0.08420  0.44873  0.00525  1.0000
  H   H257      1.0  0.12529  0.51151  0.03214  1.0000
  H   H258      1.0  0.23057  0.57497  0.47305  1.0000
  H   H259      1.0  0.10425  0.38682  0.11446  1.0000
  H   H260      1.0  0.08247  0.59388  0.32996  1.0000
  H   H261      1.0  0.06231  0.58613  0.27587  1.0000
  H   H262      1.0  0.09651  0.63574  0.24099  1.0000
  N   N23       1.0  0.11211  0.50442  0.10331  1.0000
  C   C264      1.0  0.06970  0.37718  0.16327  1.0000
  H   H263      1.0  0.00490  0.47029  0.28177  1.0000
  N   N24       1.0  0.19381  0.37122  0.22648  1.0000
  C   C265      1.0  0.17888  0.36495  0.22640  1.0000
  C   C266      1.0  0.20218  0.38502  0.20758  1.0000
  C   C267      1.0  0.17194  0.37257  0.20712  1.0000
  C   C268      1.0  0.19563  0.39294  0.18791  1.0000
  C   C269      1.0  0.18039  0.38669  0.18780  1.0000
  C   C270      1.0  0.20067  0.36367  0.24790  1.0000
  H   H264      1.0  0.17217  0.35411  0.24157  1.0000
  H   H265      1.0  0.21391  0.39018  0.20801  1.0000
  H   H266      1.0  0.09022  0.43310  0.02490  1.0000
  H   H267      1.0  0.20223  0.40411  0.17351  1.0000
  H   H268      1.0  0.17505  0.39294  0.17317  1.0000
  H   H269      1.0  0.20069  0.36999  0.26472  1.0000
  H   H270      1.0  0.19397  0.35142  0.25837  1.0000
  H   H271      1.0  0.21272  0.36363  0.23822  1.0000
  C   C271      1.0  0.03433  0.46301  0.23863  1.0000
  C   C272      1.0  0.01020  0.45240  0.22866  1.0000
  H   H272      1.0  0.06029  0.41535  0.99981  1.0000
  C   C273      1.0  0.19340  0.45513  0.42560  1.0000
  H   H273      1.0  0.21665  0.57182  0.45243  1.0000
  C   C274      1.0  0.05630  0.41851  0.01931  1.0000
  C   C275      1.0  0.09353  0.62661  0.26063  1.0000
  C   C276      1.0  0.00316  0.63937  0.02366  1.0000
  Fe  Fe47      1.0  0.22932  0.51471  0.43612  1.0000
  C   C277      1.0  0.08211  0.43585  0.01187  1.0000
  H   H274      1.0  0.98958  0.52556  0.20699  1.0000
  C   C278      1.0  0.11745  0.50629  0.12848  1.0000
  N   N25       1.0  0.07716  0.60212  0.29070  1.0000
  C   C279      1.0  0.99645  0.53301  0.21677  1.0000
  C   C280      1.0  0.00249  0.45786  0.25011  1.0000
  C   C281      1.0  0.13641  0.49284  0.99224  1.0000
  H   H275      1.0  0.01023  0.63795  0.06271  1.0000
  H   H276      1.0  0.19764  0.47931  0.40363  1.0000
  C   C282      1.0  0.18726  0.43978  0.42550  1.0000
  C   C283      1.0  0.11719  0.50759  0.05297  1.0000
  H   H277      1.0  0.00488  0.54146  0.29851  1.0000
  C   C284      1.0  0.12866  0.32713  0.28066  1.0000
  H   H278      1.0  0.02432  0.40924  0.07425  1.0000
  H   H279      1.0  0.18816  0.43022  0.44170  1.0000
  H   H280      1.0  0.15997  0.36771  0.20767  1.0000
  H   H281      1.0  0.21671  0.43295  0.38258  1.0000
  H   H282      1.0  0.08908  0.49253  0.12752  1.0000
  C   C285      1.0  0.98586  0.49409  0.29097  1.0000
  H   H283      1.0  0.07987  0.48795  0.08597  1.0000
  C   C286      1.0  0.12175  0.48235  0.00421  1.0000
  H   H284      1.0  0.13431  0.51513  0.07425  1.0000
  H   H285      1.0  0.11264  0.63698  0.27554  1.0000
  C   C287      1.0  0.09851  0.61550  0.30517  1.0000
  C   C288      1.0  0.03550  0.47785  0.27433  1.0000
  N   N26       1.0  0.02675  0.46891  0.25879  1.0000
  H   H286      1.0  0.04218  0.42789  0.09059  1.0000
  H   H287      1.0  0.02734  0.64504  0.13287  1.0000
  H   H288      1.0  0.03351  0.40305  0.02855  1.0000
  C   C289      1.0  0.07487  0.38271  0.18474  1.0000
  H   H289      1.0  0.01468  0.54406  0.17853  1.0000
  H   H290      1.0  0.09802  0.49758  0.03785  1.0000
  H   H291      1.0  0.03238  0.45062  0.20646  1.0000
  H   H292      1.0  0.05323  0.59114  0.30725  1.0000
  Fe  Fe48      1.0  0.01659  0.35409  0.05118  1.0000
  C   C290      1.0  0.19247  0.46732  0.40431  1.0000
  H   H293      1.0  0.08496  0.43170  0.99249  1.0000
  H   H294      1.0  0.17162  0.65059  0.04892  1.0000
  H   H295      1.0  0.11354  0.48109  0.99146  1.0000
  C   C291      1.0  0.09593  0.38535  0.13434  1.0000
  C   C292      1.0  0.22334  0.47150  0.35017  1.0000
  H   H296      1.0  0.07362  0.61359  0.25157  1.0000
  C   C293      1.0  0.12222  0.50959  0.07695  1.0000
  C   C294      1.0  0.22533  0.56697  0.46156  1.0000
  C   C295      1.0  0.10256  0.62730  0.28000  1.0000
  C   C296      1.0  0.03589  0.41507  0.06103  1.0000
  C   C297      1.0  0.08558  0.60301  0.31034  1.0000
  H   H297      1.0  0.04735  0.48421  0.26104  1.0000
  S   S103      1.0  0.01804  0.33997  0.01929  1.0000
  H   H298      1.0  0.11340  0.63323  0.07081  1.0000
  C   C298      1.0  0.10187  0.49982  0.05617  1.0000
  C   C299      1.0  0.10075  0.39050  0.15645  1.0000
  H   H299      1.0  0.06569  0.57804  0.30916  1.0000
  N   N27       1.0  0.15561  0.56972  0.34489  1.0000
  C   C300      1.0  0.14273  0.56676  0.33495  1.0000
  C   C301      1.0  0.15761  0.55889  0.36648  1.0000
  C   C302      1.0  0.13108  0.55295  0.34746  1.0000
  C   C303      1.0  0.14620  0.54494  0.37950  1.0000
  C   C304      1.0  0.13281  0.54203  0.37000  1.0000
  C   C305      1.0  0.16747  0.58443  0.33155  1.0000
  H   H300      1.0  0.14124  0.57531  0.31768  1.0000
  H   H301      1.0  0.16795  0.56106  0.37403  1.0000
  H   H302      1.0  0.12067  0.55088  0.33999  1.0000
  H   H303      1.0  0.14773  0.53655  0.39697  1.0000
  H   H304      1.0  0.12377  0.53136  0.38007  1.0000
  H   H305      1.0  0.17560  0.58682  0.34484  1.0000
  H   H306      1.0  0.17418  0.58408  0.31061  1.0000
  H   H307      1.0  0.16200  0.59433  0.32873  1.0000
  S   S104      1.0  0.16488  0.50875  0.99544  1.0000
  C   C306      1.0  0.06392  0.58873  0.29607  1.0000
  H   H308      1.0  0.02982  0.48682  0.28046  1.0000
  C   C307      1.0  0.19825  0.65233  0.42927  1.0000
  H   H309      1.0  0.07631  0.37470  0.12083  1.0000
  H   H310      1.0  0.05745  0.37239  0.16588  1.0000
  H   H311      1.0  0.99718  0.64474  0.98366  1.0000
  C   C308      1.0  0.08030  0.37858  0.13789  1.0000
  H   H312      1.0  0.06645  0.38210  0.20396  1.0000
  H   H313      1.0  0.09415  0.40680  0.20246  1.0000
  H   H314      1.0  0.22918  0.40386  0.24997  1.0000
  H   H315      1.0  0.22283  0.45050  0.23166  1.0000
  S   S105      1.0  0.99589  0.36141  0.04104  1.0000
  C   C309      1.0  0.01054  0.54331  0.20088  1.0000
  H   H316      1.0  0.04678  0.46478  0.23415  1.0000
  H   H317      1.0  0.06888  0.44024  0.06089  1.0000
  H   H318      1.0  0.11789  0.49481  0.14103  1.0000
  H   H319      1.0  0.08862  0.38721  0.22533  1.0000
  C   C310      1.0  0.09702  0.49691  0.10659  1.0000
  C   C311      1.0  0.21693  0.46984  0.32724  1.0000
  H   H320      1.0  0.00376  0.44631  0.21643  1.0000
  H   H321      1.0  0.15943  0.44517  0.36774  1.0000
  H   H322      1.0  0.02095  0.55849  0.25285  1.0000
  C   C312      1.0  0.99495  0.53972  0.28875  1.0000
  H   H323      1.0  0.12915  0.51439  0.12284  1.0000
  C   C313      1.0  0.01098  0.46600  0.26525  1.0000
  H   H324      1.0  0.21892  0.55558  0.47687  1.0000
  C   C314      1.0  0.04593  0.42550  0.07020  1.0000
  H   H325      1.0  0.12562  0.33502  0.34526  1.0000
  C   C315      1.0  0.12082  0.64655  0.09888  1.0000
  C   C316      1.0  0.12300  0.64093  0.07477  1.0000
  C   C317      1.0  0.14697  0.49478  0.00878  1.0000
  H   H326      1.0  0.03030  0.56071  0.20182  1.0000
  H   H327      1.0  0.18760  0.54041  0.47432  1.0000
  C   C318      1.0  0.13764  0.64535  0.05574  1.0000
  H   H328      1.0  0.99002  0.45606  0.25459  1.0000
  C   C319      1.0  0.00962  0.64555  0.04325  1.0000
  H   H329      1.0  0.98843  0.54854  0.29181  1.0000
  C   C320      1.0  0.01933  0.55259  0.21392  1.0000
  S   S106      1.0  0.00269  0.33355  0.08723  1.0000
  H   H330      1.0  0.22094  0.65750  0.43695  1.0000
  C   C321      1.0  0.13318  0.65665  0.10348  1.0000
  N   N28       1.0  0.14972  0.65524  0.06048  1.0000
  H   H331      1.0  0.23266  0.58027  0.40573  1.0000
  S   S107      1.0  0.23037  0.49051  0.35397  1.0000
  H   H332      1.0  0.15847  0.32624  0.31197  1.0000
  C   C322      1.0  0.02975  0.65749  0.12418  1.0000
  C   C323      1.0  0.11752  0.32536  0.36170  1.0000
  C   C324      1.0  0.23373  0.43905  0.27381  1.0000
  H   H333      1.0  0.23322  0.42448  0.31431  1.0000
  Fe  Fe49      1.0  0.17872  0.37346  0.63594  1.0000
  S   S108      1.0  0.16324  0.38968  0.63729  1.0000
  S   S109      1.0  0.17048  0.34800  0.63542  1.0000
  Fe  Fe50      1.0  0.20480  0.39669  0.64876  1.0000
  S   S110      1.0  0.19099  0.41433  0.65122  1.0000
  S   S111      1.0  0.08956  0.62186  0.78479  1.0000
  Fe  Fe51      1.0  0.17095  0.39398  0.67547  1.0000
  S   S112      1.0  0.15431  0.39190  0.71703  1.0000
  Fe  Fe52      1.0  0.18474  0.40852  0.61261  1.0000
  S   S113      1.0  0.18329  0.42801  0.57768  1.0000
  S   S114      1.0  0.18517  0.37661  0.67602  1.0000
  S   S115      1.0  0.19986  0.39205  0.60830  1.0000
  H   H334      1.0  0.02252  0.61390  0.77938  1.0000
  Fe  Fe53      1.0  0.01469  0.52577  0.63913  1.0000
  S   S116      1.0  0.03400  0.52006  0.61083  1.0000
  C   C325      1.0  0.08278  0.59619  0.60702  1.0000
  Fe  Fe54      1.0  0.03774  0.55027  0.65588  1.0000
  S   S117      1.0  0.05860  0.54621  0.62903  1.0000
  S   S118      1.0  0.03852  0.56868  0.68082  1.0000
  Fe  Fe55      1.0  0.04513  0.54579  0.59623  1.0000
  S   S119      1.0  0.05576  0.55772  0.54952  1.0000
  Fe  Fe56      1.0  0.04608  0.52087  0.64569  1.0000
  S   S120      1.0  0.06011  0.50341  0.65326  1.0000
  S   S121      1.0  0.02490  0.55172  0.62171  1.0000
  S   S122      1.0  0.02613  0.52476  0.67548  1.0000
  Fe  Fe57      1.0  0.10151  0.44309  0.76390  1.0000
  S   S123      1.0  0.09826  0.42725  0.80696  1.0000
  S   S124      1.0  0.11817  0.44400  0.72300  1.0000
  Fe  Fe58      1.0  0.07905  0.46077  0.78576  1.0000
  S   S125      1.0  0.07410  0.44642  0.83055  1.0000
  S   S126      1.0  0.06653  0.47961  0.77791  1.0000
  Fe  Fe59      1.0  0.09970  0.44914  0.82202  1.0000
  S   S127      1.0  0.11314  0.45272  0.85497  1.0000
  Fe  Fe60      1.0  0.07291  0.42589  0.81176  1.0000
  S   S128      1.0  0.05227  0.40518  0.83465  1.0000
  S   S129      1.0  0.10476  0.46508  0.77854  1.0000
  S   S130      1.0  0.07607  0.44015  0.76744  1.0000
  Fe  Fe61      1.0  0.17791  0.55287  0.90790  1.0000
  S   S131      1.0  0.18841  0.54434  0.87150  1.0000
  S   S132      1.0  0.17483  0.57715  0.89427  1.0000
  Fe  Fe62      1.0  0.17234  0.52136  0.94892  1.0000
  S   S133      1.0  0.18222  0.51041  0.91518  1.0000
  Fe  Fe63      1.0  0.20099  0.53287  0.90045  1.0000
  H   H335      1.0  0.05342  0.52352  0.55330  1.0000
  Fe  Fe64      1.0  0.16864  0.52286  0.88928  1.0000
  S   S134      1.0  0.15581  0.51752  0.85627  1.0000
  S   S135      1.0  0.19202  0.54313  0.93558  1.0000
  S   S136      1.0  0.15739  0.53209  0.92434  1.0000
  H   H336      1.0  0.15875  0.36193  0.58835  1.0000
  S   S137      1.0  0.09556  0.60363  0.71822  1.0000
  H   H337      1.0  0.13947  0.49958  0.97038  1.0000
  S   S138      1.0  0.20253  0.63362  0.94092  1.0000
  H   H338      1.0  0.11624  0.53803  0.52334  1.0000
  S   S139      1.0  0.02392  0.35478  0.77513  1.0000
  C   C326      1.0  0.03969  0.44108  0.74175  1.0000
  C   C327      1.0  0.04127  0.62986  0.78700  1.0000
  C   C328      1.0  0.18173  0.59241  0.90891  1.0000
  C   C329      1.0  0.18814  0.58993  0.93213  1.0000
  C   C330      1.0  0.19416  0.60261  0.94227  1.0000
  C   C331      1.0  0.19383  0.61777  0.92926  1.0000
  C   C332      1.0  0.18720  0.62016  0.90634  1.0000
  C   C333      1.0  0.18116  0.60752  0.89625  1.0000
  H   H339      1.0  0.18853  0.57830  0.94216  1.0000
  H   H340      1.0  0.19918  0.60067  0.96015  1.0000
  H   H341      1.0  0.18697  0.63180  0.89604  1.0000
  H   H342      1.0  0.17616  0.60952  0.87835  1.0000
  C   C334      1.0  0.14643  0.43076  0.79408  1.0000
  C   C335      1.0  0.23194  0.60474  0.91712  1.0000
  H   H343      1.0  0.06498  0.51250  0.59017  1.0000
  C   C336      1.0  0.14380  0.49938  0.85678  1.0000
  C   C337      1.0  0.13606  0.49870  0.83522  1.0000
  C   C338      1.0  0.12648  0.48457  0.83458  1.0000
  C   C339      1.0  0.12462  0.47091  0.85546  1.0000
  C   C340      1.0  0.13237  0.47158  0.87701  1.0000
  C   C341      1.0  0.14187  0.48575  0.87775  1.0000
  H   H344      1.0  0.13745  0.50919  0.81895  1.0000
  H   H345      1.0  0.12051  0.48427  0.81801  1.0000
  H   H346      1.0  0.13102  0.46108  0.89324  1.0000
  H   H347      1.0  0.14775  0.48610  0.89445  1.0000
  C   C342      1.0  0.04443  0.39147  0.81751  1.0000
  C   C343      1.0  0.05245  0.39059  0.79113  1.0000
  C   C344      1.0  0.04595  0.37934  0.77837  1.0000
  C   C345      1.0  0.03136  0.36896  0.79172  1.0000
  C   C346      1.0  0.02317  0.37009  0.81781  1.0000
  C   C347      1.0  0.02971  0.38130  0.83065  1.0000
  H   H348      1.0  0.06374  0.39843  0.78072  1.0000
  H   H349      1.0  0.05231  0.37857  0.75812  1.0000
  H   H350      1.0  0.01187  0.36225  0.82817  1.0000
  H   H351      1.0  0.02334  0.38200  0.85096  1.0000
  C   C348      1.0  0.07601  0.56288  0.53580  1.0000
  C   C349      1.0  0.08587  0.56152  0.55368  1.0000
  C   C350      1.0  0.10195  0.56603  0.54230  1.0000
  C   C351      1.0  0.10832  0.57175  0.51293  1.0000
  H   H352      1.0  0.14148  0.48203  0.75769  1.0000
  C   C352      1.0  0.08236  0.56882  0.50642  1.0000
  H   H353      1.0  0.08118  0.55705  0.57628  1.0000
  H   H354      1.0  0.10951  0.56492  0.55631  1.0000
  C   C353      1.0  0.14578  0.63895  0.84681  1.0000
  C   C354      1.0  0.15722  0.64989  0.85256  1.0000
  C   C355      1.0  0.06177  0.49685  0.68800  1.0000
  C   C356      1.0  0.05442  0.50210  0.71019  1.0000
  C   C357      1.0  0.05609  0.49686  0.73768  1.0000
  C   C358      1.0  0.06509  0.48634  0.74308  1.0000
  C   C359      1.0  0.07233  0.48098  0.72096  1.0000
  C   C360      1.0  0.07069  0.48626  0.69345  1.0000
  H   H355      1.0  0.04738  0.51011  0.70618  1.0000
  H   H356      1.0  0.05031  0.50086  0.75486  1.0000
  H   H357      1.0  0.07926  0.47284  0.72498  1.0000
  H   H358      1.0  0.07638  0.48215  0.67635  1.0000
  C   C361      1.0  0.05510  0.57962  0.68772  1.0000
  C   C362      1.0  0.05363  0.59165  0.70101  1.0000
  C   C363      1.0  0.06617  0.59974  0.70913  1.0000
  C   C364      1.0  0.08026  0.59571  0.70436  1.0000
  C   C365      1.0  0.08188  0.58404  0.69018  1.0000
  C   C366      1.0  0.06939  0.57606  0.68181  1.0000
  H   H359      1.0  0.04263  0.59452  0.70557  1.0000
  H   H360      1.0  0.06477  0.60870  0.71997  1.0000
  H   H361      1.0  0.09274  0.58085  0.68642  1.0000
  H   H362      1.0  0.07068  0.56680  0.67170  1.0000
  H   H363      1.0  0.03507  0.42123  0.72451  1.0000
  H   H364      1.0  0.04405  0.44955  0.72124  1.0000
  H   H365      1.0  0.99514  0.50626  0.59484  1.0000
  N   N29       1.0  0.14569  0.45939  0.76182  1.0000
  S   S140      1.0  0.09146  0.64679  0.72444  1.0000
  C   C367      1.0  0.21350  0.46071  0.51063  1.0000
  C   C368      1.0  0.20009  0.45207  0.53187  1.0000
  C   C369      1.0  0.19986  0.43785  0.54980  1.0000
  C   C370      1.0  0.21297  0.43208  0.54586  1.0000
  H   H366      1.0  0.11370  0.60078  0.53319  1.0000
  C   C371      1.0  0.98979  0.34929  0.91767  1.0000
  H   H367      1.0  0.18998  0.45659  0.53487  1.0000
  H   H368      1.0  0.21288  0.42111  0.55946  1.0000
  H   H369      1.0  0.08839  0.51434  0.60792  1.0000
  H   H370      1.0  0.22173  0.49949  0.92594  1.0000
  Fe  Fe65      1.0  0.00102  0.33643  0.79442  1.0000
  H   H371      1.0  0.02445  0.41155  0.81521  1.0000
  C   C372      1.0  0.14364  0.40591  0.71778  1.0000
  C   C373      1.0  0.13206  0.40428  0.74225  1.0000
  C   C374      1.0  0.12378  0.41565  0.74379  1.0000
  C   C375      1.0  0.12710  0.42871  0.72087  1.0000
  C   C376      1.0  0.13843  0.43013  0.69617  1.0000
  C   C377      1.0  0.14667  0.41875  0.69459  1.0000
  H   H372      1.0  0.12962  0.39431  0.76020  1.0000
  H   H373      1.0  0.11502  0.41442  0.76284  1.0000
  H   H374      1.0  0.14100  0.44020  0.67834  1.0000
  H   H375      1.0  0.15552  0.42003  0.67557  1.0000
  C   C378      1.0  0.15806  0.34006  0.61603  1.0000
  H   H376      1.0  0.16689  0.33347  0.53545  1.0000
  C   C379      1.0  0.14521  0.34250  0.57777  1.0000
  C   C380      1.0  0.15432  0.34941  0.59374  1.0000
  C   C381      1.0  0.07636  0.59482  0.55550  1.0000
  H   H377      1.0  0.14269  0.34981  0.56010  1.0000
  H   H378      1.0  0.14114  0.62746  0.86126  1.0000
  Fe  Fe66      1.0  0.09812  0.62435  0.73795  1.0000
  H   H379      1.0  0.21373  0.47191  0.49759  1.0000
  S   S141      1.0  0.12539  0.62899  0.81689  1.0000
  C   C382      1.0  0.10393  0.52618  0.56675  1.0000
  H   H380      1.0  0.07479  0.57000  0.49245  1.0000
  C   C383      1.0  0.03423  0.44055  0.81848  1.0000
  Fe  Fe67      1.0  0.11344  0.63585  0.78218  1.0000
  H   H381      1.0  0.22467  0.53720  0.94053  1.0000
  H   H382      1.0  0.21493  0.46182  0.61395  1.0000
  H   H383      1.0  0.02755  0.36581  0.92471  1.0000
  H   H384      1.0  0.16137  0.64676  0.87123  1.0000
  S   S142      1.0  0.12252  0.63654  0.73654  1.0000
  C   C384      1.0  0.15198  0.43479  0.76464  1.0000
  H   H385      1.0  0.15642  0.48045  0.72968  1.0000
  H   H386      1.0  0.08540  0.59691  0.62705  1.0000
  H   H387      1.0  0.03659  0.65477  0.82838  1.0000
  C   C385      1.0  0.13977  0.32621  0.58382  1.0000
  H   H388      1.0  0.05024  0.62661  0.77352  1.0000
  H   H389      1.0  0.03768  0.43217  0.83415  1.0000
  H   H390      1.0  0.10636  0.60574  0.58258  1.0000
  C   C386      1.0  0.10385  0.60589  0.53041  1.0000
  C   C387      1.0  0.01389  0.62737  0.80683  1.0000
  H   H391      1.0  0.14645  0.41949  0.80664  1.0000
  H   H392      1.0  0.05261  0.58460  0.57952  1.0000
  H   H393      1.0  0.02504  0.40220  0.77194  1.0000
  C   C388      1.0  0.02900  0.41457  0.77018  1.0000
  H   H394      1.0  0.10788  0.65497  0.84522  1.0000
  C   C389      1.0  0.09155  0.53099  0.52860  1.0000
  C   C390      1.0  0.09849  0.57321  0.49496  1.0000
  H   H395      1.0  0.04604  0.36111  0.91809  1.0000
  H   H396      1.0  0.04044  0.37299  0.89001  1.0000
  C   C391      1.0  0.22982  0.42456  0.68036  1.0000
  C   C392      1.0  0.14037  0.45560  0.79070  1.0000
  C   C393      1.0  0.14062  0.44124  0.80725  1.0000
  N   N30       1.0  0.13216  0.35770  0.68121  1.0000
  C   C394      1.0  0.12815  0.36780  0.69644  1.0000
  C   C395      1.0  0.12988  0.35897  0.65463  1.0000
  C   C396      1.0  0.12178  0.37965  0.68507  1.0000
  C   C397      1.0  0.12345  0.37063  0.64264  1.0000
  C   C398      1.0  0.11945  0.38107  0.65796  1.0000
  C   C399      1.0  0.13982  0.34612  0.69288  1.0000
  H   H397      1.0  0.13016  0.36694  0.71735  1.0000
  H   H398      1.0  0.13323  0.35110  0.64240  1.0000
  H   H399      1.0  0.11897  0.38786  0.69704  1.0000
  H   H400      1.0  0.12184  0.37170  0.62142  1.0000
  H   H401      1.0  0.11471  0.39035  0.64877  1.0000
  H   H402      1.0  0.13407  0.34051  0.71565  1.0000
  H   H403      1.0  0.13963  0.33680  0.68153  1.0000
  H   H404      1.0  0.15212  0.35189  0.69066  1.0000
  N   N31       1.0  0.03427  0.43535  0.79257  1.0000
  H   H405      1.0  0.01815  0.33662  0.94537  1.0000
  H   H406      1.0  0.04269  0.45201  0.81412  1.0000
  S   S143      1.0  0.98861  0.51412  0.64972  1.0000
  H   H407      1.0  0.02254  0.44158  0.82801  1.0000
  H   H408      1.0  0.21859  0.42467  0.67670  1.0000
  C   C400      1.0  0.14496  0.47425  0.74448  1.0000
  H   H409      1.0  0.06489  0.53286  0.51828  1.0000
  C   C401      1.0  0.06759  0.59022  0.60623  1.0000
  C   C402      1.0  0.22669  0.45506  0.50697  1.0000
  C   C403      1.0  0.22488  0.59843  0.89820  1.0000
  C   C404      1.0  0.08943  0.51906  0.58553  1.0000
  Fe  Fe68      1.0  0.19572  0.65616  0.92752  1.0000
  C   C405      1.0  0.14018  0.64287  0.82276  1.0000
  C   C406      1.0  0.06338  0.52297  0.53689  1.0000
  C   C407      1.0  0.02877  0.41989  0.79459  1.0000
  H   H410      1.0  0.04313  0.45825  0.76507  1.0000
  C   C408      1.0  0.06435  0.58948  0.58035  1.0000
  S   S144      1.0  0.99629  0.35562  0.96596  1.0000
  C   C409      1.0  0.15139  0.44918  0.74873  1.0000
  C   C410      1.0  0.03160  0.34781  0.87443  1.0000
  H   H411      1.0  0.11428  0.52719  0.57444  1.0000
  H   H412      1.0  0.21068  0.46294  0.57974  1.0000
  H   H413      1.0  0.11859  0.64956  0.88691  1.0000
  C   C411      1.0  0.03926  0.44596  0.76664  1.0000
  N   N32       1.0  0.06093  0.56151  0.75592  1.0000
  C   C412      1.0  0.05005  0.55269  0.74652  1.0000
  C   C413      1.0  0.07550  0.55931  0.75240  1.0000
  C   C414      1.0  0.05373  0.54151  0.73268  1.0000
  C   C415      1.0  0.07954  0.54817  0.73880  1.0000
  C   C416      1.0  0.06857  0.53924  0.72887  1.0000
  C   C417      1.0  0.05681  0.57290  0.77102  1.0000
  H   H414      1.0  0.03856  0.55457  0.74887  1.0000
  H   H415      1.0  0.08419  0.56646  0.75951  1.0000
  H   H416      1.0  0.04517  0.53486  0.72457  1.0000
  H   H417      1.0  0.09114  0.54656  0.73576  1.0000
  H   H418      1.0  0.07161  0.53067  0.71804  1.0000
  H   H419      1.0  0.04763  0.57769  0.76362  1.0000
  H   H420      1.0  0.05268  0.56737  0.79416  1.0000
  H   H421      1.0  0.06693  0.58301  0.76700  1.0000
  S   S145      1.0  0.06445  0.65262  0.79368  1.0000
  H   H422      1.0  0.10016  0.60238  0.51225  1.0000
  S   S146      1.0  0.12855  0.57661  0.49987  1.0000
  H   H423      1.0  0.00910  0.64201  0.83444  1.0000
  H   H424      1.0  0.18738  0.33471  0.52651  1.0000
  C   C418      1.0  0.23195  0.43916  0.60185  1.0000
  H   H425      1.0  0.21965  0.56614  0.87492  1.0000
  C   C419      1.0  0.02707  0.65381  0.73787  1.0000
  H   H426      1.0  0.15628  0.42663  0.75409  1.0000
  H   H427      1.0  0.13573  0.46359  0.80116  1.0000
  S   S147      1.0  0.99434  0.61959  0.80821  1.0000
  H   H428      1.0  0.10797  0.61878  0.52472  1.0000
  H   H429      1.0  0.17869  0.34157  0.55592  1.0000
  Fe  Fe69      1.0  0.08458  0.64510  0.77118  1.0000
  C   C420      1.0  0.10504  0.53212  0.53805  1.0000
  N   N33       1.0  0.15102  0.57226  0.84446  1.0000
  C   C421      1.0  0.16499  0.58307  0.83396  1.0000
  C   C422      1.0  0.13757  0.57675  0.84523  1.0000
  C   C423      1.0  0.16575  0.59881  0.82346  1.0000
  C   C424      1.0  0.13791  0.59239  0.83464  1.0000
  C   C425      1.0  0.15211  0.60345  0.82365  1.0000
  C   C426      1.0  0.15044  0.55596  0.85683  1.0000
  H   H430      1.0  0.17562  0.57958  0.83441  1.0000
  H   H431      1.0  0.12650  0.56825  0.85426  1.0000
  H   H432      1.0  0.17683  0.60738  0.81567  1.0000
  H   H433      1.0  0.12726  0.59600  0.83517  1.0000
  H   H434      1.0  0.15251  0.61561  0.81558  1.0000
  H   H435      1.0  0.14949  0.55404  0.87990  1.0000
  H   H436      1.0  0.14049  0.54782  0.85360  1.0000
  H   H437      1.0  0.16101  0.55280  0.84698  1.0000
  N   N34       1.0  0.07736  0.52425  0.54727  1.0000
  H   H438      1.0  0.07367  0.59411  0.53552  1.0000
  C   C427      1.0  0.07619  0.51811  0.57535  1.0000
  H   H439      1.0  0.13633  0.47208  0.73200  1.0000
  C   C428      1.0  0.03356  0.64579  0.81777  1.0000
  C   C429      1.0  0.98762  0.34354  0.94701  1.0000
  C   C430      1.0  0.04525  0.64164  0.80037  1.0000
  N   N35       1.0  0.22774  0.58526  0.89153  1.0000
  H   H440      1.0  0.22791  0.40892  0.74188  1.0000
  C   C431      1.0  0.01796  0.63868  0.82101  1.0000
  H   H441      1.0  0.15513  0.45198  0.72577  1.0000
  C   C432      1.0  0.02559  0.62273  0.79028  1.0000
  H   H442      1.0  0.22637  0.58503  0.84971  1.0000
  N   N36       1.0  0.02911  0.34858  0.90204  1.0000
  C   C433      1.0  0.22486  0.38139  0.72894  1.0000
  H   H443      1.0  0.99620  0.36122  0.90726  1.0000
  C   C434      1.0  0.03464  0.42524  0.74360  1.0000
  C   C435      1.0  0.09456  0.60119  0.58180  1.0000
  H   H444      1.0  0.13613  0.43823  0.83014  1.0000
  H   H445      1.0  0.06048  0.51182  0.53096  1.0000
  C   C436      1.0  0.17700  0.33243  0.54427  1.0000
  N   N37       1.0  0.09128  0.60036  0.55651  1.0000
  H   H446      1.0  0.05835  0.58615  0.62562  1.0000
  H   H447      1.0  0.98598  0.34399  0.87894  1.0000
  H   H448      1.0  0.21687  0.60399  0.88930  1.0000
  H   H449      1.0  0.09250  0.53596  0.50638  1.0000
  H   H450      1.0  0.22381  0.43171  0.62120  1.0000
  H   H451      1.0  0.02935  0.64582  0.72511  1.0000
  C   C437      1.0  0.02010  0.33603  0.92344  1.0000
  H   H452      1.0  0.21763  0.38923  0.72227  1.0000
  H   H453      1.0  0.18792  0.32501  0.58965  1.0000
  C   C438      1.0  0.03621  0.36281  0.90898  1.0000
  H   H454      1.0  0.00230  0.64642  0.74524  1.0000
  H   H455      1.0  0.03928  0.35747  0.85754  1.0000
  N   N38       1.0  0.22862  0.45191  0.58679  1.0000
  C   C439      1.0  0.21399  0.45563  0.59718  1.0000
  H   H456      1.0  0.21698  0.36981  0.74072  1.0000
  S   S148      1.0  0.22648  0.53487  0.88235  1.0000
  H   H457      1.0  0.13995  0.65638  0.90766  1.0000
  H   H458      1.0  0.22928  0.61498  0.92291  1.0000
  C   C440      1.0  0.02400  0.33469  0.86748  1.0000
  H   H459      1.0  0.02545  0.33445  0.84542  1.0000
  C   C441      1.0  0.22008  0.57873  0.87194  1.0000
  C   C442      1.0  0.01191  0.65415  0.74910  1.0000
  H   H460      1.0  0.20440  0.44484  0.60588  1.0000
  H   H461      1.0  0.20791  0.57959  0.87579  1.0000
  C   C443      1.0  0.22629  0.44060  0.52430  1.0000
  S   S149      1.0  0.17217  0.65533  0.92060  1.0000
  H   H462      1.0  0.23075  0.44350  0.70039  1.0000
  S   S150      1.0  0.22913  0.40003  0.65516  1.0000
  H   H463      1.0  0.23237  0.38033  0.70927  1.0000
  C   C444      1.0  0.98405  0.33956  0.90159  1.0000
  Fe  Fe70      1.0  0.17484  0.79965  0.22209  1.0000
  S   S151      1.0  0.18853  0.79447  0.18404  1.0000
  S   S152      1.0  0.15652  0.81273  0.21760  1.0000
  Fe  Fe71      1.0  0.18906  0.78090  0.26240  1.0000
  S   S153      1.0  0.20407  0.77424  0.22778  1.0000
  S   S154      1.0  0.18472  0.77118  0.30974  1.0000
  Fe  Fe72      1.0  0.20864  0.79926  0.20340  1.0000
  H   H464      1.0  0.05197  0.66233  0.13399  1.0000
  Fe  Fe73      1.0  0.18302  0.77003  0.21089  1.0000
  S   S155      1.0  0.17737  0.74878  0.19419  1.0000
  S   S156      1.0  0.19526  0.80642  0.23962  1.0000
  S   S157      1.0  0.16770  0.77477  0.24720  1.0000
  S   S158      1.0  0.21828  0.73081  0.43221  1.0000
  H   H465      1.0  0.04518  0.80660  0.16428  1.0000
  H   H466      1.0  0.15984  0.85333  0.30222  1.0000
  H   H467      1.0  0.22264  0.97997  0.08271  1.0000
  N   N39       1.0  0.11215  0.95301  0.21120  1.0000
  Fe  Fe74      1.0  0.11888  0.69428  0.10777  1.0000
  S   S159      1.0  0.12182  0.68617  0.15137  1.0000
  S   S160      1.0  0.14127  0.70356  0.07340  1.0000
  Fe  Fe75      1.0  0.08392  0.68904  0.12975  1.0000
  S   S161      1.0  0.08428  0.68027  0.17533  1.0000
  S   S162      1.0  0.06394  0.69620  0.11471  1.0000
  Fe  Fe76      1.0  0.10559  0.70009  0.16505  1.0000
  S   S163      1.0  0.10920  0.71701  0.19222  1.0000
  C   C445      1.0  0.01908  0.68835  0.00910  1.0000
  S   S164      1.0  0.10418  0.70974  0.12083  1.0000
  H   H468      1.0  0.20991  0.73281  0.34038  1.0000
  C   C446      1.0  0.16129  0.73161  0.10673  1.0000
  C   C447      1.0  0.21104  0.72109  0.34783  1.0000
  Fe  Fe77      1.0  0.10850  0.84968  0.31796  1.0000
  S   S165      1.0  0.08437  0.84352  0.34614  1.0000
  S   S166      1.0  0.12457  0.83395  0.32274  1.0000
  Fe  Fe78      1.0  0.10731  0.88224  0.28973  1.0000
  S   S167      1.0  0.08307  0.87849  0.31599  1.0000
  S   S168      1.0  0.12144  0.90210  0.25110  1.0000
  Fe  Fe79      1.0  0.09127  0.86737  0.35339  1.0000
  S   S169      1.0  0.08292  0.87185  0.39719  1.0000
  Fe  Fe80      1.0  0.07792  0.85484  0.30688  1.0000
  S   S170      1.0  0.05430  0.84655  0.29735  1.0000
  S   S171      1.0  0.11584  0.87284  0.32738  1.0000
  S   S172      1.0  0.10172  0.85929  0.27842  1.0000
  H   H469      1.0  0.14741  0.86565  0.30785  1.0000
  C   C448      1.0  0.02722  0.83747  0.11628  1.0000
  S   S173      1.0  0.12054  0.97601  0.03631  1.0000
  C   C449      1.0  0.15766  0.86462  0.29268  1.0000
  C   C450      1.0  0.21720  0.98910  0.07561  1.0000
  C   C451      1.0  0.13106  0.92148  0.24926  1.0000
  C   C452      1.0  0.12916  0.92770  0.27274  1.0000
  C   C453      1.0  0.13597  0.94358  0.26953  1.0000
  C   C454      1.0  0.14491  0.95332  0.24300  1.0000
  C   C455      1.0  0.14705  0.94699  0.21967  1.0000
  C   C456      1.0  0.14010  0.93119  0.22279  1.0000
  H   H470      1.0  0.12218  0.92040  0.29321  1.0000
  H   H471      1.0  0.13420  0.94838  0.28769  1.0000
  H   H472      1.0  0.14161  0.92650  0.20448  1.0000
  H   H473      1.0  0.15380  0.95433  0.19911  1.0000
  C   C457      1.0  0.02461  0.82447  0.25789  1.0000
  C   C458      1.0  0.03126  0.83361  0.27427  1.0000
  C   C459      1.0  0.04673  0.83501  0.27569  1.0000
  C   C460      1.0  0.05546  0.82707  0.26033  1.0000
  C   C461      1.0  0.04878  0.81785  0.24408  1.0000
  H   H474      1.0  0.02433  0.83965  0.28597  1.0000
  H   H475      1.0  0.06732  0.82792  0.26113  1.0000
  H   H476      1.0  0.05567  0.81169  0.23261  1.0000
  H   H477      1.0  0.22345  0.73963  0.00074  1.0000
  H   H478      1.0  0.16998  0.85082  0.25474  1.0000
  C   C462      1.0  0.08201  0.87319  0.45251  1.0000
  C   C463      1.0  0.09043  0.87033  0.42795  1.0000
  C   C464      1.0  0.10443  0.86645  0.42865  1.0000
  C   C465      1.0  0.10990  0.86554  0.45338  1.0000
  H   H479      1.0  0.13915  0.87941  0.26907  1.0000
  H   H480      1.0  0.07119  0.87623  0.45235  1.0000
  H   H481      1.0  0.11109  0.86421  0.41008  1.0000
  H   H482      1.0  0.12077  0.86257  0.45347  1.0000
  C   C466      1.0  0.14622  0.68015  0.00058  1.0000
  C   C467      1.0  0.21373  0.69106  0.36655  1.0000
  C   C468      1.0  0.13012  0.68462  0.04177  1.0000
  C   C469      1.0  0.14286  0.69502  0.04473  1.0000
  C   C470      1.0  0.15723  0.69828  0.02510  1.0000
  C   C471      1.0  0.15892  0.69086  0.00301  1.0000
  H   H483      1.0  0.03957  0.91765  0.99802  1.0000
  H   H484      1.0  0.11897  0.68222  0.05648  1.0000
  H   H485      1.0  0.16710  0.70640  0.02722  1.0000
  S   S174      1.0  0.98798  0.77249  0.22087  1.0000
  C   C472      1.0  0.04690  0.68333  0.11371  1.0000
  C   C473      1.0  0.03609  0.68958  0.10189  1.0000
  C   C474      1.0  0.02213  0.67985  0.10134  1.0000
  Fe  Fe81      1.0  0.22648  0.74150  0.46530  1.0000
  H   H486      1.0  0.17181  0.67100  0.03964  1.0000
  H   H487      1.0  0.03851  0.70203  0.09326  1.0000
  H   H488      1.0  0.01388  0.68483  0.09238  1.0000
  H   H489      1.0  0.02846  0.71588  0.15342  1.0000
  C   C475      1.0  0.21121  0.67724  0.43637  1.0000
  C   C476      1.0  0.01890  0.66376  0.11256  1.0000
  S   S175      1.0  0.21861  0.98603  0.14304  1.0000
  C   C477      1.0  0.08745  0.87219  0.47731  1.0000
  C   C478      1.0  0.18548  0.67312  0.42793  1.0000
  C   C479      1.0  0.19824  0.68271  0.43331  1.0000
  S   S176      1.0  0.99971  0.75374  0.15608  1.0000
  H   H490      1.0  0.17561  0.67759  0.42537  1.0000
  H   H491      1.0  0.19809  0.69440  0.43472  1.0000
  C   C480      1.0  0.98451  0.81369  0.07850  1.0000
  C   C481      1.0  0.13179  0.67725  0.01970  1.0000
  C   C482      1.0  0.11392  0.95266  0.18346  1.0000
  S   S177      1.0  0.23131  0.81200  0.17060  1.0000
  C   C483      1.0  0.20076  0.76825  0.32261  1.0000
  C   C484      1.0  0.21551  0.77211  0.30425  1.0000
  H   H492      1.0  0.10877  0.94214  0.17818  1.0000
  H   H493      1.0  0.10532  0.93956  0.25447  1.0000
  C   C485      1.0  0.21134  0.75945  0.36244  1.0000
  C   C486      1.0  0.19869  0.76188  0.35171  1.0000
  H   H494      1.0  0.21722  0.77706  0.28181  1.0000
  H   H495      1.0  0.11616  0.90150  0.47338  1.0000
  H   H496      1.0  0.20969  0.75463  0.38491  1.0000
  H   H497      1.0  0.18731  0.75891  0.36603  1.0000
  C   C487      1.0  0.15813  0.73943  0.19621  1.0000
  C   C488      1.0  0.14580  0.74557  0.20568  1.0000
  C   C489      1.0  0.13076  0.73837  0.20501  1.0000
  C   C490      1.0  0.12802  0.72514  0.19450  1.0000
  C   C491      1.0  0.14033  0.71895  0.18532  1.0000
  C   C492      1.0  0.15530  0.72599  0.18642  1.0000
  H   H498      1.0  0.14792  0.75601  0.21301  1.0000
  H   H499      1.0  0.12127  0.74323  0.21204  1.0000
  H   H500      1.0  0.13834  0.70873  0.17739  1.0000
  H   H501      1.0  0.16479  0.72117  0.17910  1.0000
  H   H502      1.0  0.02167  0.71275  0.19133  1.0000
  N   N40       1.0  0.14417  0.74620  0.12460  1.0000
  C   C493      1.0  0.14646  0.98742  0.09056  1.0000
  H   H503      1.0  0.17008  0.69319  0.98821  1.0000
  N   N41       1.0  0.01368  0.67143  0.01417  1.0000
  H   H504      1.0  0.13384  0.87986  0.22244  1.0000
  H   H505      1.0  0.12773  0.75745  0.11125  1.0000
  C   C494      1.0  0.10276  0.93923  0.23371  1.0000
  C   C495      1.0  0.14727  0.81786  0.24744  1.0000
  C   C496      1.0  0.15283  0.81645  0.27171  1.0000
  C   C497      1.0  0.14553  0.82111  0.29494  1.0000
  C   C498      1.0  0.13282  0.82746  0.29381  1.0000
  C   C499      1.0  0.12724  0.82882  0.26956  1.0000
  C   C500      1.0  0.13439  0.82392  0.24651  1.0000
  H   H506      1.0  0.16289  0.81201  0.27234  1.0000
  H   H507      1.0  0.14993  0.82012  0.31362  1.0000
  H   H508      1.0  0.11741  0.83361  0.26857  1.0000
  H   H509      1.0  0.13006  0.82503  0.22775  1.0000
  C   C501      1.0  0.99412  0.73222  0.12563  1.0000
  N   N42       1.0  0.04302  0.84401  0.37429  1.0000
  C   C502      1.0  0.04976  0.84781  0.39486  1.0000
  C   C503      1.0  0.04195  0.82963  0.36928  1.0000
  C   C504      1.0  0.05546  0.83702  0.41136  1.0000
  C   C505      1.0  0.04751  0.81853  0.38541  1.0000
  C   C506      1.0  0.05430  0.82229  0.40659  1.0000
  C   C507      1.0  0.03771  0.85579  0.35665  1.0000
  H   H510      1.0  0.05112  0.85939  0.39818  1.0000
  C   C508      1.0  0.15949  0.85750  0.22094  1.0000
  H   H511      1.0  0.06120  0.84031  0.42709  1.0000
  H   H512      1.0  0.04689  0.80726  0.38099  1.0000
  H   H513      1.0  0.05902  0.81396  0.41881  1.0000
  H   H514      1.0  0.21475  0.67936  0.37449  1.0000
  H   H515      1.0  0.06187  0.82069  0.13918  1.0000
  S   S178      1.0  0.09868  0.67424  0.11276  1.0000
  H   H516      1.0  0.03125  0.86198  0.36987  1.0000
  C   C509      1.0  0.04372  0.66724  0.12481  1.0000
  C   C510      1.0  0.98755  0.74087  0.14284  1.0000
  H   H517      1.0  0.09029  0.93845  0.23586  1.0000
  H   H518      1.0  0.01276  0.85210  0.12879  1.0000
  C   C511      1.0  0.99040  0.70729  0.18315  1.0000
  H   H519      1.0  0.16502  0.85099  0.20785  1.0000
  C   C512      1.0  0.11853  0.96633  0.21785  1.0000
  H   H520      1.0  0.98983  0.71368  0.10487  1.0000
  C   C513      1.0  0.22350  0.71876  0.35880  1.0000
  S   S179      1.0  0.08651  0.98031  0.99885  1.0000
  H   H521      1.0  0.19021  0.71011  0.33864  1.0000
  Fe  Fe82      1.0  0.99189  0.77258  0.17464  1.0000
  H   H522      1.0  0.14674  0.86546  0.19147  1.0000
  S   S180      1.0  0.98822  0.82681  0.12304  1.0000
  N   N43       1.0  0.04162  0.82877  0.14895  1.0000
  C   C514      1.0  0.03749  0.82893  0.12404  1.0000
  C   C515      1.0  0.03565  0.83692  0.16672  1.0000
  C   C516      1.0  0.99136  0.68219  0.15995  1.0000
  C   C517      1.0  0.02528  0.84552  0.15970  1.0000
  H   H523      1.0  0.99189  0.67242  0.15072  1.0000
  C   C518      1.0  0.05178  0.81906  0.15720  1.0000
  H   H524      1.0  0.04181  0.82207  0.11039  1.0000
  H   H525      1.0  0.03860  0.83652  0.18680  1.0000
  Fe  Fe83      1.0  0.10058  0.66702  0.15765  1.0000
  H   H526      1.0  0.02029  0.85164  0.17417  1.0000
  H   H527      1.0  0.03000  0.85054  0.34465  1.0000
  C   C519      1.0  0.22486  0.70367  0.36829  1.0000
  H   H528      1.0  0.01052  0.69414  0.00148  1.0000
  C   C520      1.0  0.22611  0.76340  0.34405  1.0000
  N   N44       1.0  0.14183  0.77031  0.30951  1.0000
  C   C521      1.0  0.13303  0.77528  0.29209  1.0000
  C   C522      1.0  0.14464  0.75593  0.31174  1.0000
  C   C523      1.0  0.12662  0.76567  0.27660  1.0000
  C   C524      1.0  0.13835  0.74599  0.29665  1.0000
  C   C525      1.0  0.12929  0.75093  0.27896  1.0000
  C   C526      1.0  0.14929  0.78094  0.32404  1.0000
  H   H529      1.0  0.13118  0.78685  0.28962  1.0000
  H   H530      1.0  0.15224  0.75230  0.32447  1.0000
  H   H531      1.0  0.11994  0.76981  0.26235  1.0000
  H   H532      1.0  0.14091  0.73476  0.29792  1.0000
  H   H533      1.0  0.12467  0.74348  0.26660  1.0000
  H   H534      1.0  0.16045  0.78841  0.30962  1.0000
  H   H535      1.0  0.14182  0.78845  0.33071  1.0000
  H   H536      1.0  0.15186  0.77446  0.34330  1.0000
  C   C527      1.0  0.01867  0.71592  0.17078  1.0000
  N   N45       1.0  0.15466  0.86488  0.26483  1.0000
  H   H537      1.0  0.01599  0.69027  0.15200  1.0000
  H   H538      1.0  0.01987  0.66637  0.05347  1.0000
  C   C528      1.0  0.13273  0.98711  0.05289  1.0000
  H   H539      1.0  0.13151  0.66115  0.12209  1.0000
  C   C529      1.0  0.02109  0.84580  0.13427  1.0000
  Fe  Fe84      1.0  0.11157  0.98079  0.99599  1.0000
  C   C530      1.0  0.14916  0.86552  0.21186  1.0000
  H   H540      1.0  0.12192  0.66905  0.01776  1.0000
  C   C531      1.0  0.18948  0.68014  0.35532  1.0000
  H   H541      1.0  0.98991  0.71730  0.19165  1.0000
  H   H542      1.0  0.18008  0.75995  0.13177  1.0000
  H   H543      1.0  0.18471  0.73848  0.11017  1.0000
  H   H544      1.0  0.18752  0.68155  0.33378  1.0000
  Fe  Fe85      1.0  0.00382  0.79689  0.20584  1.0000
  C   C532      1.0  0.15607  0.75552  0.13090  1.0000
  C   C533      1.0  0.98468  0.72049  0.11759  1.0000
  H   H545      1.0  0.15411  0.76468  0.14097  1.0000
  C   C534      1.0  0.19999  0.70820  0.34678  1.0000
  C   C535      1.0  0.16218  0.85737  0.24761  1.0000
  C   C536      1.0  0.00495  0.69239  0.16051  1.0000
  S   S181      1.0  0.02570  0.80471  0.22135  1.0000
  H   H546      1.0  0.03707  0.82676  0.35234  1.0000
  Fe  Fe86      1.0  0.16887  0.99050  0.19968  1.0000
  H   H547      1.0  0.05621  0.82188  0.17520  1.0000
  S   S182      1.0  0.15191  0.97355  0.23935  1.0000
  H   H548      1.0  0.12660  0.75388  0.14891  1.0000
  C   C537      1.0  0.13746  0.97922  0.07577  1.0000
  C   C538      1.0  0.03330  0.81641  0.24276  1.0000
  H   H549      1.0  0.04784  0.86435  0.34090  1.0000
  S   S183      1.0  0.17459  0.98480  0.15770  1.0000
  H   H550      1.0  0.16773  0.87432  0.29069  1.0000
  N   N46       1.0  0.20145  0.69343  0.35603  1.0000
  C   C539      1.0  0.10147  0.86835  0.47796  1.0000
  C   C540      1.0  0.17340  0.74083  0.11366  1.0000
  C   C541      1.0  0.14669  0.73455  0.11219  1.0000
  H   H551      1.0  0.00655  0.73436  0.11903  1.0000
  H   H552      1.0  0.16308  0.72214  0.09740  1.0000
  H   H553      1.0  0.11960  0.73818  0.13503  1.0000
  C   C542      1.0  0.17085  0.75296  0.12559  1.0000
  S   S184      1.0  0.00888  0.79616  0.15996  1.0000
  C   C543      1.0  0.14187  0.87350  0.22924  1.0000
  H   H554      1.0  0.01272  0.82356  0.25717  1.0000
  C   C544      1.0  0.14485  0.87314  0.25574  1.0000
  C   C545      1.0  0.98762  0.84148  0.06939  1.0000
  H   H555      1.0  0.13415  0.96662  0.08202  1.0000
  H   H556      1.0  0.98402  0.80266  0.09248  1.0000
  C   C546      1.0  0.12881  0.74916  0.13006  1.0000
  N   N47       1.0  0.00434  0.70500  0.17125  1.0000
  H   H557      1.0  0.13736  0.72730  0.10672  1.0000
  C   C547      1.0  0.12729  0.97961  0.19648  1.0000
  C   C548      1.0  0.00779  0.66545  0.99445  1.0000
  H   H558      1.0  0.17847  0.67912  0.37086  1.0000
  H   H559      1.0  0.10531  0.92844  0.22898  1.0000
  H   H560      1.0  0.02357  0.83723  0.09693  1.0000
  S   S185      1.0  0.22819  0.68922  0.44098  1.0000
  C   C549      1.0  0.20124  0.98668  0.08489  1.0000
  H   H561      1.0  0.19424  0.97563  0.09910  1.0000
  H   H562      1.0  0.01738  0.72806  0.16691  1.0000
  H   H563      1.0  0.11735  0.96662  0.23982  1.0000
  Fe  Fe87      1.0  0.98829  0.80555  0.15660  1.0000
  H   H564      1.0  0.19263  0.66892  0.36119  1.0000
  H   H565      1.0  0.12380  0.96546  0.13958  1.0000
  H   H566      1.0  0.15714  0.66889  0.08760  1.0000
  C   C550      1.0  0.22814  0.76970  0.31497  1.0000
  C   C551      1.0  0.12245  0.96580  0.16153  1.0000
  H   H567      1.0  0.16453  0.65860  0.01936  1.0000
  S   S186      1.0  0.98639  0.68504  0.06984  1.0000
  H   H568      1.0  0.03036  0.69280  0.99298  1.0000
  H   H569      1.0  0.15011  0.98111  0.10779  1.0000
  C   C552      1.0  0.98584  0.84222  0.04176  1.0000
  H   H570      1.0  0.98942  0.85202  0.07649  1.0000
  H   H571      1.0  0.02043  0.69170  0.02885  1.0000
  C   C553      1.0  0.12925  0.97934  0.16815  1.0000
  C   C554      1.0  0.14764  0.66090  0.08396  1.0000
  C   C555      1.0  0.16519  0.65901  0.04124  1.0000
  C   C556      1.0  0.21104  0.66193  0.43457  1.0000
  C   C557      1.0  0.01494  0.66170  0.03804  1.0000
  C   C558      1.0  0.98691  0.82723  0.08791  1.0000
  H   H572      1.0  0.98632  0.85324  0.02777  1.0000
  H   H573      1.0  0.23203  0.72861  0.36013  1.0000
  S   S187      1.0  0.98430  0.80802  0.20130  1.0000
  H   H574      1.0  0.13608  0.98959  0.15140  1.0000
  H   H575      1.0  0.13277  0.98992  0.20202  1.0000
  C   C559      1.0  0.18539  0.65790  0.42567  1.0000
  Fe  Fe88      1.0  0.23378  0.71517  0.44060  1.0000
  Fe  Fe89      1.0  0.18400  0.79463  0.63582  1.0000
  S   S188      1.0  0.17716  0.78898  0.68333  1.0000
  S   S189      1.0  0.17831  0.81301  0.60436  1.0000
  Fe  Fe90      1.0  0.20501  0.77292  0.63476  1.0000
  S   S190      1.0  0.20024  0.76569  0.68217  1.0000
  S   S191      1.0  0.20829  0.74646  0.49784  1.0000
  Fe  Fe91      1.0  0.17551  0.76413  0.68164  1.0000
  S   S192      1.0  0.15722  0.74453  0.71469  1.0000
  Fe  Fe92      1.0  0.20239  0.79093  0.68039  1.0000
  H   H576      1.0  0.19779  0.73557  0.65635  1.0000
  S   S193      1.0  0.18010  0.76960  0.63414  1.0000
  S   S194      1.0  0.20943  0.79841  0.63289  1.0000
  S   S195      1.0  0.21011  0.96788  0.74879  1.0000
  H   H577      1.0  0.15450  0.94890  0.81281  1.0000
  C   C560      1.0  0.12192  0.95886  0.72519  1.0000
  S   S196      1.0  0.13108  0.67936  0.69170  1.0000
  Fe  Fe93      1.0  0.11517  0.65879  0.72672  1.0000
  Fe  Fe94      1.0  0.17161  0.67298  0.94591  1.0000
  C   C561      1.0  0.12540  0.97816  0.85727  1.0000
  S   S197      1.0  0.11142  0.96467  0.96688  1.0000
  H   H578      1.0  0.05105  0.66260  0.73668  1.0000
  C   C562      1.0  0.12182  0.90604  0.48820  1.0000
  S   S198      1.0  0.20797  0.67540  0.88790  1.0000
  C   C563      1.0  0.99783  0.81477  0.94162  1.0000
  S   S199      1.0  0.18190  0.69344  0.90805  1.0000
  Fe  Fe95      1.0  0.18402  0.67568  0.88316  1.0000
  S   S200      1.0  0.17670  0.67936  0.84171  1.0000
  Fe  Fe96      1.0  0.20499  0.69166  0.91615  1.0000
  C   C564      1.0  0.99717  0.92306  0.96423  1.0000
  H   H579      1.0  0.18931  0.78290  0.50633  1.0000
  Fe  Fe97      1.0  0.10351  0.86893  0.55477  1.0000
  S   S201      1.0  0.09048  0.84760  0.59052  1.0000
  Fe  Fe98      1.0  0.11158  0.88861  0.59672  1.0000
  S   S202      1.0  0.09904  0.86859  0.63443  1.0000
  S   S203      1.0  0.12175  0.91346  0.59997  1.0000
  Fe  Fe99      1.0  0.11010  0.85369  0.61039  1.0000
  S   S204      1.0  0.11652  0.83414  0.63803  1.0000
  Fe  Fe100     1.0  0.08028  0.86388  0.61210  1.0000
  S   S205      1.0  0.05615  0.85838  0.64177  1.0000
  S   S206      1.0  0.12403  0.87398  0.57369  1.0000
  S   S207      1.0  0.09198  0.88509  0.57519  1.0000
  S   S208      1.0  0.00039  0.79842  0.66788  1.0000
  H   H580      1.0  0.12847  0.81069  0.66726  1.0000
  C   C565      1.0  0.13863  0.98021  0.80826  1.0000
  H   H581      1.0  0.15147  0.90289  0.51858  1.0000
  H   H582      1.0  0.01175  0.86644  0.72108  1.0000
  C   C566      1.0  0.01044  0.85456  0.63575  1.0000
  S   S209      1.0  0.22326  0.71474  0.90791  1.0000
  C   C567      1.0  0.03302  0.91092  0.96211  1.0000
  H   H583      1.0  0.22833  0.81899  0.74412  1.0000
  C   C568      1.0  0.03925  0.66328  0.74421  1.0000
  C   C569      1.0  0.16208  0.96541  0.86530  1.0000
  H   H584      1.0  0.11107  0.96771  0.69303  1.0000
  H   H585      1.0  0.04555  0.67959  0.76793  1.0000
  Fe  Fe101     1.0  0.00350  0.88192  0.92495  1.0000
  S   S210      1.0  0.02471  0.90309  0.91450  1.0000
  S   S211      1.0  0.00498  0.85726  0.92643  1.0000
  H   H586      1.0  0.11170  0.93967  0.52411  1.0000
  C   C570      1.0  0.05783  0.93622  0.92932  1.0000
  C   C571      1.0  0.04868  0.92683  0.91629  1.0000
  C   C572      1.0  0.03624  0.91405  0.93250  1.0000
  H   H587      1.0  0.22732  0.79667  0.56054  1.0000
  H   H588      1.0  0.15403  0.68193  0.73978  1.0000
  H   H589      1.0  0.06736  0.94589  0.91642  1.0000
  H   H590      1.0  0.05134  0.92948  0.89340  1.0000
  H   H591      1.0  0.17611  0.80269  0.54975  1.0000
  Fe  Fe102     1.0  0.17058  0.96487  0.69066  1.0000
  C   C573      1.0  0.21210  0.74940  0.52979  1.0000
  C   C574      1.0  0.17726  0.69760  0.67616  1.0000
  C   C575      1.0  0.17573  0.96534  0.81037  1.0000
  H   H592      1.0  0.98589  0.84815  0.74546  1.0000
  H   H593      1.0  0.00060  0.82570  0.82219  1.0000
  C   C576      1.0  0.20004  0.83476  0.70176  1.0000
  C   C577      1.0  0.20007  0.75076  0.55084  1.0000
  H   H594      1.0  0.08080  0.87443  0.49587  1.0000
  C   C578      1.0  0.14163  0.90675  0.51362  1.0000
  C   C579      1.0  0.04193  0.84055  0.64997  1.0000
  C   C580      1.0  0.03091  0.83565  0.67633  1.0000
  C   C581      1.0  0.01815  0.82272  0.68226  1.0000
  C   C582      1.0  0.01636  0.81452  0.66183  1.0000
  C   C583      1.0  0.02767  0.81910  0.63585  1.0000
  C   C584      1.0  0.04043  0.83203  0.62994  1.0000
  H   H595      1.0  0.03212  0.84206  0.69210  1.0000
  H   H596      1.0  0.00965  0.81917  0.70250  1.0000
  H   H597      1.0  0.02642  0.81274  0.62000  1.0000
  H   H598      1.0  0.04879  0.83571  0.60951  1.0000
  C   C585      1.0  0.13311  0.92122  0.62164  1.0000
  C   C586      1.0  0.13943  0.91201  0.63993  1.0000
  C   C587      1.0  0.14860  0.91878  0.65610  1.0000
  C   C588      1.0  0.15151  0.93483  0.65455  1.0000
  C   C589      1.0  0.14508  0.94402  0.63645  1.0000
  C   C590      1.0  0.13602  0.93727  0.62008  1.0000
  H   H599      1.0  0.13741  0.89968  0.64140  1.0000
  H   H600      1.0  0.15349  0.91150  0.66993  1.0000
  H   H601      1.0  0.14058  0.92049  0.54374  1.0000
  H   H602      1.0  0.13126  0.94458  0.60602  1.0000
  H   H603      1.0  0.00056  0.93685  0.87427  1.0000
  C   C591      1.0  0.20374  0.79433  0.55767  1.0000
  S   S212      1.0  0.17047  0.95916  0.73683  1.0000
  H   H604      1.0  0.00879  0.84297  0.63107  1.0000
  C   C592      1.0  0.00541  0.85986  0.70937  1.0000
  C   C593      1.0  0.21302  0.78621  0.50754  1.0000
  H   H605      1.0  0.20762  0.97777  0.81077  1.0000
  C   C594      1.0  0.15784  0.66863  0.80982  1.0000
  H   H606      1.0  0.12236  0.96881  0.73417  1.0000
  H   H607      1.0  0.16242  0.68017  0.79556  1.0000
  Fe  Fe103     1.0  0.16020  0.97914  0.74073  1.0000
  C   C595      1.0  0.00915  0.66403  0.76653  1.0000
  H   H608      1.0  0.15256  0.67547  0.89587  1.0000
  C   C596      1.0  0.05470  0.93303  0.95893  1.0000
  H   H609      1.0  0.18922  0.73171  0.70865  1.0000
  H   H610      1.0  0.15782  0.67293  0.71159  1.0000
  H   H611      1.0  0.18974  0.71364  0.63551  1.0000
  C   C597      1.0  0.18637  0.71198  0.65831  1.0000
  H   H612      1.0  0.14221  0.94917  0.86199  1.0000
  H   H613      1.0  0.17887  0.81734  0.70840  1.0000
  N   N48       1.0  0.13406  0.67218  0.87589  1.0000
  C   C598      1.0  0.21802  0.75748  0.57882  1.0000
  C   C599      1.0  0.17708  0.79046  0.55368  1.0000
  C   C600      1.0  0.20302  0.75482  0.57525  1.0000
  S   S213      1.0  0.16254  0.94240  0.67682  1.0000
  H   H614      1.0  0.19371  0.75606  0.59106  1.0000
  C   C601      1.0  0.14912  0.72690  0.70739  1.0000
  C   C602      1.0  0.13948  0.71451  0.72988  1.0000
  C   C603      1.0  0.13345  0.70002  0.72520  1.0000
  C   C604      1.0  0.13704  0.69782  0.69795  1.0000
  C   C605      1.0  0.14640  0.71033  0.67534  1.0000
  C   C606      1.0  0.15246  0.72482  0.68003  1.0000
  H   H615      1.0  0.13678  0.71609  0.75106  1.0000
  H   H616      1.0  0.12619  0.69054  0.74272  1.0000
  H   H617      1.0  0.14915  0.70873  0.65418  1.0000
  H   H618      1.0  0.15980  0.73433  0.66253  1.0000
  H   H619      1.0  0.12096  0.92350  0.69363  1.0000
  C   C607      1.0  0.11579  0.93107  0.53805  1.0000
  H   H620      1.0  0.13726  0.91490  0.72127  1.0000
  H   H621      1.0  0.17751  0.82526  0.65852  1.0000
  C   C608      1.0  0.17691  0.97484  0.85098  1.0000
  C   C609      1.0  0.13377  0.82849  0.62808  1.0000
  C   C610      1.0  0.14449  0.83572  0.60191  1.0000
  C   C611      1.0  0.15806  0.83078  0.59478  1.0000
  C   C612      1.0  0.16099  0.81863  0.61374  1.0000
  C   C613      1.0  0.15030  0.81144  0.63991  1.0000
  C   C614      1.0  0.13674  0.81636  0.64702  1.0000
  H   H622      1.0  0.14228  0.84504  0.58717  1.0000
  H   H623      1.0  0.16629  0.83640  0.57448  1.0000
  H   H624      1.0  0.15239  0.80202  0.65462  1.0000
  H   H625      1.0  0.18849  0.74899  0.54793  1.0000
  H   H626      1.0  0.14862  0.69528  0.85969  1.0000
  Fe  Fe104     1.0  0.08686  0.96583  0.96691  1.0000
  N   N49       1.0  0.19317  0.79023  0.54291  1.0000
  H   H627      1.0  0.00689  0.67317  0.97540  1.0000
  H   H628      1.0  0.18100  0.96524  0.78890  1.0000
  H   H629      1.0  0.23266  0.82041  0.65621  1.0000
  H   H630      1.0  0.11740  0.68102  0.81072  1.0000
  H   H631      1.0  0.20379  0.86006  0.60562  1.0000
  C   C615      1.0  0.12193  0.67862  0.82921  1.0000
  H   H632      1.0  0.17336  0.70613  0.73920  1.0000
  S   S214      1.0  0.10936  0.86741  0.50824  1.0000
  S   S215      1.0  0.09430  0.98702  0.92951  1.0000
  H   H633      1.0  0.02745  0.69353  0.78737  1.0000
  H   H634      1.0  0.02312  0.85999  0.62931  1.0000
  H   H635      1.0  0.20292  0.84008  0.60465  1.0000
  N   N50       1.0  0.99686  0.92306  0.91617  1.0000
  H   H636      1.0  0.23085  0.76848  0.90143  1.0000
  H   H637      1.0  0.98874  0.80587  0.87366  1.0000
  N   N51       1.0  0.17271  0.69561  0.70486  1.0000
  C   C616      1.0  0.22703  0.75157  0.53373  1.0000
  H   H638      1.0  0.02301  0.86930  0.67009  1.0000
  C   C617      1.0  0.19765  0.84769  0.61626  1.0000
  S   S216      1.0  0.98931  0.88152  0.89262  1.0000
  H   H639      1.0  0.02112  0.81425  0.92352  1.0000
  N   N52       1.0  0.12790  0.93437  0.72467  1.0000
  C   C618      1.0  0.12119  0.93336  0.70274  1.0000
  C   C619      1.0  0.12808  0.94677  0.73622  1.0000
  C   C620      1.0  0.11511  0.94535  0.69091  1.0000
  H   H640      1.0  0.11035  0.94475  0.67282  1.0000
  H   H641      1.0  0.13322  0.94748  0.75384  1.0000
  C   C621      1.0  0.13457  0.92193  0.73652  1.0000
  H   H642      1.0  0.21990  0.86010  0.63856  1.0000
  C   C622      1.0  0.18702  0.83152  0.66508  1.0000
  C   C623      1.0  0.22904  0.81808  0.70104  1.0000
  S   S217      1.0  0.19430  0.67229  0.95633  1.0000
  C   C624      1.0  0.01796  0.68277  0.79246  1.0000
  H   H643      1.0  0.19989  0.98936  0.78603  1.0000
  S   S218      1.0  0.19467  0.98110  0.67817  1.0000
  C   C625      1.0  0.22995  0.75554  0.55828  1.0000
  N   N53       1.0  0.19832  0.84350  0.64591  1.0000
  C   C626      1.0  0.01166  0.86146  0.68053  1.0000
  C   C627      1.0  0.21065  0.85097  0.65392  1.0000
  C   C628      1.0  0.99095  0.84960  0.72307  1.0000
  C   C629      1.0  0.21162  0.84682  0.68200  1.0000
  S   S219      1.0  0.14816  0.66925  0.97543  1.0000
  S   S220      1.0  0.99441  0.84409  0.86148  1.0000
  C   C630      1.0  0.14025  0.66891  0.90079  1.0000
  H   H644      1.0  0.22702  0.70254  0.96496  1.0000
  N   N54       1.0  0.02116  0.67331  0.77260  1.0000
  S   S221      1.0  0.15878  0.98398  0.69536  1.0000
  N   N55       1.0  0.18343  0.97487  0.82371  1.0000
  H   H645      1.0  0.15663  0.96597  0.88644  1.0000
  H   H646      1.0  0.01661  0.67589  0.81442  1.0000
  H   H647      1.0  0.13793  0.70128  0.81808  1.0000
  H   H648      1.0  0.00716  0.68648  0.79148  1.0000
  H   H649      1.0  0.12649  0.91422  0.75652  1.0000
  C   C631      1.0  0.18619  0.72213  0.69930  1.0000
  H   H650      1.0  0.14715  0.95636  0.63494  1.0000
  H   H651      1.0  0.11568  0.96579  0.82982  1.0000
  H   H652      1.0  0.10536  0.91893  0.49928  1.0000
  H   H653      1.0  0.01653  0.93409  0.92825  1.0000
  H   H654      1.0  0.14210  0.66081  0.78559  1.0000
  C   C632      1.0  0.13939  0.68655  0.85698  1.0000
  H   H655      1.0  0.12428  0.93768  0.54718  1.0000
  C   C633      1.0  0.17712  0.70762  0.71651  1.0000
  C   C634      1.0  0.03605  0.67291  0.76193  1.0000
  C   C635      1.0  0.98956  0.82807  0.82138  1.0000
  C   C636      1.0  0.21743  0.74848  0.93494  1.0000
  Fe  Fe105     1.0  0.98909  0.85630  0.89711  1.0000
  H   H656      1.0  0.02352  0.90122  0.97502  1.0000
  C   C637      1.0  0.22637  0.98020  0.75392  1.0000
  H   H657      1.0  0.13355  0.67228  0.91869  1.0000
  N   N56       1.0  0.12265  0.92118  0.52225  1.0000
  H   H658      1.0  0.07094  0.82658  0.70699  1.0000
  C   C638      1.0  0.13344  0.68998  0.83334  1.0000
  C   C639      1.0  0.11556  0.95821  0.70217  1.0000
  S   S222      1.0  0.22238  0.76397  0.60791  1.0000
  H   H659      1.0  0.22154  0.85257  0.68822  1.0000
  H   H660      1.0  0.18547  0.84611  0.61476  1.0000
  C   C640      1.0  0.16349  0.68043  0.72352  1.0000
  C   C641      1.0  0.15398  0.95599  0.85156  1.0000
  C   C642      1.0  0.19766  0.78634  0.51798  1.0000
  C   C643      1.0  0.00948  0.81284  0.92086  1.0000
  C   C644      1.0  0.21527  0.74031  0.96301  1.0000
  H   H661      1.0  0.17091  0.67433  0.73428  1.0000
  C   C645      1.0  0.19087  0.72430  0.67001  1.0000
  H   H662      1.0  0.16915  0.78385  0.54364  1.0000
  C   C646      1.0  0.12559  0.97403  0.83152  1.0000
  H   H663      1.0  0.20094  0.83103  0.72338  1.0000
  H   H664      1.0  0.23161  0.96135  0.78130  1.0000
  H   H665      1.0  0.20691  0.72906  0.97161  1.0000
  C   C647      1.0  0.18768  0.82702  0.69331  1.0000
  H   H666      1.0  0.10592  0.92369  0.55594  1.0000
  C   C648      1.0  0.13536  0.91665  0.52786  1.0000
  H   H667      1.0  0.01751  0.93144  0.88224  1.0000
  H   H668      1.0  0.17352  0.68817  0.66686  1.0000
  C   C649      1.0  0.11651  0.66403  0.84868  1.0000
  H   H669      1.0  0.20018  0.79747  0.57734  1.0000
  Fe  Fe106     1.0  0.19349  0.97660  0.72494  1.0000
  S   S223      1.0  0.13879  0.97370  0.77715  1.0000
  H   H670      1.0  0.00264  0.91717  0.87706  1.0000
  S   S224      1.0  0.21315  0.80156  0.71152  1.0000
  H   H671      1.0  0.00479  0.86189  0.62269  1.0000
  N   N57       1.0  0.06683  0.81635  0.67345  1.0000
  C   C650      1.0  0.07406  0.81301  0.64948  1.0000
  C   C651      1.0  0.05176  0.80871  0.68702  1.0000
  C   C652      1.0  0.06622  0.80170  0.63859  1.0000
  C   C653      1.0  0.04362  0.79720  0.67690  1.0000
  C   C654      1.0  0.05089  0.79377  0.65242  1.0000
  C   C655      1.0  0.07494  0.82886  0.68361  1.0000
  H   H672      1.0  0.08595  0.81917  0.63853  1.0000
  H   H673      1.0  0.04584  0.81171  0.70546  1.0000
  H   H674      1.0  0.07199  0.79924  0.61940  1.0000
  H   H675      1.0  0.03157  0.79136  0.68740  1.0000
  H   H676      1.0  0.04455  0.78515  0.64399  1.0000
  H   H677      1.0  0.08762  0.83001  0.67838  1.0000
  H   H678      1.0  0.07290  0.84009  0.67347  1.0000
  H   H679      1.0  0.11544  0.97303  0.87524  1.0000
  C   C656      1.0  0.22889  0.76252  0.92355  1.0000
  C   C657      1.0  0.04216  0.92032  0.97513  1.0000
  H   H680      1.0  0.14579  0.92701  0.74061  1.0000
  C   C658      1.0  0.00451  0.92750  0.93525  1.0000
  C   C659      1.0  0.11575  0.91582  0.50301  1.0000
  C   C660      1.0  0.13481  0.90145  0.49364  1.0000
  C   C661      1.0  0.16085  0.95587  0.82397  1.0000
  H   H681      1.0  0.21639  0.78243  0.48844  1.0000
  H   H682      1.0  0.01517  0.80823  0.87983  1.0000
  N   N58       1.0  0.00385  0.85282  0.66595  1.0000
  H   H683      1.0  0.18295  0.98240  0.86162  1.0000
  H   H684      1.0  0.17306  0.78507  0.57694  1.0000
  C   C662      1.0  0.19900  0.98471  0.80895  1.0000
  C   C663      1.0  0.22379  0.79004  0.52282  1.0000
  C   C664      1.0  0.21916  0.79417  0.54801  1.0000
  H   H685      1.0  0.21081  0.74352  0.92171  1.0000
  C   C665      1.0  0.16320  0.66484  0.83422  1.0000
  C   C666      1.0  0.00613  0.80938  0.89645  1.0000
  C   C667      1.0  0.13825  0.98858  0.85989  1.0000
  C   C668      1.0  0.98963  0.84281  0.67920  1.0000
  S   S225      1.0  0.06583  0.94443  0.97692  1.0000
  H   H686      1.0  0.00034  0.81767  0.96053  1.0000
  C   C669      1.0  0.00475  0.92745  0.88589  1.0000
  C   C670      1.0  0.99112  0.80797  0.89314  1.0000
  H   H687      1.0  0.99731  0.66400  0.77562  1.0000
  H   H688      1.0  0.98628  0.81534  0.78989  1.0000
  S   S226      1.0  0.10779  0.65887  0.77232  1.0000
  Fe  Fe107     1.0  0.11866  0.98660  0.93108  1.0000
  H   H689      1.0  0.13920  0.89333  0.48309  1.0000
  H   H690      1.0  0.00351  0.92613  0.97930  1.0000
  C   C671      1.0  0.22452  0.74624  0.97934  1.0000
  C   C672      1.0  0.12268  0.66102  0.87215  1.0000
  C   C673      1.0  0.15134  0.99092  0.81066  1.0000
  C   C674      1.0  0.14634  0.65772  0.80415  1.0000
  Fe  Fe108     1.0  0.39414  0.21952  0.24655  1.0000
  S   S227      1.0  0.37987  0.21926  0.28903  1.0000
  S   S228      1.0  0.40113  0.24004  0.20779  1.0000
  Fe  Fe109     1.0  0.39833  0.18726  0.26760  1.0000
  S   S229      1.0  0.38481  0.18502  0.31184  1.0000
  S   S230      1.0  0.40645  0.16591  0.26198  1.0000
  Fe  Fe110     1.0  0.36798  0.19455  0.29071  1.0000
  S   S231      1.0  0.34225  0.18280  0.31015  1.0000
  Fe  Fe111     1.0  0.39808  0.20972  0.30599  1.0000
  S   S232      1.0  0.40646  0.21780  0.34214  1.0000
  S   S233      1.0  0.38091  0.19560  0.24675  1.0000
  S   S234      1.0  0.41297  0.21122  0.26328  1.0000
  H   H691      1.0  0.31126  0.16365  0.33382  1.0000
  S   S235      1.0  0.47129  0.25828  0.34799  1.0000
  Fe  Fe112     1.0  0.41669  0.12345  0.14371  1.0000
  S   S236      1.0  0.40541  0.10046  0.17552  1.0000
  S   S237      1.0  0.41290  0.14709  0.14552  1.0000
  Fe  Fe113     1.0  0.43369  0.10908  0.10181  1.0000
  S   S238      1.0  0.42388  0.08465  0.12996  1.0000
  S   S239      1.0  0.44876  0.11406  0.05732  1.0000
  Fe  Fe114     1.0  0.40133  0.09121  0.13843  1.0000
  S   S240      1.0  0.37783  0.07510  0.14379  1.0000
  Fe  Fe115     1.0  0.42872  0.09549  0.16489  1.0000
  S   S241      1.0  0.43622  0.08226  0.20128  1.0000
  S   S242      1.0  0.41066  0.11468  0.10744  1.0000
  S   S243      1.0  0.44047  0.11942  0.13605  1.0000
  C   C675      1.0  0.25256  0.02372  0.09371  1.0000
  H   H692      1.0  0.44649  0.16905  0.99816  1.0000
  S   S244      1.0  0.40126  0.30812  0.22000  1.0000
  C   C676      1.0  0.24908  0.99195  0.11528  1.0000
  H   H693      1.0  0.23463  0.20057  0.17238  1.0000
  C   C677      1.0  0.44255  0.16990  0.01967  1.0000
  C   C678      1.0  0.47476  0.01438  0.23444  1.0000
  C   C679      1.0  0.25587  0.13502  0.42721  1.0000
  C   C680      1.0  0.36970  0.29726  0.19232  1.0000
  Fe  Fe116     1.0  0.27940  0.29816  0.08987  1.0000
  S   S245      1.0  0.30221  0.29557  0.06677  1.0000
  S   S246      1.0  0.26029  0.27703  0.11740  1.0000
  H   H694      1.0  0.45724  0.04650  0.26116  1.0000
  C   C681      1.0  0.44981  0.04312  0.21333  1.0000
  C   C682      1.0  0.41863  0.25248  0.27564  1.0000
  C   C683      1.0  0.26348  0.00150  0.09839  1.0000
  C   C684      1.0  0.44627  0.02385  0.28927  1.0000
  N   N59       1.0  0.47998  0.29903  0.47377  1.0000
  N   N60       1.0  0.24374  0.22326  0.10521  1.0000
  Fe  Fe117     1.0  0.33877  0.02906  0.04947  1.0000
  S   S247      1.0  0.31912  0.01752  0.08810  1.0000
  S   S248      1.0  0.36128  0.04660  0.04459  1.0000
  Fe  Fe118     1.0  0.32428  0.00987  0.01311  1.0000
  S   S249      1.0  0.27900  0.31863  0.05577  1.0000
  Fe  Fe119     1.0  0.30376  0.01976  0.05830  1.0000
  S   S250      1.0  0.28320  0.02990  0.06755  1.0000
  H   H695      1.0  0.47398  0.99714  0.31259  1.0000
  C   C685      1.0  0.46722  0.99238  0.27557  1.0000
  S   S251      1.0  0.32343  0.03323  0.02035  1.0000
  S   S252      1.0  0.34113  0.00660  0.03945  1.0000
  Fe  Fe120     1.0  0.27075  0.12759  0.28142  1.0000
  S   S253      1.0  0.25639  0.13565  0.31494  1.0000
  S   S254      1.0  0.29594  0.14074  0.25890  1.0000
  H   H696      1.0  0.29292  0.14718  0.31470  1.0000
  S   S255      1.0  0.25230  0.12376  0.25727  1.0000
  C   C686      1.0  0.24378  0.26718  0.10896  1.0000
  H   H697      1.0  0.27323  0.99656  0.09385  1.0000
  C   C687      1.0  0.37175  0.25736  0.18592  1.0000
  C   C688      1.0  0.47435  0.00199  0.29064  1.0000
  C   C689      1.0  0.44836  0.18375  0.02644  1.0000
  C   C690      1.0  0.24151  0.27066  0.08169  1.0000
  H   H698      1.0  0.27740  0.05551  0.14291  1.0000
  H   H699      1.0  0.41413  0.24017  0.28608  1.0000
  H   H700      1.0  0.24965  0.28021  0.06526  1.0000
  S   S256      1.0  0.33088  0.30719  0.11295  1.0000
  H   H701      1.0  0.38622  0.29983  0.14011  1.0000
  H   H702      1.0  0.39729  0.24693  0.32308  1.0000
  C   C691      1.0  0.35672  0.00427  0.10115  1.0000
  H   H703      1.0  0.46050  0.10641  0.26519  1.0000
  Fe  Fe121     1.0  0.24413  0.09909  0.28490  1.0000
  C   C692      1.0  0.24952  0.11113  0.41237  1.0000
  C   C693      1.0  0.26524  0.01741  0.08761  1.0000
  C   C694      1.0  0.25972  0.23477  0.13208  1.0000
  H   H704      1.0  0.37437  0.00162  0.05525  1.0000
  C   C695      1.0  0.46838  0.30285  0.45899  1.0000
  H   H705      1.0  0.30288  0.17019  0.46577  1.0000
  C   C696      1.0  0.34751  0.32163  0.11097  1.0000
  S   S257      1.0  0.26386  0.10233  0.30626  1.0000
  C   C697      1.0  0.43349  0.17213  0.07486  1.0000
  H   H706      1.0  0.28633  0.14799  0.44317  1.0000
  C   C698      1.0  0.46022  0.13315  0.04071  1.0000
  C   C699      1.0  0.46703  0.13735  0.01141  1.0000
  H   H707      1.0  0.23819  0.14954  0.23271  1.0000
  Fe  Fe122     1.0  0.48257  0.25568  0.44686  1.0000
  H   H708      1.0  0.48159  0.19378  0.42146  1.0000
  C   C700      1.0  0.46221  0.14434  0.05599  1.0000
  H   H709      1.0  0.47349  0.30605  0.43568  1.0000
  H   H710      1.0  0.36133  0.26692  0.21848  1.0000
  H   H711      1.0  0.45702  0.14122  0.07856  1.0000
  C   C701      1.0  0.37308  0.06819  0.11529  1.0000
  C   C702      1.0  0.38413  0.07097  0.08969  1.0000
  C   C703      1.0  0.38020  0.06460  0.06793  1.0000
  C   C704      1.0  0.36525  0.05535  0.07165  1.0000
  C   C705      1.0  0.35413  0.05272  0.09712  1.0000
  C   C706      1.0  0.35805  0.05915  0.11886  1.0000
  H   H712      1.0  0.39574  0.07791  0.08676  1.0000
  H   H713      1.0  0.38885  0.06670  0.04824  1.0000
  H   H714      1.0  0.34258  0.04564  0.10017  1.0000
  H   H715      1.0  0.34945  0.05699  0.13863  1.0000
  H   H716      1.0  0.25631  0.13408  0.38400  1.0000
  Fe  Fe123     1.0  0.31306  0.31219  0.08923  1.0000
  H   H717      1.0  0.43497  0.99992  0.31172  1.0000
  H   H718      1.0  0.46446  0.31280  0.46485  1.0000
  H   H719      1.0  0.44269  0.13471  0.18742  1.0000
  C   C707      1.0  0.24869  0.11028  0.46223  1.0000
  C   C708      1.0  0.47089  0.15965  0.04201  1.0000
  C   C709      1.0  0.46643  0.10010  0.18321  1.0000
  C   C710      1.0  0.45541  0.08779  0.20362  1.0000
  C   C711      1.0  0.45951  0.07999  0.22722  1.0000
  H   H720      1.0  0.46132  0.05123  0.20990  1.0000
  H   H721      1.0  0.46337  0.10615  0.16494  1.0000
  H   H722      1.0  0.45088  0.07073  0.24337  1.0000
  H   H723      1.0  0.27233  0.02076  0.14314  1.0000
  N   N61       1.0  0.25818  0.03623  0.15069  1.0000
  C   C712      1.0  0.47457  0.08441  0.23041  1.0000
  N   N62       1.0  0.37353  0.28463  0.18054  1.0000
  C   C713      1.0  0.42491  0.22827  0.34357  1.0000
  C   C714      1.0  0.43748  0.23423  0.31963  1.0000
  C   C715      1.0  0.45151  0.24342  0.32143  1.0000
  C   C716      1.0  0.45333  0.24646  0.34727  1.0000
  C   C717      1.0  0.44093  0.24013  0.37140  1.0000
  C   C718      1.0  0.42678  0.23123  0.36945  1.0000
  H   H724      1.0  0.43640  0.23184  0.29969  1.0000
  H   H725      1.0  0.46105  0.24817  0.30265  1.0000
  H   H726      1.0  0.44211  0.24234  0.39144  1.0000
  H   H727      1.0  0.41716  0.22666  0.38814  1.0000
  C   C719      1.0  0.40812  0.16089  0.22945  1.0000
  C   C720      1.0  0.41013  0.14612  0.22814  1.0000
  C   C721      1.0  0.41129  0.14168  0.20260  1.0000
  C   C722      1.0  0.41072  0.15207  0.17813  1.0000
  C   C723      1.0  0.40854  0.16677  0.17948  1.0000
  C   C724      1.0  0.40715  0.17115  0.20513  1.0000
  H   H728      1.0  0.41068  0.13807  0.24701  1.0000
  H   H729      1.0  0.41258  0.13022  0.20179  1.0000
  H   H730      1.0  0.40801  0.17483  0.16062  1.0000
  H   H731      1.0  0.40555  0.18253  0.20598  1.0000
  C   C725      1.0  0.40143  0.25889  0.21191  1.0000
  C   C726      1.0  0.39317  0.26119  0.23687  1.0000
  C   C727      1.0  0.39322  0.27636  0.23912  1.0000
  C   C728      1.0  0.40157  0.28930  0.21652  1.0000
  C   C729      1.0  0.40987  0.28701  0.19160  1.0000
  C   C730      1.0  0.40974  0.27184  0.18928  1.0000
  H   H732      1.0  0.38659  0.25131  0.25429  1.0000
  H   H733      1.0  0.38675  0.27807  0.25843  1.0000
  H   H734      1.0  0.41643  0.29692  0.17412  1.0000
  H   H735      1.0  0.41613  0.27014  0.16989  1.0000
  C   C731      1.0  0.32925  0.17199  0.29480  1.0000
  C   C732      1.0  0.33329  0.17149  0.26644  1.0000
  C   C733      1.0  0.32277  0.16226  0.25555  1.0000
  C   C734      1.0  0.30818  0.15331  0.27288  1.0000
  C   C735      1.0  0.30408  0.15399  0.30109  1.0000
  C   C736      1.0  0.31453  0.16331  0.31191  1.0000
  H   H736      1.0  0.34452  0.17815  0.25296  1.0000
  H   H737      1.0  0.32603  0.16190  0.23366  1.0000
  N   N63       1.0  0.35300  0.14092  0.25152  1.0000
  C   C737      1.0  0.36501  0.14911  0.25932  1.0000
  C   C738      1.0  0.33884  0.13459  0.27049  1.0000
  C   C739      1.0  0.36310  0.15092  0.28685  1.0000
  C   C740      1.0  0.33651  0.13624  0.29820  1.0000
  C   C741      1.0  0.34872  0.14455  0.30632  1.0000
  C   C742      1.0  0.35501  0.13988  0.22212  1.0000
  H   H738      1.0  0.37612  0.15449  0.24416  1.0000
  H   H739      1.0  0.32907  0.12875  0.26400  1.0000
  H   H740      1.0  0.37266  0.15749  0.29281  1.0000
  H   H741      1.0  0.32511  0.13173  0.31282  1.0000
  H   H742      1.0  0.34692  0.14653  0.32733  1.0000
  H   H743      1.0  0.35151  0.14960  0.20966  1.0000
  H   H744      1.0  0.36726  0.14054  0.21208  1.0000
  H   H745      1.0  0.34785  0.12865  0.22109  1.0000
  H   H746      1.0  0.37577  0.03573  0.13363  1.0000
  C   C743      1.0  0.48210  0.02393  0.24937  1.0000
  H   H747      1.0  0.25292  0.99741  0.17540  1.0000
  C   C744      1.0  0.38212  0.28792  0.15313  1.0000
  H   H748      1.0  0.42987  0.17278  0.09663  1.0000
  C   C745      1.0  0.25422  0.12739  0.40568  1.0000
  H   H749      1.0  0.42662  0.99339  0.27024  1.0000
  C   C746      1.0  0.45015  0.03500  0.26323  1.0000
  H   H750      1.0  0.42482  0.11107  0.22255  1.0000
  C   C747      1.0  0.23931  0.22358  0.07851  1.0000
  C   C748      1.0  0.23647  0.99831  0.12178  1.0000
  C   C749      1.0  0.37046  0.02663  0.12492  1.0000
  H   H751      1.0  0.47229  0.16828  0.05395  1.0000
  Fe  Fe124     1.0  0.32029  0.99526  0.07579  1.0000
  S   S258      1.0  0.24577  0.10090  0.38666  1.0000
  C   C750      1.0  0.25543  0.23494  0.10666  1.0000
  H   H752      1.0  0.36851  0.29446  0.21558  1.0000
  H   H753      1.0  0.35013  0.01780  0.15991  1.0000
  S   S259      1.0  0.30334  0.99650  0.04883  1.0000
  C   C751      1.0  0.43287  0.00518  0.26873  1.0000
  C   C752      1.0  0.43640  0.11542  0.22459  1.0000
  H   H754      1.0  0.24191  0.04910  0.16271  1.0000
  H   H755      1.0  0.45051  0.03778  0.19515  1.0000
  N   N64       1.0  0.41521  0.26332  0.28951  1.0000
  C   C753      1.0  0.40600  0.25820  0.31906  1.0000
  H   H756      1.0  0.41368  0.25649  0.33346  1.0000
  H   H757      1.0  0.39959  0.26677  0.32445  1.0000
  H   H758      1.0  0.25529  0.22216  0.17584  1.0000
  H   H759      1.0  0.45805  0.29285  0.46422  1.0000
  C   C754      1.0  0.42668  0.14293  0.03284  1.0000
  N   N65       1.0  0.46653  0.12554  0.22844  1.0000
  H   H760      1.0  0.27690  0.04671  0.11363  1.0000
  C   C755      1.0  0.45659  0.11284  0.24836  1.0000
  C   C756      1.0  0.37844  0.01335  0.05852  1.0000
  C   C757      1.0  0.26145  0.02201  0.15479  1.0000
  H   H761      1.0  0.37583  0.02205  0.04216  1.0000
  N   N66       1.0  0.43265  0.15740  0.04015  1.0000
  H   H762      1.0  0.26407  0.05856  0.12122  1.0000
  C   C758      1.0  0.36811  0.26956  0.19674  1.0000
  C   C759      1.0  0.34908  0.00535  0.12766  1.0000
  C   C760      1.0  0.23640  0.01019  0.18761  1.0000
  C   C761      1.0  0.44384  0.18482  0.05426  1.0000
  H   H763      1.0  0.27946  0.30665  0.99878  1.0000
  H   H764      1.0  0.43418  0.14204  0.01301  1.0000
  C   C762      1.0  0.23649  0.21095  0.12833  1.0000
  H   H765      1.0  0.28731  0.12185  0.43733  1.0000
  C   C763      1.0  0.24447  0.03781  0.16542  1.0000
  H   H766      1.0  0.42652  0.13267  0.04962  1.0000
  H   H767      1.0  0.33775  0.99758  0.13861  1.0000
  N   N67       1.0  0.44567  0.03125  0.24041  1.0000
  H   H768      1.0  0.43362  0.01349  0.22486  1.0000
  C   C764      1.0  0.38605  0.27602  0.14169  1.0000
  C   C765      1.0  0.38092  0.26066  0.15833  1.0000
  H   H769      1.0  0.24327  0.09006  0.44615  1.0000
  H   H770      1.0  0.38431  0.25135  0.15016  1.0000
  C   C766      1.0  0.35803  0.31753  0.12623  1.0000
  H   H771      1.0  0.45046  0.02668  0.30692  1.0000
  H   H772      1.0  0.24214  0.23567  0.06492  1.0000
  H   H773      1.0  0.44845  0.19539  0.05990  1.0000
  C   C767      1.0  0.47551  0.15274  0.99733  1.0000
  H   H774      1.0  0.41818  0.28751  0.28727  1.0000
  C   C768      1.0  0.29102  0.14066  0.45746  1.0000
  C   C769      1.0  0.44650  0.12855  0.20470  1.0000
  H   H775      1.0  0.44104  0.04999  0.21303  1.0000
  H   H776      1.0  0.29740  0.10461  0.47067  1.0000
  H   H777      1.0  0.44696  0.25250  0.46750  1.0000
  C   C770      1.0  0.48246  0.13096  0.23022  1.0000
  H   H778      1.0  0.47759  0.07847  0.24883  1.0000
  C   C771      1.0  0.24055  0.21033  0.15404  1.0000
  H   H779      1.0  0.35877  0.29939  0.18799  1.0000
  C   C772      1.0  0.42089  0.27888  0.27636  1.0000
  Fe  Fe125     1.0  0.48153  0.26229  0.38499  1.0000
  C   C773      1.0  0.26971  0.04995  0.13123  1.0000
  C   C774      1.0  0.25298  0.12654  0.45564  1.0000
  C   C775      1.0  0.44140  0.10757  0.24669  1.0000
  H   H780      1.0  0.36806  0.24550  0.19923  1.0000
  C   C776      1.0  0.42777  0.25709  0.24771  1.0000
  H   H781      1.0  0.41476  0.14215  0.03045  1.0000
  C   C777      1.0  0.48050  0.22131  0.36464  1.0000
  H   H782      1.0  0.25389  0.03605  0.08542  1.0000
  Fe  Fe126     1.0  0.24878  0.11042  0.33892  1.0000
  C   C778      1.0  0.43342  0.27292  0.23399  1.0000
  H   H783      1.0  0.39325  0.27873  0.12023  1.0000
  H   H784      1.0  0.47768  0.32251  0.06352  1.0000
  C   C779      1.0  0.29155  0.12587  0.45404  1.0000
  C   C780      1.0  0.47737  0.16394  0.01262  1.0000
  C   C781      1.0  0.42998  0.28391  0.24835  1.0000
  H   H785      1.0  0.46274  0.20392  0.39796  1.0000
  H   H786      1.0  0.43371  0.09713  0.26177  1.0000
  C   C782      1.0  0.43761  0.00884  0.29195  1.0000
  H   H787      1.0  0.46548  0.12872  0.99950  1.0000
  H   H788      1.0  0.25921  0.14761  0.42181  1.0000
  H   H789      1.0  0.44010  0.27664  0.21202  1.0000
  C   C783      1.0  0.29716  0.11621  0.47280  1.0000
  C   C784      1.0  0.23826  0.01423  0.11098  1.0000
  H   H790      1.0  0.43002  0.24843  0.23649  1.0000
  S   S260      1.0  0.31225  0.32187  0.98701  1.0000
  S   S261      1.0  0.47518  0.27426  0.41943  1.0000
  C   C785      1.0  0.46718  0.99858  0.24747  1.0000
  N   N68       1.0  0.37086  0.01417  0.08684  1.0000
  H   H791      1.0  0.26113  0.24480  0.08846  1.0000
  H   H792      1.0  0.35595  0.30560  0.13824  1.0000
  C   C786      1.0  0.25218  0.22238  0.15592  1.0000
  H   H793      1.0  0.41991  0.14867  0.08359  1.0000
  H   H794      1.0  0.38852  0.03371  0.08636  1.0000
  H   H795      1.0  0.46948  0.14358  0.19125  1.0000
  Fe  Fe127     1.0  0.30259  0.31709  0.03440  1.0000
  C   C787      1.0  0.43699  0.01660  0.24299  1.0000
  H   H796      1.0  0.37912  0.30817  0.18312  1.0000
  H   H797      1.0  0.26853  0.24443  0.13340  1.0000
  C   C788      1.0  0.42792  0.15846  0.06736  1.0000
  H   H798      1.0  0.43395  0.29624  0.23761  1.0000
  C   C789      1.0  0.48173  0.01783  0.27775  1.0000
  C   C790      1.0  0.37766  0.02538  0.09823  1.0000
  C   C791      1.0  0.46162  0.13349  0.20698  1.0000
  C   C792      1.0  0.47507  0.20887  0.38905  1.0000
  C   C793      1.0  0.25056  0.00877  0.17311  1.0000
  H   H799      1.0  0.47480  0.01930  0.21272  1.0000
  C   C794      1.0  0.48143  0.10470  0.18662  1.0000
  C   C795      1.0  0.35602  0.01662  0.13959  1.0000
  H   H800      1.0  0.45671  0.19339  0.01036  1.0000
  H   H801      1.0  0.24529  0.21645  0.06681  1.0000
  C   C796      1.0  0.24690  0.10265  0.44073  1.0000
  H   H802      1.0  0.23872  0.00573  0.05211  1.0000
  S   S262      1.0  0.29031  0.31329  0.11466  1.0000
  Fe  Fe128     1.0  0.23753  0.12985  0.29299  1.0000
  H   H803      1.0  0.23478  0.25200  0.15123  1.0000
  H   H804      1.0  0.39117  0.01585  0.05529  1.0000
  H   H805      1.0  0.47220  0.22585  0.35493  1.0000
  H   H806      1.0  0.29816  0.99828  0.98183  1.0000
  H   H807      1.0  0.35119  0.99551  0.09204  1.0000
  H   H808      1.0  0.23437  0.16163  0.18615  1.0000
  N   N69       1.0  0.29560  0.14554  0.47929  1.0000
  Fe  Fe129     1.0  0.38946  0.19578  0.64055  1.0000
  S   S263      1.0  0.36873  0.19936  0.66894  1.0000
  S   S264      1.0  0.40347  0.17849  0.65037  1.0000
  Fe  Fe130     1.0  0.38833  0.21966  0.58948  1.0000
  S   S265      1.0  0.36738  0.22508  0.61354  1.0000
  S   S266      1.0  0.39892  0.23283  0.54345  1.0000
  Fe  Fe131     1.0  0.37965  0.22495  0.64843  1.0000
  S   S267      1.0  0.37946  0.24549  0.66803  1.0000
  Fe  Fe132     1.0  0.35808  0.19921  0.63178  1.0000
  S   S268      1.0  0.33253  0.18615  0.64160  1.0000
  S   S269      1.0  0.40119  0.22132  0.62291  1.0000
  S   S270      1.0  0.37813  0.19381  0.60491  1.0000
  H   H809      1.0  0.30128  0.16832  0.65124  1.0000
  S   S271      1.0  0.26891  0.11870  0.55004  1.0000
  Fe  Fe133     1.0  0.41390  0.12556  0.78211  1.0000
  S   S272      1.0  0.40861  0.10985  0.82605  1.0000
  S   S273      1.0  0.39991  0.14320  0.77621  1.0000
  Fe  Fe134     1.0  0.43994  0.11195  0.75949  1.0000
  S   S274      1.0  0.43672  0.09539  0.80158  1.0000
  S   S275      1.0  0.45823  0.11376  0.72003  1.0000
  Fe  Fe135     1.0  0.41130  0.09106  0.80391  1.0000
  S   S276      1.0  0.39706  0.06588  0.81925  1.0000
  Fe  Fe136     1.0  0.43439  0.11573  0.81964  1.0000
  S   S277      1.0  0.44506  0.11991  0.85565  1.0000
  S   S278      1.0  0.41469  0.10635  0.76035  1.0000
  S   S279      1.0  0.43950  0.13274  0.77727  1.0000
  S   S280      1.0  0.26913  0.01155  0.76694  1.0000
  Fe  Fe137     1.0  0.27540  0.28763  0.81701  1.0000
  S   S281      1.0  0.33187  0.00762  0.96835  1.0000
  S   S282      1.0  0.25958  0.26527  0.81493  1.0000
  Fe  Fe138     1.0  0.30807  0.29981  0.82359  1.0000
  S   S283      1.0  0.32958  0.29207  0.82824  1.0000
  Fe  Fe139     1.0  0.28060  0.30622  0.86095  1.0000
  S   S284      1.0  0.26793  0.30848  0.82662  1.0000
  S   S285      1.0  0.28615  0.28430  0.85377  1.0000
  S   S286      1.0  0.29795  0.30147  0.78600  1.0000
  Fe  Fe140     1.0  0.31892  0.01969  0.79529  1.0000
  C   C797      1.0  0.24412  0.19129  0.60026  1.0000
  S   S287      1.0  0.33623  0.04344  0.78002  1.0000
  Fe  Fe141     1.0  0.28647  0.00448  0.79045  1.0000
  C   C798      1.0  0.28141  0.31105  0.92826  1.0000
  H   H810      1.0  0.39208  0.25595  0.57473  1.0000
  S   S288      1.0  0.25408  0.13695  0.48201  1.0000
  Fe  Fe142     1.0  0.25248  0.12953  0.52969  1.0000
  S   S289      1.0  0.29488  0.01876  0.81870  1.0000
  S   S290      1.0  0.31052  0.00709  0.76475  1.0000
  H   H811      1.0  0.30529  0.14021  0.51454  1.0000
  Fe  Fe143     1.0  0.27257  0.13887  0.56983  1.0000
  S   S291      1.0  0.29748  0.15286  0.56283  1.0000
  C   C799      1.0  0.47790  0.28757  0.81864  1.0000
  H   H812      1.0  0.28934  0.26328  0.93514  1.0000
  H   H813      1.0  0.46964  0.27456  0.48602  1.0000
  H   H814      1.0  0.23790  0.20253  0.63311  1.0000
  H   H815      1.0  0.29606  0.16238  0.50371  1.0000
  H   H816      1.0  0.28492  0.28037  0.91622  1.0000
  S   S292      1.0  0.25339  0.12670  0.60930  1.0000
  C   C800      1.0  0.46796  0.28814  0.86695  1.0000
  H   H817      1.0  0.43272  0.18526  0.77767  1.0000
  C   C801      1.0  0.26604  0.18047  0.60155  1.0000
  S   S293      1.0  0.25737  0.15041  0.54729  1.0000
  C   C802      1.0  0.24548  0.27258  0.74188  1.0000
  C   C803      1.0  0.32641  0.29592  0.94790  1.0000
  N   N70       1.0  0.42783  0.16725  0.81634  1.0000
  H   H818      1.0  0.33704  0.00561  0.91125  1.0000
  C   C804      1.0  0.25207  0.26259  0.78577  1.0000
  H   H819      1.0  0.41352  0.17253  0.78899  1.0000
  H   H820      1.0  0.44396  0.18818  0.81513  1.0000
  H   H821      1.0  0.41582  0.13447  0.87038  1.0000
  C   C805      1.0  0.30627  0.32239  0.93544  1.0000
  C   C806      1.0  0.25298  0.27509  0.76319  1.0000
  H   H822      1.0  0.35227  0.03398  0.91936  1.0000
  S   S294      1.0  0.30337  0.32168  0.83332  1.0000
  H   H823      1.0  0.25925  0.28671  0.76239  1.0000
  H   H824      1.0  0.30354  0.28369  0.97321  1.0000
  C   C807      1.0  0.34752  0.30446  0.80786  1.0000
  C   C808      1.0  0.36110  0.30036  0.81151  1.0000
  H   H825      1.0  0.36044  0.29007  0.82767  1.0000
  C   C809      1.0  0.45777  0.13766  0.85454  1.0000
  C   C810      1.0  0.43137  0.15582  0.87021  1.0000
  H   H826      1.0  0.44734  0.17815  0.86290  1.0000
  H   H827      1.0  0.43205  0.99322  0.64151  1.0000
  H   H828      1.0  0.25230  0.17835  0.57146  1.0000
  C   C811      1.0  0.46306  0.15002  0.83004  1.0000
  C   C812      1.0  0.33075  0.29794  0.89779  1.0000
  H   H829      1.0  0.24612  0.28232  0.72457  1.0000
  H   H830      1.0  0.45146  0.32056  0.87429  1.0000
  H   H831      1.0  0.45939  0.14883  0.81115  1.0000
  C   C813      1.0  0.37968  0.05988  0.80962  1.0000
  C   C814      1.0  0.37186  0.04399  0.81778  1.0000
  C   C815      1.0  0.35840  0.03874  0.80919  1.0000
  C   C816      1.0  0.35272  0.04937  0.79230  1.0000
  C   C817      1.0  0.36048  0.06525  0.78441  1.0000
  C   C818      1.0  0.37388  0.07051  0.79306  1.0000
  H   H832      1.0  0.37632  0.03570  0.83054  1.0000
  H   H833      1.0  0.35254  0.02647  0.81532  1.0000
  H   H834      1.0  0.35612  0.07354  0.77139  1.0000
  H   H835      1.0  0.37980  0.08276  0.78664  1.0000
  H   H836      1.0  0.47719  0.17350  0.81097  1.0000
  H   H837      1.0  0.28218  0.27664  0.95354  1.0000
  H   H838      1.0  0.27687  0.18378  0.63499  1.0000
  C   C819      1.0  0.47132  0.07359  0.73978  1.0000
  H   H839      1.0  0.36745  0.26001  0.79307  1.0000
  S   S295      1.0  0.26959  0.30611  0.90602  1.0000
  C   C820      1.0  0.46441  0.08588  0.74185  1.0000
  C   C821      1.0  0.46723  0.09843  0.71822  1.0000
  H   H840      1.0  0.47645  0.15458  0.89777  1.0000
  H   H841      1.0  0.39336  0.08205  0.70147  1.0000
  Fe  Fe144     1.0  0.43205  0.29926  0.73568  1.0000
  H   H842      1.0  0.45690  0.08557  0.76173  1.0000
  H   H843      1.0  0.34678  0.04920  0.93379  1.0000
  C   C822      1.0  0.41873  0.23480  0.52897  1.0000
  C   C823      1.0  0.42575  0.24345  0.50081  1.0000
  C   C824      1.0  0.45073  0.23985  0.50599  1.0000
  C   C825      1.0  0.44373  0.23124  0.53416  1.0000
  C   C826      1.0  0.42777  0.22864  0.54558  1.0000
  H   H844      1.0  0.45064  0.22643  0.54714  1.0000
  H   H845      1.0  0.42248  0.22187  0.56724  1.0000
  C   C827      1.0  0.40263  0.16918  0.68555  1.0000
  C   C828      1.0  0.39332  0.17219  0.70864  1.0000
  C   C829      1.0  0.39256  0.16415  0.73642  1.0000
  C   C830      1.0  0.40108  0.15308  0.74120  1.0000
  C   C831      1.0  0.41042  0.15012  0.71812  1.0000
  C   C832      1.0  0.41117  0.15814  0.69037  1.0000
  H   H846      1.0  0.38676  0.18073  0.70511  1.0000
  H   H847      1.0  0.38534  0.16650  0.75424  1.0000
  H   H848      1.0  0.41706  0.14164  0.72162  1.0000
  H   H849      1.0  0.41838  0.15577  0.67255  1.0000
  C   C833      1.0  0.39355  0.25347  0.68437  1.0000
  C   C834      1.0  0.40486  0.24605  0.69083  1.0000
  C   C835      1.0  0.41610  0.25310  0.70308  1.0000
  C   C836      1.0  0.41629  0.26770  0.70854  1.0000
  C   C837      1.0  0.40520  0.27525  0.70147  1.0000
  C   C838      1.0  0.39374  0.26806  0.68988  1.0000
  H   H850      1.0  0.40489  0.23487  0.68655  1.0000
  H   H851      1.0  0.42470  0.24721  0.70832  1.0000
  H   H852      1.0  0.40559  0.28667  0.70475  1.0000
  H   H853      1.0  0.38514  0.27395  0.68468  1.0000
  C   C839      1.0  0.32288  0.17736  0.61907  1.0000
  C   C840      1.0  0.33047  0.17801  0.59137  1.0000
  C   C841      1.0  0.32249  0.17046  0.57457  1.0000
  C   C842      1.0  0.30684  0.16214  0.58518  1.0000
  C   C843      1.0  0.29924  0.16143  0.61295  1.0000
  C   C844      1.0  0.30723  0.16902  0.62974  1.0000
  H   H854      1.0  0.34249  0.18437  0.58285  1.0000
  H   H855      1.0  0.32849  0.17112  0.55313  1.0000
  H   H856      1.0  0.28728  0.15492  0.62156  1.0000
  N   N71       1.0  0.35080  0.15545  0.66879  1.0000
  C   C845      1.0  0.36612  0.15573  0.66155  1.0000
  C   C846      1.0  0.34173  0.15252  0.65086  1.0000
  C   C847      1.0  0.37291  0.15381  0.63517  1.0000
  C   C848      1.0  0.34813  0.15064  0.62423  1.0000
  C   C849      1.0  0.36386  0.15141  0.61630  1.0000
  C   C850      1.0  0.34389  0.15791  0.69617  1.0000
  H   H857      1.0  0.37327  0.15774  0.67596  1.0000
  H   H858      1.0  0.32954  0.15216  0.65673  1.0000
  H   H859      1.0  0.38521  0.15462  0.62922  1.0000
  H   H860      1.0  0.34096  0.14894  0.60968  1.0000
  H   H861      1.0  0.36907  0.15032  0.59547  1.0000
  H   H862      1.0  0.33626  0.16591  0.69336  1.0000
  H   H863      1.0  0.33702  0.14662  0.71113  1.0000
  H   H864      1.0  0.35285  0.16344  0.70567  1.0000
  C   C851      1.0  0.30278  0.99848  0.95995  1.0000
  H   H865      1.0  0.38128  0.05724  0.73898  1.0000
  Fe  Fe145     1.0  0.23794  0.13687  0.58524  1.0000
  C   C852      1.0  0.24614  0.19674  0.62384  1.0000
  N   N72       1.0  0.25785  0.19412  0.63594  1.0000
  Fe  Fe146     1.0  0.29127  0.32222  0.79821  1.0000
  H   H866      1.0  0.38589  0.30572  0.79614  1.0000
  C   C853      1.0  0.39344  0.06296  0.73526  1.0000
  C   C854      1.0  0.30003  0.31788  0.96493  1.0000
  C   C855      1.0  0.37553  0.30919  0.79364  1.0000
  S   S296      1.0  0.43067  0.27622  0.72377  1.0000
  C   C856      1.0  0.42166  0.14644  0.85872  1.0000
  C   C857      1.0  0.47313  0.16398  0.83002  1.0000
  H   H867      1.0  0.41880  0.24823  0.48786  1.0000
  S   S297      1.0  0.41669  0.30118  0.77549  1.0000
  C   C858      1.0  0.44170  0.24593  0.48928  1.0000
  S   S298      1.0  0.47087  0.24323  0.49282  1.0000
  H   H868      1.0  0.33826  0.30197  0.87641  1.0000
  H   H869      1.0  0.34801  0.30799  0.91707  1.0000
  C   C859      1.0  0.31543  0.28949  0.90263  1.0000
  H   H870      1.0  0.45868  0.12985  0.89792  1.0000
  C   C860      1.0  0.46091  0.32125  0.83066  1.0000
  C   C861      1.0  0.43935  0.17095  0.85450  1.0000
  C   C862      1.0  0.46533  0.28556  0.84145  1.0000
  H   H871      1.0  0.40304  0.27535  0.62888  1.0000
  C   C863      1.0  0.42590  0.17304  0.78788  1.0000
  H   H872      1.0  0.45362  0.28256  0.83910  1.0000
  H   H873      1.0  0.23631  0.14838  0.64490  1.0000
  S   S299      1.0  0.44269  0.31309  0.82577  1.0000
  C   C864      1.0  0.47273  0.15338  0.87890  1.0000
  H   H874      1.0  0.30200  0.32219  0.89450  1.0000
  Fe  Fe147     1.0  0.24844  0.10727  0.58792  1.0000
  S   S300      1.0  0.45389  0.31161  0.74461  1.0000
  C   C865      1.0  0.43749  0.17650  0.82736  1.0000
  H   H875      1.0  0.43313  0.15116  0.89085  1.0000
  C   C866      1.0  0.47786  0.99140  0.59604  1.0000
  H   H876      1.0  0.35264  0.31283  0.72529  1.0000
  H   H877      1.0  0.29975  0.03369  0.87296  1.0000
  H   H878      1.0  0.33985  0.28760  0.75724  1.0000
  H   H879      1.0  0.23448  0.19289  0.59138  1.0000
  C   C867      1.0  0.40020  0.07690  0.71428  1.0000
  C   C868      1.0  0.47711  0.09863  0.69253  1.0000
  C   C869      1.0  0.47800  0.16575  0.85442  1.0000
  H   H880      1.0  0.47103  0.11259  0.76916  1.0000
  C   C870      1.0  0.46270  0.13938  0.87889  1.0000
  N   N73       1.0  0.40891  0.26435  0.59595  1.0000
  C   C871      1.0  0.41161  0.27057  0.61772  1.0000
  C   C872      1.0  0.41980  0.25851  0.58160  1.0000
  C   C873      1.0  0.42514  0.27031  0.62662  1.0000
  C   C874      1.0  0.43337  0.25787  0.59009  1.0000
  C   C875      1.0  0.43597  0.26370  0.61294  1.0000
  C   C876      1.0  0.39446  0.26441  0.58753  1.0000
  C   C877      1.0  0.25916  0.19897  0.66180  1.0000
  H   H881      1.0  0.41785  0.25401  0.56386  1.0000
  H   H882      1.0  0.42700  0.27483  0.64450  1.0000
  H   H883      1.0  0.44164  0.25263  0.57925  1.0000
  H   H884      1.0  0.44629  0.26303  0.62019  1.0000
  H   H885      1.0  0.38450  0.26087  0.60661  1.0000
  H   H886      1.0  0.39505  0.27619  0.57486  1.0000
  C   C878      1.0  0.28980  0.27570  0.93389  1.0000
  C   C879      1.0  0.31117  0.28744  0.95198  1.0000
  S   S301      1.0  0.24555  0.08258  0.61404  1.0000
  N   N74       1.0  0.30579  0.28457  0.92940  1.0000
  Fe  Fe148     1.0  0.43836  0.31542  0.78202  1.0000
  H   H887      1.0  0.28580  0.99565  0.72726  1.0000
  C   C880      1.0  0.31877  0.00229  0.94857  1.0000
  H   H888      1.0  0.24074  0.05125  0.64677  1.0000
  C   C881      1.0  0.47910  0.28387  0.48630  1.0000
  C   C882      1.0  0.24388  0.24757  0.78653  1.0000
  C   C883      1.0  0.30152  0.13631  0.49733  1.0000
  H   H889      1.0  0.35920  0.05408  0.89864  1.0000
  C   C884      1.0  0.47743  0.11939  0.78048  1.0000
  H   H890      1.0  0.31125  0.28701  0.88479  1.0000
  C   C885      1.0  0.32467  0.00258  0.92018  1.0000
  N   N75       1.0  0.41752  0.06403  0.74808  1.0000
  C   C886      1.0  0.42427  0.07764  0.72742  1.0000
  C   C887      1.0  0.40231  0.05669  0.75214  1.0000
  C   C888      1.0  0.41575  0.08427  0.71021  1.0000
  C   C889      1.0  0.42656  0.05779  0.76669  1.0000
  H   H891      1.0  0.43626  0.08358  0.72442  1.0000
  H   H892      1.0  0.39682  0.04612  0.76898  1.0000
  H   H893      1.0  0.42114  0.09524  0.69425  1.0000
  H   H894      1.0  0.42062  0.04569  0.77951  1.0000
  H   H895      1.0  0.43802  0.05767  0.75402  1.0000
  H   H896      1.0  0.42824  0.06509  0.78167  1.0000
  N   N76       1.0  0.33554  0.04311  0.90255  1.0000
  C   C890      1.0  0.32105  0.03822  0.92062  1.0000
  C   C891      1.0  0.33741  0.04492  0.87402  1.0000
  C   C892      1.0  0.30796  0.03497  0.91023  1.0000
  C   C893      1.0  0.32458  0.04174  0.86292  1.0000
  C   C894      1.0  0.30978  0.03663  0.88121  1.0000
  C   C895      1.0  0.34913  0.04525  0.91406  1.0000
  H   H897      1.0  0.31959  0.03624  0.94336  1.0000
  H   H898      1.0  0.34888  0.04872  0.85971  1.0000
  H   H899      1.0  0.42960  0.16566  0.77398  1.0000
  C   C896      1.0  0.33622  0.30124  0.92059  1.0000
  H   H900      1.0  0.46910  0.06391  0.75817  1.0000
  C   C897      1.0  0.25409  0.18304  0.58919  1.0000
  C   C898      1.0  0.26772  0.18607  0.62517  1.0000
  H   H901      1.0  0.27381  0.17398  0.59315  1.0000
  N   N77       1.0  0.36421  0.29559  0.73880  1.0000
  C   C899      1.0  0.37842  0.29305  0.73925  1.0000
  C   C900      1.0  0.35112  0.28551  0.75726  1.0000
  C   C901      1.0  0.37979  0.28019  0.75868  1.0000
  C   C902      1.0  0.35208  0.27262  0.77714  1.0000
  C   C903      1.0  0.36652  0.26993  0.77772  1.0000
  H   H902      1.0  0.31937  0.99974  0.88119  1.0000
  H   H903      1.0  0.38881  0.30122  0.72498  1.0000
  C   C904      1.0  0.36300  0.30879  0.71752  1.0000
  H   H904      1.0  0.39110  0.27827  0.75907  1.0000
  H   H905      1.0  0.34168  0.26495  0.79229  1.0000
  H   H906      1.0  0.32609  0.04304  0.84032  1.0000
  C   C905      1.0  0.27507  0.30686  0.95773  1.0000
  C   C906      1.0  0.41995  0.15241  0.83166  1.0000
  C   C907      1.0  0.25246  0.99921  0.76317  1.0000
  C   C908      1.0  0.28438  0.31014  0.97607  1.0000
  C   C909      1.0  0.31467  0.99933  0.90305  1.0000
  C   C910      1.0  0.47577  0.11364  0.80942  1.0000
  H   H907      1.0  0.47567  0.29925  0.90799  1.0000
  H   H908      1.0  0.41239  0.14504  0.82288  1.0000
  H   H909      1.0  0.46782  0.10244  0.82096  1.0000
  H   H910      1.0  0.25326  0.18902  0.68070  1.0000
  H   H911      1.0  0.26296  0.30085  0.96640  1.0000
  H   H912      1.0  0.24315  0.23784  0.80389  1.0000
  H   H913      1.0  0.45219  0.99379  0.63882  1.0000
  H   H914      1.0  0.29653  0.03062  0.92472  1.0000
  H   H915      1.0  0.24719  0.01802  0.73581  1.0000
  C   C911      1.0  0.23626  0.24510  0.76541  1.0000
  C   C912      1.0  0.46189  0.32341  0.85736  1.0000
  C   C913      1.0  0.24375  0.00565  0.74593  1.0000
  C   C914      1.0  0.29704  0.31885  0.91717  1.0000
  C   C915      1.0  0.29423  0.16083  0.48300  1.0000
  C   C916      1.0  0.30231  0.12148  0.49446  1.0000
  C   C917      1.0  0.34844  0.31780  0.78705  1.0000
  S   S302      1.0  0.32021  0.99798  0.82479  1.0000
  H   H916      1.0  0.33041  0.29874  0.96574  1.0000
  C   C918      1.0  0.29869  0.99548  0.91434  1.0000
  C   C919      1.0  0.37642  0.32216  0.77205  1.0000
  H   H917      1.0  0.27146  0.20314  0.66178  1.0000
  H   H918      1.0  0.33800  0.32105  0.78419  1.0000
  H   H919      1.0  0.25354  0.20858  0.66395  1.0000
  H   H920      1.0  0.36229  0.30536  0.69765  1.0000
  H   H921      1.0  0.23535  0.16207  0.68318  1.0000
  H   H922      1.0  0.30659  0.11404  0.50931  1.0000
  H   H923      1.0  0.45812  0.28688  0.88436  1.0000
  Fe  Fe149     1.0  0.29558  0.99617  0.84622  1.0000
  H   H924      1.0  0.47385  0.32293  0.78852  1.0000
  S   S303      1.0  0.42952  0.32098  0.70800  1.0000
  H   H925      1.0  0.48035  0.15594  0.97464  1.0000
  N   N78       1.0  0.48270  0.29278  0.86952  1.0000
  C   C920      1.0  0.48109  0.07370  0.71409  1.0000
  H   H926      1.0  0.47599  0.28591  0.79858  1.0000
  H   H927      1.0  0.47563  0.99695  0.57642  1.0000
  H   H928      1.0  0.37320  0.31889  0.71290  1.0000
  H   H929      1.0  0.47933  0.10831  0.67414  1.0000
  C   C921      1.0  0.23694  0.25761  0.74307  1.0000
  C   C922      1.0  0.29275  0.99496  0.94287  1.0000
  H   H930      1.0  0.28241  0.16206  0.48261  1.0000
  H   H931      1.0  0.28037  0.99191  0.95176  1.0000
  Fe  Fe150     1.0  0.41550  0.32376  0.74842  1.0000
  H   H932      1.0  0.24642  0.10357  0.48396  1.0000
  H   H933      1.0  0.48256  0.11807  0.84625  1.0000
  N   N79       1.0  0.35136  0.52016  0.03390  1.0000
  H   H934      1.0  0.27389  0.43333  0.16848  1.0000
  Fe  Fe151     1.0  0.43387  0.51001  0.24881  1.0000
  S   S304      1.0  0.43680  0.52257  0.20355  1.0000
  S   S305      1.0  0.44157  0.48823  0.26336  1.0000
  Fe  Fe152     1.0  0.41406  0.53021  0.27201  1.0000
  S   S306      1.0  0.41561  0.54449  0.22843  1.0000
  S   S307      1.0  0.39764  0.53075  0.31240  1.0000
  Fe  Fe153     1.0  0.41158  0.52165  0.21657  1.0000
  S   S308      1.0  0.39420  0.51727  0.19059  1.0000
  Fe  Fe154     1.0  0.44067  0.54431  0.21910  1.0000
  S   S309      1.0  0.46093  0.56404  0.19095  1.0000
  S   S310      1.0  0.40829  0.50744  0.26065  1.0000
  S   S311      1.0  0.43952  0.53166  0.26381  1.0000
  Fe  Fe155     1.0  0.36078  0.58034  0.44781  1.0000
  S   S312      1.0  0.37791  0.59925  0.41176  1.0000
  S   S313      1.0  0.33505  0.56761  0.45637  1.0000
  S   S314      1.0  0.40412  0.59663  0.44890  1.0000
  Fe  Fe156     1.0  0.38645  0.61018  0.44451  1.0000
  S   S315      1.0  0.39135  0.63626  0.44264  1.0000
  Fe  Fe157     1.0  0.39464  0.58454  0.41832  1.0000
  S   S316      1.0  0.41091  0.58264  0.37879  1.0000
  S   S317      1.0  0.37723  0.56516  0.45275  1.0000
  S   S318      1.0  0.25928  0.49363  0.40626  1.0000
  S   S319      1.0  0.24406  0.52285  0.39142  1.0000
  Fe  Fe158     1.0  0.26371  0.51835  0.41040  1.0000
  S   S320      1.0  0.28754  0.53611  0.39329  1.0000
  S   S321      1.0  0.43299  0.36423  0.11684  1.0000
  C   C923      1.0  0.35319  0.51120  0.01518  1.0000
  Fe  Fe159     1.0  0.43131  0.36300  0.16287  1.0000
  S   S322      1.0  0.43879  0.38448  0.17841  1.0000
  Fe  Fe160     1.0  0.30591  0.42973  0.17619  1.0000
  S   S323      1.0  0.32715  0.42077  0.17317  1.0000
  S   S324      1.0  0.28516  0.41591  0.21241  1.0000
  Fe  Fe161     1.0  0.32176  0.45717  0.12530  1.0000
  S   S325      1.0  0.34426  0.45029  0.11785  1.0000
  S   S326      1.0  0.31820  0.47987  0.10219  1.0000
  Fe  Fe162     1.0  0.32913  0.42599  0.12654  1.0000
  S   S327      1.0  0.33696  0.40812  0.10534  1.0000
  Fe  Fe163     1.0  0.34058  0.44559  0.16507  1.0000
  S   S328      1.0  0.36010  0.44951  0.18689  1.0000
  S   S329      1.0  0.30686  0.43327  0.12990  1.0000
  S   S330      1.0  0.31911  0.45412  0.17223  1.0000
  H   H935      1.0  0.25550  0.40119  0.25092  1.0000
  H   H936      1.0  0.47951  0.41907  0.20388  1.0000
  C   C924      1.0  0.46518  0.47386  0.25791  1.0000
  C   C925      1.0  0.23881  0.41022  0.23212  1.0000
  C   C926      1.0  0.32251  0.36252  0.15746  1.0000
  H   H937      1.0  0.45831  0.61327  0.16030  1.0000
  H   H938      1.0  0.33458  0.36245  0.15399  1.0000
  S   S331      1.0  0.45380  0.63906  0.01348  1.0000
  H   H939      1.0  0.24043  0.45554  0.20492  1.0000
  S   S332      1.0  0.39034  0.35844  0.10990  1.0000
  S   S333      1.0  0.28588  0.35524  0.08673  1.0000
  S   S334      1.0  0.31555  0.33345  0.05487  1.0000
  H   H940      1.0  0.45239  0.40799  0.20296  1.0000
  H   H941      1.0  0.36265  0.53059  0.26074  1.0000
  C   C927      1.0  0.47976  0.47235  0.24490  1.0000
  Fe  Fe164     1.0  0.40801  0.35048  0.13151  1.0000
  H   H942      1.0  0.44892  0.35444  0.06125  1.0000
  C   C928      1.0  0.37293  0.52601  0.25556  1.0000
  N   N80       1.0  0.23739  0.56481  0.43952  1.0000
  H   H943      1.0  0.37556  0.50542  0.30019  1.0000
  C   C929      1.0  0.40701  0.64787  0.45135  1.0000
  Fe  Fe165     1.0  0.29203  0.33344  0.07869  1.0000
  H   H944      1.0  0.35858  0.51997  0.07187  1.0000
  C   C930      1.0  0.31816  0.48321  0.06614  1.0000
  C   C931      1.0  0.32271  0.47328  0.05005  1.0000
  C   C932      1.0  0.32373  0.47693  0.02080  1.0000
  H   H945      1.0  0.30629  0.36350  0.02836  1.0000
  C   C933      1.0  0.31547  0.50033  0.02370  1.0000
  C   C934      1.0  0.31440  0.49665  0.05294  1.0000
  H   H946      1.0  0.32563  0.46289  0.06006  1.0000
  C   C935      1.0  0.32027  0.49053  0.00751  1.0000
  H   H947      1.0  0.35273  0.49897  0.02263  1.0000
  H   H948      1.0  0.31077  0.50432  0.06535  1.0000
  C   C936      1.0  0.32288  0.39417  0.09808  1.0000
  C   C937      1.0  0.32706  0.38162  0.08907  1.0000
  C   C938      1.0  0.31587  0.36977  0.08497  1.0000
  C   C939      1.0  0.30044  0.37044  0.08968  1.0000
  C   C940      1.0  0.29634  0.38320  0.09790  1.0000
  C   C941      1.0  0.30751  0.39499  0.10225  1.0000
  H   H949      1.0  0.33895  0.38095  0.08565  1.0000
  H   H950      1.0  0.31922  0.36010  0.07839  1.0000
  H   H951      1.0  0.28444  0.38385  0.10146  1.0000
  H   H952      1.0  0.30417  0.40464  0.10903  1.0000
  C   C942      1.0  0.47889  0.37081  0.09224  1.0000
  N   N81       1.0  0.45342  0.63046  0.12980  1.0000
  C   C943      1.0  0.45378  0.61563  0.14195  1.0000
  C   C944      1.0  0.37398  0.34414  0.11027  1.0000
  H   H953      1.0  0.30851  0.32650  0.15566  1.0000
  C   C945      1.0  0.47072  0.49971  0.22683  1.0000
  H   H954      1.0  0.36560  0.36015  0.08266  1.0000
  S   S335      1.0  0.24918  0.51173  0.45531  1.0000
  C   C946      1.0  0.32164  0.55977  0.43821  1.0000
  C   C947      1.0  0.32441  0.56394  0.40863  1.0000
  C   C948      1.0  0.31377  0.55673  0.39535  1.0000
  C   C949      1.0  0.30014  0.54535  0.41136  1.0000
  C   C950      1.0  0.29719  0.54142  0.44095  1.0000
  C   C951      1.0  0.30784  0.54864  0.45421  1.0000
  H   H955      1.0  0.33478  0.57270  0.39598  1.0000
  H   H956      1.0  0.31613  0.55998  0.37246  1.0000
  C   C952      1.0  0.40215  0.54493  0.33100  1.0000
  C   C953      1.0  0.39403  0.54213  0.35944  1.0000
  C   C954      1.0  0.39685  0.55342  0.37458  1.0000
  C   C955      1.0  0.40747  0.56780  0.36110  1.0000
  C   C956      1.0  0.41571  0.57053  0.33272  1.0000
  C   C957      1.0  0.41314  0.55913  0.31774  1.0000
  H   H957      1.0  0.38561  0.53113  0.36991  1.0000
  H   H958      1.0  0.39083  0.55099  0.39667  1.0000
  H   H959      1.0  0.42389  0.58166  0.32216  1.0000
  H   H960      1.0  0.41934  0.56147  0.29576  1.0000
  C   C958      1.0  0.38547  0.49838  0.18866  1.0000
  C   C959      1.0  0.37414  0.49659  0.17348  1.0000
  C   C960      1.0  0.36631  0.48170  0.17270  1.0000
  C   C961      1.0  0.36981  0.46845  0.18702  1.0000
  C   C962      1.0  0.38118  0.47023  0.20215  1.0000
  C   C963      1.0  0.38898  0.48513  0.20303  1.0000
  H   H961      1.0  0.37133  0.50678  0.16237  1.0000
  H   H962      1.0  0.35758  0.48048  0.16098  1.0000
  H   H963      1.0  0.38394  0.46003  0.21332  1.0000
  H   H964      1.0  0.39761  0.48635  0.21493  1.0000
  Fe  Fe166     1.0  0.23833  0.49740  0.39137  1.0000
  H   H965      1.0  0.46202  0.43683  0.21644  1.0000
  H   H966      1.0  0.35658  0.46414  0.27678  1.0000
  C   C964      1.0  0.30852  0.36423  0.00529  1.0000
  C   C965      1.0  0.35331  0.54212  0.99566  1.0000
  C   C966      1.0  0.45660  0.58829  0.21473  1.0000
  H   H967      1.0  0.23749  0.46792  0.22866  1.0000
  H   H968      1.0  0.45935  0.36393  0.00894  1.0000
  H   H969      1.0  0.44612  0.58035  0.22895  1.0000
  Fe  Fe167     1.0  0.43690  0.64704  0.98971  1.0000
  C   C967      1.0  0.47354  0.33143  0.05160  1.0000
  C   C968      1.0  0.47909  0.59378  0.17547  1.0000
  C   C969      1.0  0.46055  0.48746  0.24870  1.0000
  H   H970      1.0  0.47467  0.60533  0.28039  1.0000
  C   C970      1.0  0.46147  0.60348  0.21761  1.0000
  C   C971      1.0  0.48134  0.65559  0.06088  1.0000
  H   H971      1.0  0.46725  0.51022  0.21956  1.0000
  C   C972      1.0  0.47358  0.59409  0.27565  1.0000
  C   C973      1.0  0.37025  0.50002  0.28583  1.0000
  C   C974      1.0  0.26443  0.43861  0.25726  1.0000
  H   H972      1.0  0.25345  0.57709  0.36871  1.0000
  C   C975      1.0  0.46165  0.40378  0.19256  1.0000
  C   C976      1.0  0.45819  0.39190  0.17897  1.0000
  C   C977      1.0  0.41909  0.64200  0.45866  1.0000
  H   H973      1.0  0.44882  0.59157  0.14051  1.0000
  C   C978      1.0  0.26105  0.56139  0.39833  1.0000
  C   C979      1.0  0.23547  0.45570  0.22711  1.0000
  C   C980      1.0  0.34927  0.51350  0.06428  1.0000
  C   C981      1.0  0.45453  0.47703  0.19080  1.0000
  H   H974      1.0  0.46947  0.55482  0.25613  1.0000
  C   C982      1.0  0.25375  0.40868  0.23257  1.0000
  C   C983      1.0  0.26648  0.41711  0.20979  1.0000
  C   C984      1.0  0.26414  0.42678  0.18616  1.0000
  C   C985      1.0  0.24915  0.42814  0.18554  1.0000
  N   N82       1.0  0.34287  0.53847  0.40091  1.0000
  C   C986      1.0  0.35342  0.54916  0.40763  1.0000
  C   C987      1.0  0.34318  0.53907  0.37316  1.0000
  C   C988      1.0  0.36429  0.56118  0.38631  1.0000
  C   C989      1.0  0.35416  0.55073  0.35128  1.0000
  C   C990      1.0  0.36476  0.56185  0.35798  1.0000
  C   C991      1.0  0.33148  0.52596  0.42346  1.0000
  H   H975      1.0  0.35318  0.54869  0.42962  1.0000
  H   H976      1.0  0.33480  0.53058  0.36787  1.0000
  H   H977      1.0  0.37255  0.56976  0.39165  1.0000
  H   H978      1.0  0.35447  0.55114  0.32929  1.0000
  H   H979      1.0  0.37349  0.57088  0.34133  1.0000
  H   H980      1.0  0.32943  0.52925  0.44391  1.0000
  H   H981      1.0  0.32011  0.52357  0.41820  1.0000
  H   H982      1.0  0.33559  0.51520  0.42641  1.0000
  Fe  Fe168     1.0  0.43818  0.34083  0.12674  1.0000
  H   H983      1.0  0.26574  0.54600  0.43274  1.0000
  H   H984      1.0  0.27019  0.55986  0.38230  1.0000
  C   C992      1.0  0.35954  0.47671  0.27300  1.0000
  C   C993      1.0  0.44220  0.62140  0.09471  1.0000
  C   C994      1.0  0.44259  0.60625  0.10693  1.0000
  C   C995      1.0  0.31792  0.37507  0.16561  1.0000
  C   C996      1.0  0.25169  0.57106  0.39075  1.0000
  H   H985      1.0  0.36827  0.47672  0.31006  1.0000
  H   H986      1.0  0.26076  0.42385  0.29916  1.0000
  H   H987      1.0  0.43744  0.44204  0.23856  1.0000
  H   H988      1.0  0.43854  0.59684  0.09778  1.0000
  S   S336      1.0  0.43846  0.34063  0.17183  1.0000
  C   C997      1.0  0.35700  0.48594  0.24919  1.0000
  H   H989      1.0  0.47732  0.48307  0.16306  1.0000
  C   C998      1.0  0.46323  0.35476  0.02082  1.0000
  H   H990      1.0  0.44010  0.64666  0.47239  1.0000
  C   C999      1.0  0.24020  0.43072  0.29305  1.0000
  H   H991      1.0  0.35183  0.60255  0.98660  1.0000
  C   C1000     1.0  0.35027  0.33705  0.09526  1.0000
  C   C1001     1.0  0.47073  0.56585  0.26171  1.0000
  S   S337      1.0  0.41302  0.64834  0.00963  1.0000
  H   H992      1.0  0.34945  0.50103  0.06914  1.0000
  H   H993      1.0  0.30548  0.54538  0.47711  1.0000
  H   H994      1.0  0.48184  0.38722  0.03983  1.0000
  S   S338      1.0  0.45744  0.33265  0.10317  1.0000
  H   H995      1.0  0.33785  0.51400  0.07649  1.0000
  H   H996      1.0  0.41923  0.63015  0.45848  1.0000
  N   N83       1.0  0.31198  0.35072  0.15325  1.0000
  H   H997      1.0  0.45464  0.60721  0.23405  1.0000
  H   H998      1.0  0.32832  0.33693  0.14800  1.0000
  H   H999      1.0  0.47207  0.64926  0.12730  1.0000
  H   H1000     1.0  0.26442  0.45288  0.21717  1.0000
  H   H1001     1.0  0.31796  0.33944  0.12101  1.0000
  C   C1002     1.0  0.45936  0.56744  0.28360  1.0000
  C   C1003     1.0  0.44331  0.46552  0.21230  1.0000
  H   H1002     1.0  0.27937  0.36122  0.03328  1.0000
  C   C1004     1.0  0.31696  0.33782  0.14405  1.0000
  H   H1003     1.0  0.47783  0.63622  0.04207  1.0000
  C   C1005     1.0  0.26764  0.34581  0.98249  1.0000
  C   C1006     1.0  0.46273  0.33797  0.06589  1.0000
  N   N84       1.0  0.48313  0.57813  0.24704  1.0000
  C   C1007     1.0  0.46556  0.58333  0.19390  1.0000
  N   N85       1.0  0.47096  0.45954  0.18816  1.0000
  H   H1004     1.0  0.31272  0.51080  0.01366  1.0000
  Fe  Fe169     1.0  0.41330  0.32848  0.18167  1.0000
  N   N86       1.0  0.36822  0.50898  0.26186  1.0000
  N   N87       1.0  0.24235  0.44679  0.24685  1.0000
  H   H1005     1.0  0.32743  0.46930  0.00836  1.0000
  H   H1006     1.0  0.37898  0.53111  0.23271  1.0000
  H   H1007     1.0  0.46767  0.37725  0.15533  1.0000
  H   H1008     1.0  0.43798  0.62388  0.07583  1.0000
  H   H1009     1.0  0.29891  0.38546  0.17476  1.0000
  H   H1010     1.0  0.34972  0.54249  0.03936  1.0000
  H   H1011     1.0  0.35215  0.48059  0.23431  1.0000
  N   N88       1.0  0.37923  0.39909  0.12605  1.0000
  C   C1008     1.0  0.37298  0.41050  0.13391  1.0000
  C   C1009     1.0  0.39030  0.39438  0.13795  1.0000
  C   C1010     1.0  0.37790  0.41761  0.15400  1.0000
  C   C1011     1.0  0.39553  0.40125  0.15805  1.0000
  C   C1012     1.0  0.38926  0.41295  0.16609  1.0000
  C   C1013     1.0  0.37376  0.39141  0.10552  1.0000
  H   H1012     1.0  0.36416  0.41424  0.12465  1.0000
  H   H1013     1.0  0.39516  0.38523  0.13191  1.0000
  H   H1014     1.0  0.37292  0.42669  0.16015  1.0000
  H   H1015     1.0  0.40438  0.39749  0.16731  1.0000
  H   H1016     1.0  0.39316  0.41839  0.18168  1.0000
  H   H1017     1.0  0.36664  0.39777  0.09428  1.0000
  H   H1018     1.0  0.38373  0.39071  0.08924  1.0000
  H   H1019     1.0  0.36672  0.37936  0.11653  1.0000
  C   C1014     1.0  0.28024  0.35709  0.01426  1.0000
  H   H1020     1.0  0.34234  0.34030  0.08319  1.0000
  C   C1015     1.0  0.29691  0.35126  0.15619  1.0000
  C   C1016     1.0  0.36143  0.50216  0.24392  1.0000
  C   C1017     1.0  0.29192  0.36361  0.16440  1.0000
  H   H1021     1.0  0.25549  0.35025  0.02060  1.0000
  H   H1022     1.0  0.43281  0.46811  0.22252  1.0000
  Fe  Fe170     1.0  0.24335  0.48740  0.45012  1.0000
  H   H1023     1.0  0.28874  0.34233  0.15139  1.0000
  C   C1018     1.0  0.36612  0.48376  0.29159  1.0000
  H   H1024     1.0  0.28006  0.36420  0.16601  1.0000
  C   C1019     1.0  0.43090  0.65140  0.46664  1.0000
  H   H1025     1.0  0.27636  0.43818  0.25020  1.0000
  C   C1020     1.0  0.47443  0.34858  0.00665  1.0000
  H   H1026     1.0  0.32633  0.38465  0.16815  1.0000
  C   C1021     1.0  0.45733  0.34942  0.05040  1.0000
  C   C1022     1.0  0.26666  0.35099  0.00709  1.0000
  C   C1023     1.0  0.25758  0.44683  0.23858  1.0000
  H   H1027     1.0  0.38117  0.53000  0.26777  1.0000
  C   C1024     1.0  0.47698  0.41010  0.19307  1.0000
  C   C1025     1.0  0.23994  0.57279  0.41180  1.0000
  S   S339      1.0  0.40593  0.35082  0.17686  1.0000
  C   C1026     1.0  0.47021  0.38643  0.16573  1.0000
  H   H1028     1.0  0.24434  0.54879  0.46901  1.0000
  C   C1027     1.0  0.30251  0.37556  0.16920  1.0000
  H   H1029     1.0  0.46068  0.63941  0.16290  1.0000
  C   C1028     1.0  0.36345  0.34828  0.09503  1.0000
  H   H1030     1.0  0.45735  0.46436  0.27486  1.0000
  H   H1031     1.0  0.24743  0.43570  0.16723  1.0000
  H   H1032     1.0  0.47764  0.36079  0.11046  1.0000
  H   H1033     1.0  0.28682  0.53268  0.45364  1.0000
  C   C1029     1.0  0.44768  0.63343  0.10652  1.0000
  H   H1034     1.0  0.35998  0.50926  0.22474  1.0000
  H   H1035     1.0  0.45276  0.48856  0.18429  1.0000
  C   C1030     1.0  0.25851  0.55353  0.42669  1.0000
  C   C1031     1.0  0.44836  0.60330  0.13080  1.0000
  H   H1036     1.0  0.45202  0.58310  0.30733  1.0000
  C   C1032     1.0  0.35134  0.53542  0.02451  1.0000
  H   H1037     1.0  0.44941  0.55775  0.29495  1.0000
  C   C1033     1.0  0.45993  0.44811  0.20899  1.0000
  S   S340      1.0  0.48164  0.63225  0.20526  1.0000
  C   C1034     1.0  0.44597  0.45094  0.22145  1.0000
  H   H1038     1.0  0.46706  0.37039  0.08954  1.0000
  C   C1035     1.0  0.24649  0.55527  0.44710  1.0000
  N   N89       1.0  0.29437  0.35768  0.99773  1.0000
  H   H1039     1.0  0.31331  0.37666  0.99337  1.0000
  H   H1040     1.0  0.44762  0.64522  0.09659  1.0000
  C   C1036     1.0  0.46841  0.47385  0.17895  1.0000
  C   C1037     1.0  0.47932  0.33666  0.02202  1.0000
  C   C1038     1.0  0.35508  0.51749  0.98623  1.0000
  C   C1039     1.0  0.46014  0.64342  0.14054  1.0000
  C   C1040     1.0  0.47529  0.61375  0.19974  1.0000
  C   C1041     1.0  0.25564  0.43045  0.28462  1.0000
  H   H1041     1.0  0.48353  0.38176  0.09770  1.0000
  C   C1042     1.0  0.46291  0.65101  0.03227  1.0000
  C   C1043     1.0  0.37122  0.32874  0.12589  1.0000
  H   H1042     1.0  0.45327  0.65220  0.13971  1.0000
  C   C1044     1.0  0.47439  0.64664  0.04471  1.0000
  C   C1045     1.0  0.46082  0.58168  0.29055  1.0000
  S   S341      1.0  0.41339  0.32713  0.13726  1.0000
  H   H1043     1.0  0.31733  0.35769  0.00036  1.0000
  H   H1044     1.0  0.37926  0.32554  0.13769  1.0000
  C   C1046     1.0  0.23648  0.42004  0.20867  1.0000
  S   S342      1.0  0.38184  0.62027  0.98555  1.0000
  H   H1045     1.0  0.35323  0.55420  0.98816  1.0000
  H   H1046     1.0  0.48345  0.44743  0.16364  1.0000
  H   H1047     1.0  0.48314  0.46175  0.25187  1.0000
  S   S343      1.0  0.36767  0.59277  0.47983  1.0000
  Fe  Fe171     1.0  0.43849  0.52573  0.67663  1.0000
  S   S344      1.0  0.42372  0.53257  0.71121  1.0000
  S   S345      1.0  0.44853  0.50583  0.69270  1.0000
  Fe  Fe172     1.0  0.43377  0.55082  0.63110  1.0000
  S   S346      1.0  0.41909  0.55985  0.66238  1.0000
  S   S347      1.0  0.43950  0.56057  0.58348  1.0000
  Fe  Fe173     1.0  0.43665  0.55720  0.68764  1.0000
  S   S348      1.0  0.44376  0.57164  0.71724  1.0000
  Fe  Fe174     1.0  0.40754  0.53449  0.68330  1.0000
  S   S349      1.0  0.38142  0.52752  0.70042  1.0000
  S   S350      1.0  0.45243  0.55019  0.65466  1.0000
  S   S351      1.0  0.42115  0.52557  0.65041  1.0000
  H   H1048     1.0  0.47325  0.53149  0.69253  1.0000
  S   S352      1.0  0.38406  0.56829  0.52868  1.0000
  C   C1047     1.0  0.47472  0.65084  0.82872  1.0000
  H   H1049     1.0  0.46043  0.39576  0.72429  1.0000
  H   H1050     1.0  0.37178  0.53168  0.78105  1.0000
  H   H1051     1.0  0.34819  0.53791  0.62277  1.0000
  Fe  Fe175     1.0  0.45000  0.33362  0.72016  1.0000
  H   H1052     1.0  0.28300  0.34286  0.94620  1.0000
  S   S353      1.0  0.48320  0.35706  0.97034  1.0000
  H   H1053     1.0  0.36356  0.33677  0.75268  1.0000
  C   C1048     1.0  0.36440  0.53560  0.58692  1.0000
  H   H1054     1.0  0.45448  0.34854  0.79689  1.0000
  C   C1049     1.0  0.35324  0.50498  0.78317  1.0000
  H   H1055     1.0  0.38939  0.52650  0.63877  1.0000
  S   S354      1.0  0.43580  0.33821  0.75824  1.0000
  Fe  Fe176     1.0  0.31359  0.45535  0.73448  1.0000
  S   S355      1.0  0.30985  0.44730  0.78156  1.0000
  S   S356      1.0  0.33842  0.46149  0.70858  1.0000
  Fe  Fe177     1.0  0.27916  0.44779  0.73780  1.0000
  S   S357      1.0  0.27297  0.43925  0.78527  1.0000
  S   S358      1.0  0.25880  0.44811  0.71800  1.0000
  Fe  Fe178     1.0  0.29134  0.46008  0.78436  1.0000
  S   S359      1.0  0.28593  0.47056  0.82154  1.0000
  Fe  Fe179     1.0  0.29192  0.42723  0.77881  1.0000
  S   S360      1.0  0.28920  0.40369  0.80790  1.0000
  S   S361      1.0  0.29629  0.46984  0.73711  1.0000
  S   S362      1.0  0.29689  0.43408  0.73139  1.0000
  Fe  Fe180     1.0  0.32190  0.53450  0.88625  1.0000
  S   S363      1.0  0.30238  0.51958  0.92284  1.0000
  S   S364      1.0  0.32520  0.53165  0.84140  1.0000
  Fe  Fe181     1.0  0.33678  0.55326  0.92361  1.0000
  S   S365      1.0  0.36019  0.56954  0.92060  1.0000
  Fe  Fe182     1.0  0.32032  0.51849  0.94743  1.0000
  Fe  Fe183     1.0  0.30157  0.54188  0.93486  1.0000
  S   S366      1.0  0.27796  0.54605  0.95011  1.0000
  S   S367      1.0  0.33996  0.53180  0.90978  1.0000
  S   S368      1.0  0.32015  0.55718  0.89653  1.0000
  H   H1056     1.0  0.35773  0.53865  0.57190  1.0000
  H   H1057     1.0  0.46487  0.63976  0.94503  1.0000
  H   H1058     1.0  0.48227  0.64163  0.95719  1.0000
  C   C1050     1.0  0.25616  0.53985  0.88817  1.0000
  H   H1059     1.0  0.46701  0.52032  0.63457  1.0000
  S   S369      1.0  0.29459  0.34421  0.76408  1.0000
  H   H1060     1.0  0.23645  0.43614  0.52148  1.0000
  H   H1061     1.0  0.46850  0.62078  0.88669  1.0000
  H   H1062     1.0  0.42591  0.63289  0.56327  1.0000
  H   H1063     1.0  0.45963  0.52994  0.76057  1.0000
  H   H1064     1.0  0.41112  0.53141  0.59683  1.0000
  H   H1065     1.0  0.41519  0.61150  0.85178  1.0000
  H   H1066     1.0  0.27797  0.50537  0.89583  1.0000
  C   C1051     1.0  0.36584  0.58265  0.94076  1.0000
  Fe  Fe184     1.0  0.40545  0.63746  0.97622  1.0000
  H   H1067     1.0  0.43586  0.62736  0.53323  1.0000
  C   C1052     1.0  0.38683  0.60041  0.95096  1.0000
  C   C1053     1.0  0.38171  0.58896  0.93735  1.0000
  H   H1068     1.0  0.45303  0.48005  0.63758  1.0000
  H   H1069     1.0  0.39012  0.58518  0.92362  1.0000
  C   C1054     1.0  0.26377  0.54289  0.93108  1.0000
  C   C1055     1.0  0.24821  0.54125  0.94441  1.0000
  H   H1070     1.0  0.32865  0.46969  0.81897  1.0000
  H   H1071     1.0  0.36718  0.62857  0.92620  1.0000
  C   C1056     1.0  0.26770  0.54218  0.90287  1.0000
  H   H1072     1.0  0.38659  0.60057  0.86516  1.0000
  H   H1073     1.0  0.27965  0.54355  0.89230  1.0000
  C   C1057     1.0  0.29761  0.48736  0.82616  1.0000
  C   C1058     1.0  0.30706  0.49950  0.80320  1.0000
  C   C1059     1.0  0.31529  0.51318  0.80803  1.0000
  C   C1060     1.0  0.31427  0.51468  0.83579  1.0000
  C   C1061     1.0  0.30516  0.50235  0.85864  1.0000
  C   C1062     1.0  0.29670  0.48885  0.85383  1.0000
  H   H1074     1.0  0.30775  0.49849  0.78178  1.0000
  H   H1075     1.0  0.32243  0.52262  0.79022  1.0000
  H   H1076     1.0  0.30475  0.50310  0.88005  1.0000
  H   H1077     1.0  0.28950  0.47945  0.87168  1.0000
  C   C1063     1.0  0.28924  0.38707  0.79522  1.0000
  C   C1064     1.0  0.29206  0.38793  0.76624  1.0000
  C   C1065     1.0  0.29309  0.37453  0.75686  1.0000
  C   C1066     1.0  0.29137  0.36032  0.77638  1.0000
  C   C1067     1.0  0.28805  0.35940  0.80536  1.0000
  C   C1068     1.0  0.28699  0.37276  0.81473  1.0000
  H   H1078     1.0  0.29372  0.39891  0.75108  1.0000
  H   H1079     1.0  0.29562  0.37525  0.73440  1.0000
  H   H1080     1.0  0.28660  0.34847  0.82055  1.0000
  H   H1081     1.0  0.28472  0.37204  0.83719  1.0000
  H   H1082     1.0  0.27621  0.51138  0.84698  1.0000
  C   C1069     1.0  0.23473  0.40181  0.75112  1.0000
  H   H1083     1.0  0.46480  0.35660  0.81970  1.0000
  H   H1084     1.0  0.45049  0.63500  0.90700  1.0000
  H   H1085     1.0  0.40138  0.51377  0.58963  1.0000
  C   C1070     1.0  0.37837  0.63711  0.91428  1.0000
  N   N90       1.0  0.46705  0.46421  0.64444  1.0000
  H   H1086     1.0  0.37613  0.64724  0.90052  1.0000
  H   H1087     1.0  0.25781  0.50864  0.83906  1.0000
  C   C1071     1.0  0.36149  0.52820  0.79950  1.0000
  N   N91       1.0  0.47107  0.54605  0.72082  1.0000
  H   H1088     1.0  0.37539  0.62092  0.50962  1.0000
  H   H1089     1.0  0.34493  0.50910  0.84953  1.0000
  C   C1072     1.0  0.47425  0.37122  0.68885  1.0000
  C   C1073     1.0  0.35511  0.58750  0.95885  1.0000
  H   H1090     1.0  0.40766  0.53227  0.56288  1.0000
  C   C1074     1.0  0.28211  0.34690  0.96533  1.0000
  C   C1075     1.0  0.47634  0.63720  0.84556  1.0000
  H   H1091     1.0  0.35595  0.51021  0.97157  1.0000
  H   H1092     1.0  0.25799  0.40550  0.67050  1.0000
  H   H1093     1.0  0.25933  0.53943  0.86629  1.0000
  C   C1076     1.0  0.42473  0.56496  0.56781  1.0000
  C   C1077     1.0  0.42705  0.56777  0.53828  1.0000
  C   C1078     1.0  0.41490  0.56973  0.52560  1.0000
  C   C1079     1.0  0.40040  0.56891  0.54248  1.0000
  C   C1080     1.0  0.39835  0.56694  0.57178  1.0000
  C   C1081     1.0  0.41043  0.56490  0.58444  1.0000
  H   H1094     1.0  0.43812  0.56790  0.52528  1.0000
  H   H1095     1.0  0.43769  0.47225  0.68744  1.0000
  H   H1096     1.0  0.38719  0.56644  0.58494  1.0000
  H   H1097     1.0  0.40856  0.56289  0.60716  1.0000
  C   C1082     1.0  0.36977  0.50919  0.70170  1.0000
  C   C1083     1.0  0.37615  0.49754  0.69369  1.0000
  C   C1084     1.0  0.36642  0.48300  0.69553  1.0000
  C   C1085     1.0  0.35031  0.47999  0.70560  1.0000
  C   C1086     1.0  0.34395  0.49173  0.71324  1.0000
  C   C1087     1.0  0.35365  0.50630  0.71111  1.0000
  H   H1098     1.0  0.38855  0.49966  0.68638  1.0000
  H   H1099     1.0  0.37139  0.47398  0.68949  1.0000
  H   H1100     1.0  0.33155  0.48959  0.72075  1.0000
  H   H1101     1.0  0.34861  0.51533  0.71700  1.0000
  C   C1088     1.0  0.46035  0.58737  0.70919  1.0000
  H   H1102     1.0  0.38371  0.64099  0.93057  1.0000
  C   C1089     1.0  0.47726  0.60581  0.72620  1.0000
  H   H1103     1.0  0.41659  0.57121  0.50300  1.0000
  C   C1090     1.0  0.24293  0.50153  0.93919  1.0000
  C   C1091     1.0  0.45533  0.47088  0.65263  1.0000
  C   C1092     1.0  0.46619  0.50406  0.67336  1.0000
  C   C1093     1.0  0.46812  0.39191  0.70932  1.0000
  C   C1094     1.0  0.36818  0.53198  0.63406  1.0000
  C   C1095     1.0  0.46427  0.37640  0.70773  1.0000
  C   C1096     1.0  0.46159  0.44818  0.69197  1.0000
  C   C1097     1.0  0.34526  0.50355  0.83221  1.0000
  H   H1104     1.0  0.41412  0.60720  0.53335  1.0000
  H   H1105     1.0  0.45369  0.36844  0.72135  1.0000
  C   C1098     1.0  0.29543  0.35286  0.97336  1.0000
  C   C1099     1.0  0.25199  0.41376  0.67706  1.0000
  C   C1100     1.0  0.25877  0.42423  0.69104  1.0000
  C   C1101     1.0  0.25116  0.43502  0.69950  1.0000
  C   C1102     1.0  0.35916  0.53535  0.61533  1.0000
  H   H1106     1.0  0.35344  0.53550  0.79495  1.0000
  H   H1107     1.0  0.26989  0.42398  0.69522  1.0000
  H   H1108     1.0  0.35965  0.51154  0.76175  1.0000
  C   C1103     1.0  0.44655  0.46646  0.68082  1.0000
  H   H1109     1.0  0.31836  0.32844  0.92670  1.0000
  H   H1110     1.0  0.24306  0.36726  0.75415  1.0000
  N   N92       1.0  0.38759  0.52950  0.59604  1.0000
  C   C1104     1.0  0.40263  0.52649  0.58586  1.0000
  C   C1105     1.0  0.38242  0.52898  0.62405  1.0000
  H   H1111     1.0  0.23759  0.50154  0.96071  1.0000
  H   H1112     1.0  0.42639  0.63456  0.86755  1.0000
  C   C1106     1.0  0.36023  0.59878  0.97283  1.0000
  C   C1107     1.0  0.40414  0.63622  0.88964  1.0000
  H   H1113     1.0  0.45602  0.58948  0.75217  1.0000
  N   N93       1.0  0.47485  0.36711  0.77588  1.0000
  H   H1114     1.0  0.35661  0.53808  0.95408  1.0000
  C   C1108     1.0  0.46734  0.63139  0.87366  1.0000
  S   S370      1.0  0.31806  0.53959  0.96302  1.0000
  H   H1115     1.0  0.36976  0.61263  0.89392  1.0000
  C   C1109     1.0  0.46119  0.35953  0.79968  1.0000
  H   H1116     1.0  0.26038  0.40327  0.79182  1.0000
  N   N94       1.0  0.41351  0.63074  0.53211  1.0000
  C   C1110     1.0  0.40535  0.64172  0.52807  1.0000
  C   C1111     1.0  0.40785  0.61606  0.52966  1.0000
  C   C1112     1.0  0.39145  0.63831  0.52021  1.0000
  C   C1113     1.0  0.39401  0.61229  0.52175  1.0000
  C   C1114     1.0  0.38585  0.62354  0.51678  1.0000
  C   C1115     1.0  0.45590  0.65334  0.86866  1.0000
  H   H1117     1.0  0.47295  0.65710  0.95474  1.0000
  C   C1116     1.0  0.25251  0.38408  0.77471  1.0000
  H   H1118     1.0  0.38536  0.64723  0.51573  1.0000
  H   H1119     1.0  0.44804  0.54170  0.74546  1.0000
  C   C1117     1.0  0.47582  0.64801  0.94429  1.0000
  C   C1118     1.0  0.42816  0.63466  0.53995  1.0000
  H   H1120     1.0  0.23641  0.47144  0.55042  1.0000
  C   C1119     1.0  0.47730  0.55964  0.72670  1.0000
  C   C1120     1.0  0.47354  0.49359  0.68653  1.0000
  H   H1121     1.0  0.34108  0.42665  0.74921  1.0000
  C   C1121     1.0  0.33595  0.48134  0.81522  1.0000
  H   H1122     1.0  0.34420  0.48441  0.77029  1.0000
  S   S371      1.0  0.39393  0.33206  0.74655  1.0000
  H   H1123     1.0  0.46427  0.43935  0.70714  1.0000
  C   C1122     1.0  0.33641  0.48824  0.83763  1.0000
  H   H1124     1.0  0.45198  0.52587  0.73159  1.0000
  H   H1125     1.0  0.34287  0.58276  0.96173  1.0000
  H   H1126     1.0  0.40987  0.65340  0.52984  1.0000
  C   C1123     1.0  0.25636  0.44478  0.56732  1.0000
  C   C1124     1.0  0.24583  0.43538  0.59233  1.0000
  N   N95       1.0  0.35346  0.51173  0.80521  1.0000
  H   H1127     1.0  0.36427  0.53185  0.65618  1.0000
  H   H1128     1.0  0.32943  0.48204  0.85887  1.0000
  H   H1129     1.0  0.24473  0.41941  0.77004  1.0000
  C   C1125     1.0  0.46378  0.59384  0.73114  1.0000
  H   H1130     1.0  0.25934  0.37698  0.78399  1.0000
  H   H1131     1.0  0.38975  0.60080  0.51908  1.0000
  C   C1126     1.0  0.47008  0.45282  0.66359  1.0000
  C   C1127     1.0  0.44980  0.45511  0.70061  1.0000
  S   S372      1.0  0.42888  0.63408  0.95910  1.0000
  C   C1128     1.0  0.45701  0.53532  0.74060  1.0000
  C   C1129     1.0  0.39166  0.61077  0.87149  1.0000
  H   H1132     1.0  0.47921  0.44733  0.65714  1.0000
  N   N96       1.0  0.32964  0.40288  0.75549  1.0000
  C   C1130     1.0  0.32686  0.39510  0.78337  1.0000
  C   C1131     1.0  0.33232  0.39533  0.73464  1.0000
  C   C1132     1.0  0.32631  0.37924  0.79105  1.0000
  C   C1133     1.0  0.33179  0.37946  0.74160  1.0000
  C   C1134     1.0  0.32871  0.37138  0.77000  1.0000
  C   C1135     1.0  0.32995  0.41944  0.74811  1.0000
  H   H1133     1.0  0.32439  0.40101  0.79992  1.0000
  H   H1134     1.0  0.33449  0.40148  0.71254  1.0000
  H   H1135     1.0  0.32343  0.37295  0.81323  1.0000
  H   H1136     1.0  0.33325  0.37330  0.72520  1.0000
  H   H1137     1.0  0.32765  0.35893  0.77571  1.0000
  C   C1136     1.0  0.25305  0.39881  0.77918  1.0000
  H   H1138     1.0  0.32847  0.42343  0.72640  1.0000
  H   H1139     1.0  0.32033  0.42166  0.76296  1.0000
  C   C1137     1.0  0.38217  0.61765  0.88785  1.0000
  S   S373      1.0  0.24421  0.46640  0.48282  1.0000
  H   H1140     1.0  0.24828  0.42511  0.60423  1.0000
  C   C1138     1.0  0.37610  0.60547  0.96866  1.0000
  H   H1141     1.0  0.46795  0.58818  0.66503  1.0000
  C   C1139     1.0  0.24319  0.37861  0.75798  1.0000
  H   H1142     1.0  0.40917  0.64624  0.89646  1.0000
  C   C1140     1.0  0.23907  0.46143  0.56264  1.0000
  H   H1143     1.0  0.26088  0.46512  0.53244  1.0000
  S   S374      1.0  0.47071  0.35139  0.68871  1.0000
  H   H1144     1.0  0.25350  0.57888  0.92985  1.0000
  H   H1145     1.0  0.47002  0.46183  0.60241  1.0000
  C   C1141     1.0  0.26422  0.50374  0.85390  1.0000
  N   N97       1.0  0.38847  0.63003  0.89714  1.0000
  H   H1146     1.0  0.47690  0.33078  0.88303  1.0000
  S   S375      1.0  0.32303  0.49538  0.97044  1.0000
  C   C1142     1.0  0.24545  0.58449  0.92111  1.0000
  C   C1143     1.0  0.45718  0.63946  0.88523  1.0000
  C   C1144     1.0  0.24058  0.53798  0.90163  1.0000
  H   H1147     1.0  0.38282  0.53315  0.55532  1.0000
  N   N98       1.0  0.25685  0.50307  0.88330  1.0000
  C   C1145     1.0  0.23673  0.43521  0.69385  1.0000
  H   H1148     1.0  0.36549  0.53069  0.81808  1.0000
  H   H1149     1.0  0.45327  0.36725  0.80163  1.0000
  H   H1150     1.0  0.24764  0.60231  0.94371  1.0000
  C   C1146     1.0  0.23745  0.41382  0.67181  1.0000
  C   C1147     1.0  0.26560  0.50386  0.90243  1.0000
  H   H1151     1.0  0.26589  0.50453  0.94541  1.0000
  H   H1152     1.0  0.39907  0.60533  0.94776  1.0000
  C   C1148     1.0  0.37866  0.53247  0.57764  1.0000
  H   H1153     1.0  0.44331  0.45182  0.72266  1.0000
  C   C1149     1.0  0.47257  0.51218  0.64489  1.0000
  C   C1150     1.0  0.24220  0.59763  0.92879  1.0000
  C   C1151     1.0  0.25881  0.50324  0.93058  1.0000
  H   H1154     1.0  0.26704  0.44182  0.55941  1.0000
  C   C1152     1.0  0.47046  0.59309  0.68208  1.0000
  H   H1155     1.0  0.46873  0.48738  0.70864  1.0000
  C   C1153     1.0  0.40767  0.61681  0.86423  1.0000
  C   C1154     1.0  0.25301  0.45792  0.55237  1.0000
  C   C1155     1.0  0.41397  0.62968  0.87319  1.0000
  C   C1156     1.0  0.34454  0.48967  0.78785  1.0000
  C   C1157     1.0  0.24417  0.40779  0.76722  1.0000
  C   C1158     1.0  0.47630  0.32915  0.86238  1.0000
  H   H1156     1.0  0.43457  0.64701  0.52925  1.0000
  H   H1157     1.0  0.26470  0.49187  0.85190  1.0000
  C   C1159     1.0  0.48010  0.35906  0.75727  1.0000
  H   H1158     1.0  0.24509  0.54180  0.96624  1.0000
  H   H1159     1.0  0.47159  0.56271  0.74526  1.0000
  H   H1160     1.0  0.30664  0.35331  0.96025  1.0000
  C   C1160     1.0  0.35521  0.53307  0.97646  1.0000
  H   H1161     1.0  0.47744  0.48144  0.60515  1.0000
  C   C1161     1.0  0.24122  0.50114  0.89168  1.0000
  C   C1162     1.0  0.23663  0.53866  0.92987  1.0000
  C   C1163     1.0  0.47593  0.46884  0.61470  1.0000
  H   H1162     1.0  0.47980  0.61061  0.74335  1.0000
  H   H1163     1.0  0.47375  0.34733  0.75884  1.0000
  C   C1164     1.0  0.36289  0.32667  0.76926  1.0000
  H   H1164     1.0  0.47838  0.38857  0.78763  1.0000
  H   H1165     1.0  0.48160  0.65540  0.80703  1.0000
  C   C1165     1.0  0.48192  0.40238  0.69198  1.0000
  H   H1166     1.0  0.25723  0.34094  0.97671  1.0000
  Fe  Fe185     1.0  0.38501  0.57865  0.48265  1.0000
  C   C1166     1.0  0.47809  0.54231  0.69713  1.0000
  H   H1167     1.0  0.24091  0.56848  0.89591  1.0000
  C   C1167     1.0  0.47444  0.32497  0.80891  1.0000
  C   C1168     1.0  0.23819  0.57854  0.90210  1.0000
  C   C1169     1.0  0.48257  0.38216  0.77297  1.0000
  N   N99       1.0  0.23440  0.38743  0.74655  1.0000
  C   C1170     1.0  0.23402  0.50034  0.91972  1.0000
  H   H1168     1.0  0.23425  0.50071  0.87652  1.0000
  Fe  Fe186     1.0  0.44668  0.96121  0.23644  1.0000
  S   S376      1.0  0.43977  0.95432  0.19905  1.0000
  C   C1171     1.0  0.31465  0.76803  0.44021  1.0000
  Fe  Fe187     1.0  0.43781  0.92711  0.26998  1.0000
  S   S377      1.0  0.43074  0.91759  0.23504  1.0000
  S   S378      1.0  0.43834  0.91124  0.31121  1.0000
  Fe  Fe188     1.0  0.45194  0.93542  0.20666  1.0000
  H   H1169     1.0  0.46188  0.68369  0.05508  1.0000
  Fe  Fe189     1.0  0.41895  0.93693  0.22942  1.0000
  S   S379      1.0  0.39603  0.93451  0.21706  1.0000
  S   S380      1.0  0.46037  0.94333  0.24184  1.0000
  S   S381      1.0  0.42446  0.94544  0.26669  1.0000
  H   H1170     1.0  0.24776  0.97962  0.12357  1.0000
  S   S382      1.0  0.39893  0.84000  0.44591  1.0000
  H   H1171     1.0  0.41132  0.81441  0.06657  1.0000
  S   S383      1.0  0.37279  0.81701  0.42530  1.0000
  H   H1172     1.0  0.42238  0.82743  0.03288  1.0000
  Fe  Fe190     1.0  0.39152  0.81455  0.44776  1.0000
  S   S384      1.0  0.41106  0.80467  0.42978  1.0000
  Fe  Fe191     1.0  0.37899  0.84197  0.42680  1.0000
  S   S385      1.0  0.37841  0.85934  0.38748  1.0000
  H   H1173     1.0  0.42656  0.71103  0.04341  1.0000
  H   H1174     1.0  0.43923  0.85580  0.34713  1.0000
  Fe  Fe192     1.0  0.26038  0.74303  0.44221  1.0000
  H   H1175     1.0  0.47413  0.68850  0.41531  1.0000
  S   S386      1.0  0.28643  0.75014  0.43977  1.0000
  H   H1176     1.0  0.39786  0.66805  0.44603  1.0000
  C   C1172     1.0  0.45367  0.67753  0.40467  1.0000
  S   S387      1.0  0.24624  0.76021  0.43411  1.0000
  S   S388      1.0  0.25461  0.73168  0.40819  1.0000
  H   H1177     1.0  0.42004  0.74707  0.98634  1.0000
  S   S389      1.0  0.45389  0.81178  0.03800  1.0000
  H   H1178     1.0  0.37069  0.83850  0.07850  1.0000
  C   C1173     1.0  0.43283  0.83152  0.46406  1.0000
  Fe  Fe193     1.0  0.34652  0.87793  0.14585  1.0000
  S   S390      1.0  0.35049  0.88281  0.09847  1.0000
  S   S391      1.0  0.36730  0.88044  0.16491  1.0000
  Fe  Fe194     1.0  0.31162  0.86559  0.15539  1.0000
  S   S392      1.0  0.31287  0.86976  0.10896  1.0000
  S   S393      1.0  0.28953  0.85556  0.19051  1.0000
  Fe  Fe195     1.0  0.33343  0.85973  0.10630  1.0000
  S   S394      1.0  0.33888  0.84236  0.08132  1.0000
  Fe  Fe196     1.0  0.32968  0.89247  0.10493  1.0000
  S   S395      1.0  0.32874  0.91381  0.07331  1.0000
  S   S396      1.0  0.33106  0.85392  0.15329  1.0000
  S   S397      1.0  0.32678  0.88921  0.15179  1.0000
  C   C1174     1.0  0.32538  0.83283  0.06553  1.0000
  C   C1175     1.0  0.32935  0.82193  0.05103  1.0000
  C   C1176     1.0  0.31856  0.81334  0.03986  1.0000
  C   C1177     1.0  0.30359  0.81537  0.04362  1.0000
  C   C1178     1.0  0.29969  0.82645  0.05771  1.0000
  C   C1179     1.0  0.31059  0.83528  0.06834  1.0000
  H   H1179     1.0  0.27968  0.78984  0.09994  1.0000
  H   H1180     1.0  0.28813  0.82806  0.06075  1.0000
  H   H1181     1.0  0.30738  0.84363  0.07944  1.0000
  C   C1180     1.0  0.32785  0.93113  0.08340  1.0000
  C   C1181     1.0  0.32618  0.94377  0.06372  1.0000
  C   C1182     1.0  0.32424  0.95735  0.07161  1.0000
  C   C1183     1.0  0.32388  0.95832  0.09931  1.0000
  C   C1184     1.0  0.32581  0.94580  0.11891  1.0000
  C   C1185     1.0  0.32784  0.93224  0.11095  1.0000
  H   H1182     1.0  0.32621  0.94299  0.04236  1.0000
  H   H1183     1.0  0.32560  0.94653  0.14034  1.0000
  H   H1184     1.0  0.32916  0.92259  0.12623  1.0000
  H   H1185     1.0  0.45046  0.87818  0.30469  1.0000
  H   H1186     1.0  0.42078  0.90307  0.13361  1.0000
  N   N100      1.0  0.41622  0.92409  0.14154  1.0000
  H   H1187     1.0  0.29509  0.88952  0.19167  1.0000
  C   C1186     1.0  0.43634  0.84612  0.46948  1.0000
  H   H1188     1.0  0.41897  0.83304  0.37292  1.0000
  C   C1187     1.0  0.46927  0.82783  0.03554  1.0000
  C   C1188     1.0  0.41435  0.78739  0.44871  1.0000
  H   H1189     1.0  0.45406  0.66580  0.41432  1.0000
  H   H1190     1.0  0.29858  0.82082  0.18398  1.0000
  H   H1191     1.0  0.43809  0.93757  0.14181  1.0000
  H   H1192     1.0  0.43406  0.91725  0.15950  1.0000
  H   H1193     1.0  0.31940  0.76254  0.42443  1.0000
  C   C1189     1.0  0.43837  0.71383  0.03067  1.0000
  H   H1194     1.0  0.28582  0.70636  0.41455  1.0000
  C   C1190     1.0  0.45892  0.70552  0.00432  1.0000
  C   C1191     1.0  0.44142  0.67995  0.39310  1.0000
  H   H1195     1.0  0.43222  0.67007  0.39381  1.0000
  H   H1196     1.0  0.47985  0.72361  0.98329  1.0000
  C   C1192     1.0  0.24658  0.82527  0.17637  1.0000
  H   H1197     1.0  0.28949  0.89087  0.09552  1.0000
  N   N101      1.0  0.45231  0.70761  0.38119  1.0000
  H   H1198     1.0  0.43640  0.69034  0.02670  1.0000
  C   C1193     1.0  0.45848  0.66444  0.03594  1.0000
  H   H1199     1.0  0.42438  0.92948  0.17608  1.0000
  C   C1194     1.0  0.40700  0.93416  0.13922  1.0000
  C   C1195     1.0  0.47689  0.66903  0.06456  1.0000
  H   H1200     1.0  0.43491  0.78908  0.41687  1.0000
  C   C1196     1.0  0.39476  0.87473  0.36806  1.0000
  C   C1197     1.0  0.39403  0.88473  0.34305  1.0000
  C   C1198     1.0  0.40718  0.89635  0.32589  1.0000
  C   C1199     1.0  0.42117  0.89801  0.33365  1.0000
  C   C1200     1.0  0.42180  0.88826  0.35902  1.0000
  C   C1201     1.0  0.40864  0.87666  0.37620  1.0000
  H   H1201     1.0  0.38331  0.88336  0.33668  1.0000
  H   H1202     1.0  0.40657  0.90383  0.30642  1.0000
  H   H1203     1.0  0.43257  0.88957  0.36520  1.0000
  H   H1204     1.0  0.40931  0.86917  0.39557  1.0000
  C   C1202     1.0  0.36337  0.79353  0.98965  1.0000
  C   C1203     1.0  0.26001  0.83667  0.20740  1.0000
  Fe  Fe197     1.0  0.23941  0.74792  0.40209  1.0000
  C   C1204     1.0  0.47871  0.83716  0.00932  1.0000
  H   H1205     1.0  0.28223  0.84879  0.13945  1.0000
  C   C1205     1.0  0.38716  0.91855  0.20545  1.0000
  C   C1206     1.0  0.37390  0.91905  0.19544  1.0000
  C   C1207     1.0  0.36731  0.90722  0.18380  1.0000
  C   C1208     1.0  0.37394  0.89475  0.18214  1.0000
  C   C1209     1.0  0.38690  0.89402  0.19296  1.0000
  C   C1210     1.0  0.39348  0.90583  0.20454  1.0000
  H   H1206     1.0  0.36887  0.92879  0.19618  1.0000
  H   H1207     1.0  0.35732  0.90792  0.17562  1.0000
  H   H1208     1.0  0.39206  0.88438  0.19190  1.0000
  H   H1209     1.0  0.40356  0.90518  0.21241  1.0000
  H   H1210     1.0  0.39273  0.82712  0.08376  1.0000
  C   C1211     1.0  0.44391  0.70202  0.02139  1.0000
  H   H1211     1.0  0.23719  0.82076  0.22136  1.0000
  C   C1212     1.0  0.27289  0.84443  0.18444  1.0000
  H   H1212     1.0  0.26031  0.83779  0.22848  1.0000
  N   N102      1.0  0.27930  0.80055  0.13440  1.0000
  C   C1213     1.0  0.27050  0.80107  0.15972  1.0000
  S   S398      1.0  0.45689  0.98759  0.22837  1.0000
  C   C1214     1.0  0.27739  0.80790  0.17830  1.0000
  C   C1215     1.0  0.46415  0.70532  0.39311  1.0000
  H   H1213     1.0  0.30195  0.80624  0.10698  1.0000
  C   C1216     1.0  0.27178  0.79438  0.11429  1.0000
  H   H1214     1.0  0.25801  0.79659  0.16537  1.0000
  C   C1217     1.0  0.31868  0.83132  0.45582  1.0000
  H   H1215     1.0  0.27032  0.80852  0.19814  1.0000
  C   C1218     1.0  0.43861  0.87143  0.30892  1.0000
  C   C1219     1.0  0.40127  0.90787  0.11914  1.0000
  H   H1216     1.0  0.26831  0.80379  0.10091  1.0000
  C   C1220     1.0  0.36077  0.75544  0.99379  1.0000
  H   H1217     1.0  0.43112  0.69694  0.37315  1.0000
  N   N103      1.0  0.39819  0.82532  0.04105  1.0000
  H   H1218     1.0  0.39869  0.89721  0.11250  1.0000
  H   H1219     1.0  0.44825  0.72921  0.38596  1.0000
  H   H1220     1.0  0.44449  0.74175  0.05330  1.0000
  H   H1221     1.0  0.47297  0.71515  0.39366  1.0000
  S   S399      1.0  0.43004  0.78321  0.00570  1.0000
  H   H1222     1.0  0.34067  0.81980  0.04898  1.0000
  H   H1223     1.0  0.44344  0.72386  0.35539  1.0000
  N   N104      1.0  0.41696  0.85082  0.33896  1.0000
  C   C1221     1.0  0.40782  0.85523  0.32183  1.0000
  C   C1222     1.0  0.43213  0.85885  0.33297  1.0000
  C   C1223     1.0  0.41396  0.86768  0.29749  1.0000
  N   N105      1.0  0.28603  0.89978  0.15870  1.0000
  C   C1224     1.0  0.42945  0.87581  0.29107  1.0000
  H   H1224     1.0  0.48030  0.92091  0.12149  1.0000
  H   H1225     1.0  0.39560  0.84945  0.32744  1.0000
  H   H1226     1.0  0.40181  0.82849  0.36111  1.0000
  H   H1227     1.0  0.40660  0.87145  0.28438  1.0000
  C   C1225     1.0  0.41896  0.67279  0.45954  1.0000
  C   C1226     1.0  0.40713  0.66337  0.45162  1.0000
  C   C1227     1.0  0.47731  0.90926  0.19215  1.0000
  H   H1228     1.0  0.40381  0.84254  0.38171  1.0000
  C   C1228     1.0  0.28630  0.71350  0.45309  1.0000
  C   C1229     1.0  0.47540  0.91762  0.16676  1.0000
  C   C1230     1.0  0.26541  0.69407  0.44822  1.0000
  H   H1229     1.0  0.42884  0.73861  0.03621  1.0000
  C   C1231     1.0  0.42107  0.76073  0.47911  1.0000
  H   H1230     1.0  0.46329  0.73061  0.35537  1.0000
  H   H1231     1.0  0.47238  0.91159  0.21197  1.0000
  H   H1232     1.0  0.47648  0.83481  0.98994  1.0000
  H   H1233     1.0  0.24442  0.71404  0.99187  1.0000
  C   C1232     1.0  0.37360  0.83823  0.03472  1.0000
  H   H1234     1.0  0.44949  0.66773  0.02680  1.0000
  C   C1233     1.0  0.29495  0.80675  0.12693  1.0000
  C   C1234     1.0  0.28872  0.89783  0.11074  1.0000
  H   H1235     1.0  0.44349  0.85620  0.45276  1.0000
  H   H1236     1.0  0.31324  0.84099  0.45024  1.0000
  S   S400      1.0  0.30286  0.77304  0.98979  1.0000
  C   C1235     1.0  0.42735  0.78252  0.43737  1.0000
  H   H1237     1.0  0.28856  0.92270  0.16460  1.0000
  H   H1238     1.0  0.28095  0.89981  0.20262  1.0000
  H   H1239     1.0  0.26008  0.68738  0.43546  1.0000
  S   S401      1.0  0.46531  0.93217  0.16595  1.0000
  S   S402      1.0  0.28898  0.80284  0.03452  1.0000
  C   C1236     1.0  0.37742  0.83559  0.06068  1.0000
  H   H1240     1.0  0.40882  0.94413  0.14808  1.0000
  C   C1237     1.0  0.28415  0.89231  0.18866  1.0000
  C   C1238     1.0  0.29850  0.76433  0.45129  1.0000
  H   H1241     1.0  0.36008  0.79282  0.01207  1.0000
  S   S403      1.0  0.44565  0.72267  0.44720  1.0000
  C   C1239     1.0  0.41362  0.91117  0.13141  1.0000
  C   C1240     1.0  0.48184  0.91454  0.14116  1.0000
  C   C1241     1.0  0.43070  0.76923  0.45247  1.0000
  S   S404      1.0  0.32041  0.97477  0.11025  1.0000
  C   C1242     1.0  0.39170  0.91798  0.11697  1.0000
  H   H1242     1.0  0.41876  0.68461  0.45994  1.0000
  H   H1243     1.0  0.29320  0.91942  0.07899  1.0000
  H   H1244     1.0  0.32163  0.80470  0.02937  1.0000
  H   H1245     1.0  0.33942  0.81272  0.36407  1.0000
  Fe  Fe198     1.0  0.29416  0.79404  0.99506  1.0000
  H   H1246     1.0  0.43720  0.83002  0.44315  1.0000
  C   C1243     1.0  0.28631  0.89093  0.13962  1.0000
  C   C1244     1.0  0.42881  0.92723  0.15529  1.0000
  S   S405      1.0  0.44593  0.67791  0.47826  1.0000
  C   C1245     1.0  0.46227  0.73228  0.00629  1.0000
  C   C1246     1.0  0.24689  0.82706  0.20343  1.0000
  C   C1247     1.0  0.41009  0.83812  0.36492  1.0000
  H   H1247     1.0  0.25909  0.83209  0.13230  1.0000
  H   H1248     1.0  0.46940  0.74417  0.99971  1.0000
  H   H1249     1.0  0.29732  0.72206  0.44353  1.0000
  H   H1250     1.0  0.31449  0.81963  0.13788  1.0000
  S   S406      1.0  0.47833  0.71630  0.45835  1.0000
  S   S407      1.0  0.41125  0.69149  0.99074  1.0000
  H   H1251     1.0  0.33713  0.78149  0.44045  1.0000
  H   H1252     1.0  0.41068  0.80842  0.03481  1.0000
  S   S408      1.0  0.39220  0.79353  0.99728  1.0000
  H   H1253     1.0  0.44663  0.75248  0.01722  1.0000
  H   H1254     1.0  0.31309  0.79955  0.39560  1.0000
  C   C1248     1.0  0.43088  0.66681  0.46733  1.0000
  H   H1255     1.0  0.38170  0.91518  0.10860  1.0000
  C   C1249     1.0  0.40468  0.77884  0.47528  1.0000
  C   C1250     1.0  0.46500  0.69027  0.40508  1.0000
  C   C1251     1.0  0.47233  0.83109  0.06052  1.0000
  C   C1252     1.0  0.25926  0.83345  0.15329  1.0000
  H   H1256     1.0  0.23955  0.77276  0.30066  1.0000
  H   H1257     1.0  0.38320  0.75725  0.00247  1.0000
  C   C1253     1.0  0.44157  0.74097  0.03302  1.0000
  H   H1258     1.0  0.46327  0.69651  0.99667  1.0000
  C   C1254     1.0  0.38222  0.83443  0.01191  1.0000
  H   H1259     1.0  0.32279  0.96697  0.05636  1.0000
  H   H1260     1.0  0.38695  0.93892  0.12616  1.0000
  H   H1261     1.0  0.44075  0.76559  0.44357  1.0000
  H   H1262     1.0  0.43421  0.88593  0.27300  1.0000
  C   C1255     1.0  0.27240  0.84294  0.15729  1.0000
  C   C1256     1.0  0.29072  0.91385  0.10147  1.0000
  Fe  Fe199     1.0  0.47085  0.73544  0.43314  1.0000
  C   C1257     1.0  0.32477  0.77876  0.44931  1.0000
  C   C1258     1.0  0.39462  0.93127  0.12687  1.0000
  S   S409      1.0  0.46977  0.74907  0.46593  1.0000
  N   N106      1.0  0.44747  0.72876  0.02280  1.0000
  H   H1263     1.0  0.46137  0.98029  0.28595  1.0000
  S   S410      1.0  0.36195  0.83769  0.46878  1.0000
  H   H1264     1.0  0.28490  0.87848  0.14663  1.0000
  C   C1259     1.0  0.45172  0.72355  0.36886  1.0000
  C   C1260     1.0  0.38985  0.82911  0.06350  1.0000
  C   C1261     1.0  0.29036  0.92279  0.12106  1.0000
  H   H1265     1.0  0.35513  0.75513  0.01531  1.0000
  H   H1266     1.0  0.29244  0.93534  0.11388  1.0000
  H   H1267     1.0  0.31021  0.82151  0.47259  1.0000
  C   C1262     1.0  0.29326  0.81478  0.17036  1.0000
  Fe  Fe200     1.0  0.44732  0.80607  0.99902  1.0000
  C   C1263     1.0  0.30215  0.81417  0.14453  1.0000
  N   N107      1.0  0.32436  0.82623  0.43055  1.0000
  C   C1264     1.0  0.33873  0.83371  0.41310  1.0000
  C   C1265     1.0  0.31504  0.81442  0.42396  1.0000
  C   C1266     1.0  0.34435  0.82901  0.38890  1.0000
  C   C1267     1.0  0.32034  0.80931  0.40010  1.0000
  C   C1268     1.0  0.33512  0.81664  0.38254  1.0000
  H   H1268     1.0  0.26132  0.78470  0.12552  1.0000
  H   H1269     1.0  0.34602  0.84329  0.41796  1.0000
  H   H1270     1.0  0.30360  0.80854  0.43765  1.0000
  H   H1271     1.0  0.35584  0.83491  0.37538  1.0000
  H   H1272     1.0  0.27488  0.88122  0.19575  1.0000
  C   C1269     1.0  0.28821  0.91555  0.14973  1.0000
  H   H1273     1.0  0.32951  0.74135  0.99015  1.0000
  C   C1270     1.0  0.44084  0.69517  0.38159  1.0000
  C   C1271     1.0  0.41126  0.81861  0.04403  1.0000
  C   C1272     1.0  0.27984  0.70468  0.43652  1.0000
  C   C1273     1.0  0.46548  0.67342  0.05197  1.0000
  S   S411      1.0  0.24224  0.76025  0.35638  1.0000
  H   H1274     1.0  0.36394  0.84321  0.03237  1.0000
  H   H1275     1.0  0.40429  0.71958  0.00030  1.0000
  H   H1276     1.0  0.46502  0.82399  0.08090  1.0000
  Fe  Fe201     1.0  0.35689  0.81232  0.46857  1.0000
  C   C1274     1.0  0.39466  0.82811  0.01540  1.0000
  H   H1277     1.0  0.34015  0.79185  0.98480  1.0000
  C   C1275     1.0  0.25762  0.69241  0.47620  1.0000
  H   H1278     1.0  0.32830  0.83521  0.46535  1.0000
  C   C1276     1.0  0.37664  0.75652  0.98672  1.0000
  H   H1279     1.0  0.33295  0.76018  0.99793  1.0000
  H   H1280     1.0  0.23431  0.70173  0.37750  1.0000
  C   C1277     1.0  0.41581  0.72275  0.98636  1.0000
  C   C1278     1.0  0.31889  0.78575  0.47012  1.0000
  C   C1279     1.0  0.46821  0.72073  0.99679  1.0000
  H   H1281     1.0  0.37928  0.83630  0.99169  1.0000
  H   H1282     1.0  0.40138  0.82529  0.99750  1.0000
  C   C1280     1.0  0.29260  0.77149  0.47182  1.0000
  Fe  Fe202     1.0  0.45290  0.70419  0.47503  1.0000
  S   S412      1.0  0.24091  0.72483  0.47576  1.0000
  S   S413      1.0  0.48193  0.74733  0.38679  1.0000
  C   C1281     1.0  0.33591  0.75381  0.98168  1.0000
  Fe  Fe203     1.0  0.44976  0.93825  0.60110  1.0000
  S   S414      1.0  0.44899  0.92227  0.64238  1.0000
  S   S415      1.0  0.45953  0.96463  0.59075  1.0000
  Fe  Fe204     1.0  0.43439  0.91070  0.57889  1.0000
  S   S416      1.0  0.43287  0.89300  0.61880  1.0000
  S   S417      1.0  0.42564  0.90476  0.54147  1.0000
  Fe  Fe205     1.0  0.42513  0.91025  0.64111  1.0000
  S   S418      1.0  0.40552  0.90205  0.68090  1.0000
  Fe  Fe206     1.0  0.45682  0.90675  0.61603  1.0000
  H   H1283     1.0  0.44647  0.85091  0.81655  1.0000
  S   S419      1.0  0.42518  0.92731  0.60148  1.0000
  S   S420      1.0  0.45907  0.92344  0.57437  1.0000
  S   S421      1.0  0.38667  0.84085  0.52756  1.0000
  H   H1284     1.0  0.28668  0.95187  0.80181  1.0000
  H   H1285     1.0  0.39645  0.75837  0.95315  1.0000
  C   C1282     1.0  0.23498  0.97374  0.77140  1.0000
  S   S422      1.0  0.40975  0.66070  0.94533  1.0000
  S   S423      1.0  0.45082  0.71529  0.51168  1.0000
  S   S424      1.0  0.26754  0.74299  0.97882  1.0000
  S   S425      1.0  0.43426  0.82003  0.97508  1.0000
  C   C1283     1.0  0.40320  0.87216  0.50810  1.0000
  H   H1286     1.0  0.25492  0.95611  0.71682  1.0000
  N   N108      1.0  0.23787  0.76830  0.93977  1.0000
  Fe  Fe207     1.0  0.28390  0.76732  0.96764  1.0000
  C   C1284     1.0  0.36385  0.88327  0.62418  1.0000
  H   H1287     1.0  0.44158  0.70650  0.95165  1.0000
  S   S426      1.0  0.43079  0.79399  0.93799  1.0000
  C   C1285     1.0  0.42650  0.94053  0.68623  1.0000
  C   C1286     1.0  0.48310  0.83675  0.79551  1.0000
  Fe  Fe208     1.0  0.44834  0.81577  0.93630  1.0000
  S   S427      1.0  0.45754  0.83531  0.89602  1.0000
  C   C1287     1.0  0.48306  0.85304  0.85427  1.0000
  N   N109      1.0  0.32610  0.85177  0.83362  1.0000
  H   H1288     1.0  0.33351  0.87535  0.80943  1.0000
  C   C1288     1.0  0.32936  0.82841  0.87623  1.0000
  H   H1289     1.0  0.26546  0.92931  0.74330  1.0000
  Fe  Fe209     1.0  0.28444  0.86877  0.70521  1.0000
  S   S428      1.0  0.27778  0.86330  0.75276  1.0000
  S   S429      1.0  0.27075  0.86053  0.67547  1.0000
  Fe  Fe210     1.0  0.31711  0.88797  0.70065  1.0000
  S   S430      1.0  0.31330  0.88394  0.74784  1.0000
  S   S431      1.0  0.33841  0.90242  0.66643  1.0000
  Fe  Fe211     1.0  0.30143  0.85932  0.74981  1.0000
  S   S432      1.0  0.30616  0.83768  0.77423  1.0000
  Fe  Fe212     1.0  0.29010  0.88849  0.74683  1.0000
  S   S433      1.0  0.27905  0.90358  0.77125  1.0000
  S   S434      1.0  0.30731  0.86303  0.70259  1.0000
  S   S435      1.0  0.29470  0.89426  0.69942  1.0000
  Fe  Fe213     1.0  0.31678  0.78852  0.94699  1.0000
  H   H1290     1.0  0.29700  0.72867  0.48643  1.0000
  S   S436      1.0  0.34192  0.79072  0.92625  1.0000
  Fe  Fe214     1.0  0.28992  0.80114  0.93481  1.0000
  H   H1291     1.0  0.29975  0.96456  0.94841  1.0000
  S   S437      1.0  0.27989  0.81738  0.90748  1.0000
  H   H1292     1.0  0.24893  0.79315  0.76133  1.0000
  H   H1293     1.0  0.33046  0.81913  0.89280  1.0000
  C   C1289     1.0  0.25757  0.80151  0.71617  1.0000
  C   C1290     1.0  0.26609  0.96140  0.71960  1.0000
  H   H1294     1.0  0.33183  0.75898  0.96321  1.0000
  S   S438      1.0  0.29860  0.78113  0.92435  1.0000
  S   S439      1.0  0.31990  0.96654  0.78217  1.0000
  H   H1295     1.0  0.39609  0.81067  0.54379  1.0000
  H   H1296     1.0  0.27794  0.73031  0.50023  1.0000
  H   H1297     1.0  0.31157  0.85768  0.86675  1.0000
  C   C1291     1.0  0.25785  0.74204  0.92953  1.0000
  H   H1298     1.0  0.35531  0.87581  0.64310  1.0000
  H   H1299     1.0  0.34368  0.82234  0.84252  1.0000
  H   H1300     1.0  0.26637  0.75301  0.91954  1.0000
  H   H1301     1.0  0.41578  0.89644  0.49426  1.0000
  C   C1292     1.0  0.29787  0.83139  0.81099  1.0000
  C   C1293     1.0  0.30158  0.81876  0.82715  1.0000
  C   C1294     1.0  0.29592  0.81415  0.85681  1.0000
  C   C1295     1.0  0.28639  0.82208  0.87032  1.0000
  C   C1296     1.0  0.28229  0.83439  0.85404  1.0000
  C   C1297     1.0  0.28806  0.83909  0.82443  1.0000
  H   H1302     1.0  0.30912  0.81272  0.81680  1.0000
  H   H1303     1.0  0.29909  0.80461  0.86919  1.0000
  H   H1304     1.0  0.27487  0.84052  0.86444  1.0000
  H   H1305     1.0  0.28508  0.84880  0.81210  1.0000
  C   C1298     1.0  0.29061  0.92071  0.77522  1.0000
  C   C1299     1.0  0.28350  0.93038  0.78904  1.0000
  C   C1300     1.0  0.29233  0.94442  0.79154  1.0000
  C   C1301     1.0  0.30837  0.94880  0.78046  1.0000
  C   C1302     1.0  0.31549  0.93902  0.76698  1.0000
  C   C1303     1.0  0.30664  0.92509  0.76416  1.0000
  H   H1306     1.0  0.27109  0.92706  0.79761  1.0000
  H   H1307     1.0  0.32789  0.94235  0.75826  1.0000
  H   H1308     1.0  0.31224  0.91779  0.75333  1.0000
  C   C1304     1.0  0.31942  0.96337  0.90347  1.0000
  C   C1305     1.0  0.38295  0.79566  0.94736  1.0000
  C   C1306     1.0  0.37160  0.79497  0.93201  1.0000
  C   C1307     1.0  0.35608  0.79336  0.94547  1.0000
  N   N110      1.0  0.41715  0.82055  0.51186  1.0000
  S   S440      1.0  0.44354  0.67076  0.95927  1.0000
  H   H1309     1.0  0.39481  0.79656  0.93691  1.0000
  H   H1310     1.0  0.37482  0.79536  0.90972  1.0000
  H   H1311     1.0  0.27052  0.82449  0.78136  1.0000
  H   H1312     1.0  0.25456  0.97814  0.78948  1.0000
  H   H1313     1.0  0.46960  0.95598  0.64289  1.0000
  C   C1308     1.0  0.47376  0.81442  0.83735  1.0000
  H   H1314     1.0  0.34071  0.84326  0.80481  1.0000
  N   N111      1.0  0.27676  0.95296  0.72227  1.0000
  C   C1309     1.0  0.38428  0.87418  0.64263  1.0000
  H   H1315     1.0  0.25802  0.70049  0.51358  1.0000
  C   C1310     1.0  0.29067  0.95959  0.72645  1.0000
  H   H1316     1.0  0.32661  0.86160  0.79047  1.0000
  C   C1311     1.0  0.30274  0.78199  0.48132  1.0000
  H   H1317     1.0  0.45742  0.73385  0.93819  1.0000
  H   H1318     1.0  0.31414  0.83693  0.90478  1.0000
  C   C1312     1.0  0.47147  0.97531  0.60797  1.0000
  H   H1319     1.0  0.30503  0.98001  0.73260  1.0000
  S   S441      1.0  0.44427  0.66445  0.88310  1.0000
  C   C1313     1.0  0.45861  0.83332  0.82680  1.0000
  C   C1314     1.0  0.36978  0.90245  0.57939  1.0000
  H   H1320     1.0  0.40054  0.75903  0.51096  1.0000
  C   C1315     1.0  0.28492  0.72180  0.49726  1.0000
  H   H1321     1.0  0.28848  0.83234  0.68222  1.0000
  H   H1322     1.0  0.46685  0.81194  0.85966  1.0000
  H   H1323     1.0  0.34673  0.89232  0.60675  1.0000
  C   C1316     1.0  0.41527  0.88669  0.53782  1.0000
  C   C1317     1.0  0.41007  0.87315  0.56021  1.0000
  C   C1318     1.0  0.40120  0.85934  0.55673  1.0000
  C   C1319     1.0  0.39769  0.85874  0.53069  1.0000
  C   C1320     1.0  0.32481  0.86444  0.81133  1.0000
  H   H1324     1.0  0.37599  0.87119  0.66382  1.0000
  H   H1325     1.0  0.41280  0.87330  0.58026  1.0000
  H   H1326     1.0  0.39708  0.84902  0.57432  1.0000
  H   H1327     1.0  0.42230  0.96343  0.62674  1.0000
  H   H1328     1.0  0.28487  0.71467  0.51828  1.0000
  H   H1329     1.0  0.46180  0.89914  0.67462  1.0000
  C   C1321     1.0  0.38688  0.90296  0.67765  1.0000
  C   C1322     1.0  0.38479  0.91234  0.65345  1.0000
  C   C1323     1.0  0.36983  0.91253  0.65088  1.0000
  C   C1324     1.0  0.35686  0.90309  0.67216  1.0000
  C   C1325     1.0  0.35889  0.89379  0.69654  1.0000
  C   C1326     1.0  0.37390  0.89386  0.69938  1.0000
  H   H1330     1.0  0.39462  0.91943  0.63662  1.0000
  H   H1331     1.0  0.36830  0.91977  0.63200  1.0000
  H   H1332     1.0  0.34892  0.88647  0.71302  1.0000
  H   H1333     1.0  0.37546  0.88659  0.71819  1.0000
  C   C1327     1.0  0.25649  0.73449  0.95774  1.0000
  H   H1334     1.0  0.40247  0.79729  0.52539  1.0000
  C   C1328     1.0  0.32033  0.83844  0.88298  1.0000
  C   C1329     1.0  0.25451  0.84436  0.68598  1.0000
  C   C1330     1.0  0.24550  0.72005  0.97014  1.0000
  H   H1335     1.0  0.39561  0.88030  0.64499  1.0000
  H   H1336     1.0  0.25089  0.84205  0.73080  1.0000
  H   H1337     1.0  0.23637  0.75056  0.51757  1.0000
  S   S442      1.0  0.37532  0.80801  0.49131  1.0000
  H   H1338     1.0  0.46707  0.86608  0.77277  1.0000
  C   C1331     1.0  0.35205  0.79295  0.97425  1.0000
  C   C1332     1.0  0.40655  0.80727  0.53404  1.0000
  C   C1333     1.0  0.48256  0.66810  0.89935  1.0000
  N   N112      1.0  0.47183  0.82858  0.81963  1.0000
  H   H1339     1.0  0.48289  0.82146  0.90484  1.0000
  C   C1334     1.0  0.47707  0.89485  0.70139  1.0000
  C   C1335     1.0  0.23655  0.82511  0.67250  1.0000
  H   H1340     1.0  0.44973  0.82693  0.84607  1.0000
  H   H1341     1.0  0.24928  0.78935  0.90685  1.0000
  H   H1342     1.0  0.24349  0.76444  0.97972  1.0000
  C   C1336     1.0  0.47263  0.89638  0.67584  1.0000
  C   C1337     1.0  0.44573  0.73082  0.95141  1.0000
  H   H1343     1.0  0.38135  0.75772  0.91693  1.0000
  C   C1338     1.0  0.31886  0.85015  0.86130  1.0000
  H   H1344     1.0  0.27926  0.80836  0.78378  1.0000
  C   C1339     1.0  0.29707  0.95615  0.88701  1.0000
  Fe  Fe215     1.0  0.38156  0.83386  0.48810  1.0000
  C   C1340     1.0  0.26924  0.81247  0.77872  1.0000
  H   H1345     1.0  0.28886  0.83149  0.73200  1.0000
  S   S443      1.0  0.27410  0.78698  0.97676  1.0000
  C   C1341     1.0  0.32898  0.96451  0.87697  1.0000
  Fe  Fe216     1.0  0.44417  0.78179  0.96439  1.0000
  S   S444      1.0  0.46267  0.80345  0.95994  1.0000
  H   H1346     1.0  0.31306  0.86645  0.81605  1.0000
  Fe  Fe217     1.0  0.41911  0.67140  0.97705  1.0000
  H   H1347     1.0  0.29801  0.78724  0.49751  1.0000
  C   C1342     1.0  0.26437  0.70149  0.49213  1.0000
  H   H1348     1.0  0.41626  0.83604  0.53850  1.0000
  C   C1343     1.0  0.23563  0.71347  0.95491  1.0000
  C   C1344     1.0  0.43983  0.74230  0.96150  1.0000
  C   C1345     1.0  0.46822  0.85539  0.78577  1.0000
  C   C1346     1.0  0.29383  0.95724  0.93650  1.0000
  H   H1349     1.0  0.25849  0.80495  0.79434  1.0000
  C   C1347     1.0  0.32233  0.96119  0.85538  1.0000
  C   C1348     1.0  0.38996  0.89376  0.59745  1.0000
  S   S445      1.0  0.45231  0.76097  0.95508  1.0000
  H   H1350     1.0  0.24899  0.74152  0.89266  1.0000
  C   C1349     1.0  0.24694  0.83738  0.71453  1.0000
  C   C1350     1.0  0.24795  0.98321  0.77614  1.0000
  N   N113      1.0  0.30368  0.95926  0.90817  1.0000
  H   H1351     1.0  0.30105  0.95461  0.84353  1.0000
  C   C1351     1.0  0.26872  0.81254  0.69376  1.0000
  H   H1352     1.0  0.40214  0.89440  0.59493  1.0000
  C   C1352     1.0  0.24918  0.83828  0.66502  1.0000
  H   H1353     1.0  0.26666  0.93467  0.70570  1.0000
  C   C1353     1.0  0.35978  0.75592  0.94643  1.0000
  H   H1354     1.0  0.46341  0.66952  0.82724  1.0000
  H   H1355     1.0  0.46968  0.89659  0.71972  1.0000
  H   H1356     1.0  0.38541  0.86333  0.63649  1.0000
  C   C1354     1.0  0.33507  0.84206  0.82679  1.0000
  H   H1357     1.0  0.25500  0.84366  0.64289  1.0000
  N   N114      1.0  0.43654  0.97107  0.65275  1.0000
  Fe  Fe218     1.0  0.30963  0.98515  0.79642  1.0000
  H   H1358     1.0  0.24845  0.79329  0.71193  1.0000
  H   H1359     1.0  0.35333  0.75599  0.93041  1.0000
  C   C1355     1.0  0.48381  0.97734  0.64647  1.0000
  H   H1360     1.0  0.32468  0.96594  0.92018  1.0000
  C   C1356     1.0  0.28004  0.82340  0.69947  1.0000
  C   C1357     1.0  0.45669  0.84688  0.81019  1.0000
  H   H1361     1.0  0.42264  0.92854  0.69906  1.0000
  Fe  Fe219     1.0  0.41794  0.79713  0.97900  1.0000
  H   H1362     1.0  0.28307  0.96094  0.93500  1.0000
  C   C1358     1.0  0.29413  0.97498  0.72846  1.0000
  C   C1359     1.0  0.42193  0.71115  0.97707  1.0000
  C   C1360     1.0  0.46443  0.65883  0.84022  1.0000
  N   N115      1.0  0.26891  0.81239  0.74949  1.0000
  C   C1361     1.0  0.28003  0.82306  0.72764  1.0000
  C   C1362     1.0  0.25783  0.80160  0.74410  1.0000
  H   H1363     1.0  0.26172  0.77972  0.92352  1.0000
  C   C1363     1.0  0.28338  0.98372  0.72551  1.0000
  C   C1364     1.0  0.25037  0.78260  0.92732  1.0000
  C   C1365     1.0  0.43048  0.84773  0.49651  1.0000
  S   S446      1.0  0.28499  0.98160  0.82014  1.0000
  H   H1364     1.0  0.34145  0.96797  0.87316  1.0000
  N   N116      1.0  0.37924  0.88412  0.62110  1.0000
  S   S447      1.0  0.30924  0.80980  0.95366  1.0000
  C   C1366     1.0  0.37880  0.79465  0.97637  1.0000
  S   S448      1.0  0.47708  0.89653  0.61956  1.0000
  S   S449      1.0  0.42496  0.74411  0.49908  1.0000
  C   C1367     1.0  0.30628  0.95702  0.86036  1.0000
  H   H1365     1.0  0.29071  0.94485  0.94867  1.0000
  H   H1366     1.0  0.43294  0.85904  0.50099  1.0000
  H   H1367     1.0  0.26093  0.98368  0.71823  1.0000
  C   C1368     1.0  0.42109  0.94486  0.66234  1.0000
  H   H1368     1.0  0.36611  0.90971  0.56323  1.0000
  H   H1369     1.0  0.28336  0.93207  0.71774  1.0000
  C   C1369     1.0  0.33678  0.83021  0.84796  1.0000
  C   C1370     1.0  0.42101  0.83468  0.51766  1.0000
  H   H1370     1.0  0.29912  0.95290  0.72869  1.0000
  C   C1371     1.0  0.38541  0.90301  0.57619  1.0000
  H   H1371     1.0  0.47008  0.80433  0.82881  1.0000
  C   C1372     1.0  0.43697  0.95162  0.69328  1.0000
  C   C1373     1.0  0.47735  0.84037  0.87837  1.0000
  C   C1374     1.0  0.44123  0.98728  0.63570  1.0000
  H   H1372     1.0  0.41295  0.93630  0.65676  1.0000
  C   C1375     1.0  0.42632  0.96024  0.64564  1.0000
  C   C1376     1.0  0.44178  0.96698  0.67636  1.0000
  Fe  Fe220     1.0  0.47569  0.72907  0.49256  1.0000
  H   H1373     1.0  0.44135  0.94835  0.71170  1.0000
  H   H1374     1.0  0.32957  0.96207  0.83465  1.0000
  C   C1377     1.0  0.35890  0.89257  0.60358  1.0000
  C   C1378     1.0  0.41181  0.88606  0.51176  1.0000
  H   H1375     1.0  0.24158  0.75751  0.56101  1.0000
  H   H1376     1.0  0.39459  0.78241  0.48419  1.0000
  H   H1377     1.0  0.39403  0.91054  0.55738  1.0000
  C   C1379     1.0  0.24801  0.73545  0.91431  1.0000
  H   H1378     1.0  0.28459  0.95314  0.89058  1.0000
  N   N117      1.0  0.27853  0.71188  0.48050  1.0000
  C   C1380     1.0  0.27286  0.93649  0.72218  1.0000
  H   H1379     1.0  0.40064  0.87193  0.48793  1.0000
  C   C1381     1.0  0.43679  0.71531  0.95901  1.0000
  C   C1382     1.0  0.40806  0.76560  0.49042  1.0000
  H   H1380     1.0  0.47558  0.86019  0.84803  1.0000
  H   H1381     1.0  0.26832  0.81296  0.67203  1.0000
  H   H1382     1.0  0.44339  0.98779  0.61271  1.0000
  C   C1383     1.0  0.26936  0.97697  0.72062  1.0000
  N   N118      1.0  0.35259  0.75530  0.97367  1.0000
  Fe  Fe221     1.0  0.44514  0.73467  0.48241  1.0000
  S   S450      1.0  0.33097  0.79959  0.48231  1.0000
  H   H1383     1.0  0.23557  0.78927  0.51563  1.0000
  C   C1384     1.0  0.48210  0.89411  0.65211  1.0000
  C   C1385     1.0  0.47443  0.96832  0.63340  1.0000
  C   C1386     1.0  0.37563  0.75694  0.93865  1.0000
  H   H1384     1.0  0.41238  0.80333  0.55064  1.0000
  H   H1385     1.0  0.24616  0.68452  0.48511  1.0000
  C   C1387     1.0  0.23668  0.72126  0.92699  1.0000
  H   H1386     1.0  0.47398  0.67352  0.90868  1.0000
  H   H1387     1.0  0.25032  0.79041  0.94177  1.0000
  H   H1388     1.0  0.44995  0.97554  0.68194  1.0000
  C   C1388     1.0  0.42469  0.73831  0.97847  1.0000
  C   C1389     1.0  0.48142  0.85022  0.77820  1.0000
  C   C1390     1.0  0.42324  0.81878  0.48569  1.0000
  C   C1391     1.0  0.23588  0.76030  0.96728  1.0000
  C   C1392     1.0  0.38410  0.75728  0.95896  1.0000
  H   H1389     1.0  0.28025  0.76871  0.48078  1.0000
  C   C1393     1.0  0.23417  0.82434  0.72200  1.0000
  Fe  Fe222     1.0  0.43365  0.65795  0.93028  1.0000
  S   S451      1.0  0.28591  0.99051  0.89370  1.0000
  H   H1390     1.0  0.42054  0.80752  0.48129  1.0000
  Fe  Fe223     1.0  0.50505  0.05458  0.28296  1.0000
  S   S452      1.0  0.51691  0.06567  0.23714  1.0000
  Fe  Fe224     1.0  0.57947  0.15197  0.45782  1.0000
  Fe  Fe225     1.0  0.52187  0.08293  0.30182  1.0000
  S   S453      1.0  0.53466  0.09576  0.25692  1.0000
  S   S454      1.0  0.52601  0.09083  0.34113  1.0000
  Fe  Fe226     1.0  0.51194  0.08754  0.24660  1.0000
  H   H1391     1.0  0.61233  0.13380  0.28210  1.0000
  Fe  Fe227     1.0  0.53828  0.07268  0.25187  1.0000
  S   S455      1.0  0.56037  0.06673  0.23385  1.0000
  S   S456      1.0  0.49864  0.07615  0.29196  1.0000
  S   S457      1.0  0.52687  0.06018  0.29734  1.0000
  Fe  Fe228     1.0  0.57772  0.15750  0.39596  1.0000
  S   S458      1.0  0.55985  0.15276  0.43727  1.0000
  S   S459      1.0  0.57439  0.14820  0.35739  1.0000
  Fe  Fe229     1.0  0.60193  0.18064  0.41367  1.0000
  C   C1394     1.0  0.72166  0.16605  0.22588  1.0000
  S   S460      1.0  0.62682  0.19650  0.39793  1.0000
  H   H1392     1.0  0.72421  0.17176  0.24198  1.0000
  H   H1393     1.0  0.58760  0.09466  0.25987  1.0000
  Fe  Fe230     1.0  0.56709  0.17861  0.43212  1.0000
  S   S461      1.0  0.54878  0.19015  0.44948  1.0000
  S   S462      1.0  0.59711  0.15483  0.41703  1.0000
  S   S463      1.0  0.58380  0.18369  0.38950  1.0000
  Fe  Fe231     1.0  0.51126  0.25812  0.40161  1.0000
  S   S464      1.0  0.50610  0.27713  0.37108  1.0000
  S   S465      1.0  0.53217  0.24991  0.38404  1.0000
  C   C1395     1.0  0.67479  0.19713  0.43267  1.0000
  H   H1394     1.0  0.63808  0.22095  0.47413  1.0000
  Fe  Fe232     1.0  0.50039  0.28746  0.40790  1.0000
  H   H1395     1.0  0.67296  0.05673  0.17912  1.0000
  H   H1396     1.0  0.48576  0.12212  0.24527  1.0000
  H   H1397     1.0  0.59219  0.12680  0.32784  1.0000
  H   H1398     1.0  0.55946  0.07905  0.32861  1.0000
  Fe  Fe233     1.0  0.69401  0.25256  0.44873  1.0000
  S   S466      1.0  0.71424  0.26708  0.41198  1.0000
  S   S467      1.0  0.66819  0.24227  0.45200  1.0000
  Fe  Fe234     1.0  0.72195  0.28122  0.44167  1.0000
  S   S468      1.0  0.70694  0.23568  0.46550  1.0000
  C   C1396     1.0  0.55470  0.19936  0.99693  1.0000
  H   H1399     1.0  0.62651  0.14986  0.13312  1.0000
  H   H1400     1.0  0.70790  0.20101  0.22220  1.0000
  Fe  Fe235     1.0  0.67552  0.12838  0.18119  1.0000
  S   S469      1.0  0.68835  0.12779  0.13824  1.0000
  S   S470      1.0  0.68507  0.13566  0.21640  1.0000
  Fe  Fe236     1.0  0.64400  0.12074  0.16745  1.0000
  S   S471      1.0  0.65434  0.11952  0.12326  1.0000
  S   S472      1.0  0.61982  0.12333  0.18219  1.0000
  Fe  Fe237     1.0  0.66923  0.10629  0.14395  1.0000
  S   S473      1.0  0.67696  0.08594  0.13098  1.0000
  Fe  Fe238     1.0  0.67246  0.14086  0.12108  1.0000
  S   S474      1.0  0.68024  0.16387  0.08771  1.0000
  S   S475      1.0  0.65747  0.10592  0.18865  1.0000
  S   S476      1.0  0.66108  0.14300  0.16357  1.0000
  C   C1397     1.0  0.65765  0.16596  0.01375  1.0000
  C   C1398     1.0  0.65813  0.15159  0.03004  1.0000
  C   C1399     1.0  0.66522  0.15088  0.05253  1.0000
  C   C1400     1.0  0.67202  0.16457  0.05868  1.0000
  C   C1401     1.0  0.67190  0.17901  0.04195  1.0000
  C   C1402     1.0  0.66465  0.17971  0.01956  1.0000
  H   H1401     1.0  0.65279  0.14092  0.02552  1.0000
  H   H1402     1.0  0.66552  0.13973  0.06494  1.0000
  H   H1403     1.0  0.67705  0.18961  0.04683  1.0000
  C   C1403     1.0  0.71807  0.23368  0.00523  1.0000
  C   C1404     1.0  0.64626  0.04462  0.11216  1.0000
  C   C1405     1.0  0.66237  0.04780  0.10354  1.0000
  C   C1406     1.0  0.67163  0.06082  0.10860  1.0000
  C   C1407     1.0  0.66490  0.07083  0.12211  1.0000
  C   C1408     1.0  0.64880  0.06789  0.13005  1.0000
  C   C1409     1.0  0.63953  0.05482  0.12512  1.0000
  H   H1404     1.0  0.66769  0.04006  0.09349  1.0000
  H   H1405     1.0  0.68409  0.06305  0.10228  1.0000
  H   H1406     1.0  0.64348  0.07546  0.14059  1.0000
  H   H1407     1.0  0.62707  0.05244  0.13185  1.0000
  C   C1410     1.0  0.56367  0.08518  0.30567  1.0000
  C   C1411     1.0  0.72107  0.00870  0.14311  1.0000
  H   H1408     1.0  0.66294  0.19630  0.44335  1.0000
  C   C1412     1.0  0.63846  0.20840  0.41412  1.0000
  C   C1413     1.0  0.63313  0.20966  0.44170  1.0000
  C   C1414     1.0  0.64248  0.21989  0.45297  1.0000
  C   C1415     1.0  0.65743  0.22879  0.43719  1.0000
  C   C1416     1.0  0.66284  0.22738  0.40973  1.0000
  C   C1417     1.0  0.65339  0.21734  0.39828  1.0000
  H   H1409     1.0  0.62169  0.20296  0.45418  1.0000
  C   C1418     1.0  0.73134  0.24235  0.98414  1.0000
  H   H1410     1.0  0.67418  0.23429  0.39710  1.0000
  H   H1411     1.0  0.65763  0.21662  0.37683  1.0000
  C   C1419     1.0  0.54386  0.20631  0.43034  1.0000
  C   C1420     1.0  0.55151  0.21377  0.40198  1.0000
  C   C1421     1.0  0.54782  0.22715  0.38810  1.0000
  C   C1422     1.0  0.53633  0.23303  0.40228  1.0000
  C   C1423     1.0  0.52843  0.22535  0.43042  1.0000
  C   C1424     1.0  0.53226  0.21210  0.44441  1.0000
  H   H1412     1.0  0.56026  0.20928  0.39071  1.0000
  H   H1413     1.0  0.55390  0.23298  0.36625  1.0000
  H   H1414     1.0  0.51953  0.22975  0.44152  1.0000
  H   H1415     1.0  0.71164  0.20914  0.43769  1.0000
  S   S477      1.0  0.58551  0.17751  0.45565  1.0000
  H   H1416     1.0  0.71603  0.23594  0.02600  1.0000
  H   H1417     1.0  0.70283  0.31379  0.03267  1.0000
  H   H1418     1.0  0.63545  0.16563  0.10182  1.0000
  H   H1419     1.0  0.68903  0.05146  0.19042  1.0000
  H   H1420     1.0  0.71107  0.22891  0.34120  1.0000
  S   S478      1.0  0.66200  0.00148  0.99326  1.0000
  C   C1425     1.0  0.68502  0.02431  0.17743  1.0000
  C   C1426     1.0  0.61396  0.11857  0.08958  1.0000
  N   N119      1.0  0.57761  0.09784  0.30006  1.0000
  C   C1427     1.0  0.61869  0.14159  0.05147  1.0000
  H   H1421     1.0  0.62996  0.16296  0.05871  1.0000
  C   C1428     1.0  0.58863  0.10159  0.27492  1.0000
  C   C1429     1.0  0.57624  0.22160  0.46114  1.0000
  C   C1430     1.0  0.63362  0.15295  0.11087  1.0000
  C   C1431     1.0  0.53871  0.10755  0.34511  1.0000
  C   C1432     1.0  0.53980  0.10841  0.37254  1.0000
  C   C1433     1.0  0.55024  0.12098  0.37680  1.0000
  C   C1434     1.0  0.55982  0.13291  0.35361  1.0000
  C   C1435     1.0  0.55856  0.13218  0.32618  1.0000
  C   C1436     1.0  0.54807  0.11963  0.32192  1.0000
  H   H1422     1.0  0.53262  0.09918  0.39068  1.0000
  H   H1423     1.0  0.55107  0.12128  0.39802  1.0000
  H   H1424     1.0  0.56588  0.14132  0.30803  1.0000
  H   H1425     1.0  0.54736  0.11925  0.30068  1.0000
  S   S479      1.0  0.48684  0.18359  0.99556  1.0000
  C   C1437     1.0  0.57680  0.08243  0.21760  1.0000
  C   C1438     1.0  0.57554  0.09777  0.21262  1.0000
  C   C1439     1.0  0.58886  0.11018  0.20130  1.0000
  C   C1440     1.0  0.60350  0.10734  0.19474  1.0000
  C   C1441     1.0  0.60479  0.09201  0.19916  1.0000
  C   C1442     1.0  0.59143  0.07957  0.21057  1.0000
  H   H1426     1.0  0.56433  0.10011  0.21760  1.0000
  H   H1427     1.0  0.58779  0.12203  0.19785  1.0000
  H   H1428     1.0  0.61607  0.08973  0.19416  1.0000
  H   H1429     1.0  0.59247  0.06770  0.21434  1.0000
  H   H1430     1.0  0.71183  0.17475  0.12453  1.0000
  C   C1443     1.0  0.70721  0.22250  0.99901  1.0000
  C   C1444     1.0  0.70373  0.14799  0.21003  1.0000
  C   C1445     1.0  0.70740  0.15511  0.23110  1.0000
  C   C1446     1.0  0.71759  0.99245  0.15099  1.0000
  C   C1447     1.0  0.67811  0.19289  0.40715  1.0000
  H   H1431     1.0  0.51234  0.24116  0.31479  1.0000
  C   C1448     1.0  0.71468  0.15137  0.18410  1.0000
  H   H1432     1.0  0.69901  0.15245  0.25129  1.0000
  C   C1449     1.0  0.60133  0.11450  0.26813  1.0000
  H   H1433     1.0  0.71208  0.14574  0.16793  1.0000
  C   C1450     1.0  0.70101  0.00737  0.11724  1.0000
  S   S480      1.0  0.50733  0.26950  0.43747  1.0000
  H   H1434     1.0  0.53506  0.20743  0.01385  1.0000
  H   H1435     1.0  0.60992  0.11752  0.24793  1.0000
  H   H1436     1.0  0.55434  0.09006  0.29924  1.0000
  C   C1451     1.0  0.60268  0.12360  0.28727  1.0000
  S   S481      1.0  0.50396  0.10378  0.21518  1.0000
  H   H1437     1.0  0.68357  0.18111  0.22746  1.0000
  H   H1438     1.0  0.53728  0.04219  0.22394  1.0000
  H   H1439     1.0  0.71908  0.99143  0.06847  1.0000
  H   H1440     1.0  0.71684  0.20072  0.39357  1.0000
  C   C1452     1.0  0.52290  0.02716  0.20628  1.0000
  H   H1441     1.0  0.66406  0.19081  0.00737  1.0000
  N   N120      1.0  0.67628  0.03477  0.17363  1.0000
  C   C1453     1.0  0.57897  0.10658  0.31910  1.0000
  H   H1442     1.0  0.69679  0.21596  0.01533  1.0000
  C   C1454     1.0  0.66232  0.03048  0.16765  1.0000
  C   C1455     1.0  0.66568  0.00472  0.16879  1.0000
  H   H1443     1.0  0.64510  0.15069  0.11104  1.0000
  H   H1444     1.0  0.60832  0.11842  0.04969  1.0000
  H   H1445     1.0  0.72880  0.20836  0.17764  1.0000
  H   H1446     1.0  0.48775  0.03607  0.23911  1.0000
  C   C1456     1.0  0.65690  0.01549  0.16473  1.0000
  C   C1457     1.0  0.61311  0.12551  0.06240  1.0000
  H   H1447     1.0  0.60976  0.10606  0.09831  1.0000
  H   H1448     1.0  0.61845  0.14710  0.03009  1.0000
  C   C1458     1.0  0.51402  0.00689  0.26001  1.0000
  H   H1449     1.0  0.56575  0.07643  0.29372  1.0000
  H   H1450     1.0  0.53989  0.03622  0.27020  1.0000
  C   C1459     1.0  0.52181  0.16269  0.98467  1.0000
  H   H1451     1.0  0.71539  0.02871  0.12007  1.0000
  H   H1452     1.0  0.69472  0.01317  0.10410  1.0000
  N   N121      1.0  0.59087  0.22572  0.43931  1.0000
  C   C1460     1.0  0.60387  0.23520  0.44213  1.0000
  C   C1461     1.0  0.59141  0.21971  0.41629  1.0000
  H   H1453     1.0  0.62928  0.23558  0.38172  1.0000
  C   C1462     1.0  0.60517  0.22332  0.39509  1.0000
  H   H1454     1.0  0.69391  0.18040  0.12531  1.0000
  C   C1463     1.0  0.70496  0.19956  0.40452  1.0000
  H   H1455     1.0  0.50388  0.25228  0.33685  1.0000
  C   C1464     1.0  0.51224  0.01284  0.21152  1.0000
  C   C1465     1.0  0.73241  0.16976  0.19962  1.0000
  H   H1456     1.0  0.60570  0.21818  0.37724  1.0000
  H   H1457     1.0  0.68664  0.00078  0.17875  1.0000
  S   S482      1.0  0.70037  0.26845  0.47645  1.0000
  H   H1458     1.0  0.68442  0.20697  0.46292  1.0000
  N   N122      1.0  0.69305  0.19405  0.39350  1.0000
  C   C1466     1.0  0.62051  0.12787  0.10536  1.0000
  S   S483      1.0  0.63413  0.02757  0.10897  1.0000
  H   H1459     1.0  0.71729  0.23949  0.38086  1.0000
  S   S484      1.0  0.66675  0.01112  0.06532  1.0000
  C   C1467     1.0  0.62518  0.15054  0.06785  1.0000
  H   H1460     1.0  0.52627  0.20639  0.46636  1.0000
  H   H1461     1.0  0.69006  0.05770  0.15302  1.0000
  H   H1462     1.0  0.62129  0.12236  0.12630  1.0000
  H   H1463     1.0  0.53273  0.30691  0.42533  1.0000
  H   H1464     1.0  0.57015  0.10373  0.33891  1.0000
  C   C1468     1.0  0.71273  0.01612  0.12627  1.0000
  C   C1469     1.0  0.53272  0.31887  0.42478  1.0000
  N   N123      1.0  0.53310  0.17539  0.98894  1.0000
  N   N124      1.0  0.52455  0.02090  0.25464  1.0000
  N   N125      1.0  0.62605  0.14364  0.09442  1.0000
  Fe  Fe239     1.0  0.64294  0.00884  0.09184  1.0000
  Fe  Fe240     1.0  0.72727  0.25084  0.43040  1.0000
  N   N126      1.0  0.70258  0.18187  0.16132  1.0000
  C   C1470     1.0  0.69094  0.17786  0.18565  1.0000
  C   C1471     1.0  0.71588  0.19297  0.15805  1.0000
  C   C1472     1.0  0.69260  0.18476  0.20782  1.0000
  C   C1473     1.0  0.69627  0.19020  0.36614  1.0000
  H   H1465     1.0  0.50980  0.20584  0.40101  1.0000
  C   C1474     1.0  0.70056  0.17447  0.13840  1.0000
  H   H1466     1.0  0.68051  0.16884  0.18846  1.0000
  C   C1475     1.0  0.70208  0.20429  0.42961  1.0000
  C   C1476     1.0  0.52902  0.03101  0.22819  1.0000
  C   C1477     1.0  0.70624  0.19590  0.20487  1.0000
  H   H1467     1.0  0.51875  0.22773  0.35783  1.0000
  H   H1468     1.0  0.68797  0.17928  0.36674  1.0000
  H   H1469     1.0  0.51603  0.18578  0.00741  1.0000
  H   H1470     1.0  0.56697  0.22471  0.45144  1.0000
  H   H1471     1.0  0.69423  0.16199  0.14712  1.0000
  H   H1472     1.0  0.58119  0.21191  0.41447  1.0000
  C   C1478     1.0  0.50156  0.24159  0.32923  1.0000
  H   H1473     1.0  0.70385  0.30287  0.99114  1.0000
  S   S485      1.0  0.73313  0.30765  0.42685  1.0000
  C   C1479     1.0  0.50646  0.22234  0.36629  1.0000
  H   H1474     1.0  0.50717  0.00977  0.19491  1.0000
  H   H1475     1.0  0.52136  0.02621  0.29444  1.0000
  H   H1476     1.0  0.66179  0.99312  0.16612  1.0000
  C   C1480     1.0  0.61784  0.23906  0.42129  1.0000
  C   C1481     1.0  0.72532  0.23439  0.36918  1.0000
  H   H1477     1.0  0.70812  0.18854  0.36023  1.0000
  S   S486      1.0  0.48985  0.02953  0.29823  1.0000
  C   C1482     1.0  0.68687  0.20309  0.44371  1.0000
  H   H1478     1.0  0.60360  0.23973  0.46063  1.0000
  C   C1483     1.0  0.72901  0.16217  0.17899  1.0000
  C   C1484     1.0  0.50145  0.20995  0.39075  1.0000
  S   S487      1.0  0.50620  0.31369  0.40495  1.0000
  S   S488      1.0  0.48716  0.24277  0.41350  1.0000
  H   H1479     1.0  0.48989  0.11435  0.17092  1.0000
  C   C1485     1.0  0.61843  0.23310  0.39761  1.0000
  C   C1486     1.0  0.53896  0.19856  0.00497  1.0000
  C   C1487     1.0  0.48564  0.20322  0.40221  1.0000
  C   C1488     1.0  0.49209  0.31071  0.47373  1.0000
  S   S489      1.0  0.72111  0.28079  0.99233  1.0000
  C   C1489     1.0  0.70996  0.31489  0.98815  1.0000
  C   C1490     1.0  0.68239  0.05090  0.17416  1.0000
  H   H1480     1.0  0.64608  0.01239  0.15886  1.0000
  H   H1481     1.0  0.69544  0.19984  0.34914  1.0000
  H   H1482     1.0  0.53604  0.01588  0.28708  1.0000
  N   N127      1.0  0.49603  0.22787  0.35360  1.0000
  C   C1491     1.0  0.67968  0.00905  0.17574  1.0000
  H   H1483     1.0  0.69631  0.02777  0.18143  1.0000
  H   H1484     1.0  0.65541  0.03876  0.16443  1.0000
  C   C1492     1.0  0.52824  0.18631  0.00112  1.0000
  C   C1493     1.0  0.59146  0.11963  0.31298  1.0000
  H   H1485     1.0  0.49282  0.24250  0.31678  1.0000
  H   H1486     1.0  0.62826  0.24626  0.42384  1.0000
  C   C1494     1.0  0.72183  0.22841  0.34674  1.0000
  H   H1487     1.0  0.66864  0.18886  0.39817  1.0000
  C   C1495     1.0  0.53079  0.02502  0.27769  1.0000
  H   H1488     1.0  0.49071  0.13302  0.20927  1.0000
  H   H1489     1.0  0.51009  0.99912  0.28121  1.0000
  H   H1490     1.0  0.69205  0.25839  0.00287  1.0000
  H   H1491     1.0  0.52632  0.03531  0.18546  1.0000
  C   C1496     1.0  0.71795  0.20008  0.17981  1.0000
  S   S490      1.0  0.63025  0.99644  0.06511  1.0000
  C   C1497     1.0  0.50781  0.00259  0.23850  1.0000
  C   C1498     1.0  0.73222  0.22180  0.33151  1.0000
  S   S491      1.0  0.72727  0.21354  0.30467  1.0000
  Fe  Fe241     1.0  0.65401  0.99693  0.04097  1.0000
  S   S492      1.0  0.64686  0.16615  0.98835  1.0000
  H   H1492     1.0  0.51978  0.15191  0.00172  1.0000
  H   H1493     1.0  0.52916  0.15545  0.47697  1.0000
  H   H1494     1.0  0.49306  0.32268  0.46296  1.0000
  H   H1495     1.0  0.55363  0.32363  0.43886  1.0000
  C   C1499     1.0  0.70921  0.32105  0.01171  1.0000
  H   H1496     1.0  0.57274  0.20885  0.47113  1.0000
  H   H1497     1.0  0.56320  0.20893  0.99931  1.0000
  C   C1500     1.0  0.48552  0.09690  0.21023  1.0000
  H   H1498     1.0  0.72521  0.19601  0.13896  1.0000
  C   C1501     1.0  0.72923  0.99275  0.07681  1.0000
  H   H1499     1.0  0.73234  0.26462  0.31213  1.0000
  C   C1502     1.0  0.69750  0.99110  0.12522  1.0000
  C   C1503     1.0  0.54848  0.17593  0.98151  1.0000
  C   C1504     1.0  0.55950  0.18788  0.98547  1.0000
  H   H1500     1.0  0.51055  0.16559  0.98487  1.0000
  H   H1501     1.0  0.49921  0.99160  0.24297  1.0000
  H   H1502     1.0  0.57703  0.22775  0.47804  1.0000
  H   H1503     1.0  0.69559  0.19701  0.98085  1.0000
  C   C1505     1.0  0.69834  0.25968  0.98131  1.0000
  H   H1504     1.0  0.48390  0.14187  0.23722  1.0000
  Fe  Fe242     1.0  0.51177  0.03026  0.64488  1.0000
  S   S493      1.0  0.49773  0.04768  0.63803  1.0000
  S   S494      1.0  0.50314  0.00387  0.65050  1.0000
  Fe  Fe243     1.0  0.53891  0.05530  0.65176  1.0000
  S   S495      1.0  0.52662  0.07428  0.64536  1.0000
  S   S496      1.0  0.56355  0.05934  0.65720  1.0000
  Fe  Fe244     1.0  0.50548  0.05603  0.67349  1.0000
  Fe  Fe245     1.0  0.52014  0.06434  0.61043  1.0000
  S   S497      1.0  0.52122  0.07873  0.56671  1.0000
  S   S498      1.0  0.51827  0.03764  0.68230  1.0000
  S   S499      1.0  0.53374  0.04637  0.61479  1.0000
  Fe  Fe246     1.0  0.50149  0.19023  0.88773  1.0000
  S   S500      1.0  0.50754  0.17496  0.92331  1.0000
  H   H1505     1.0  0.59035  0.10572  0.50434  1.0000
  Fe  Fe247     1.0  0.51590  0.22029  0.90237  1.0000
  S   S501      1.0  0.52318  0.20743  0.93885  1.0000
  S   S502      1.0  0.52138  0.24662  0.88581  1.0000
  Fe  Fe248     1.0  0.53060  0.19272  0.91046  1.0000
  S   S503      1.0  0.55193  0.18339  0.90946  1.0000
  Fe  Fe249     1.0  0.49973  0.19074  0.94919  1.0000
  S   S504      1.0  0.52524  0.20681  0.87279  1.0000
  H   H1506     1.0  0.55162  0.05418  0.73980  1.0000
  H   H1507     1.0  0.57173  0.18850  0.97881  1.0000
  C   C1506     1.0  0.70742  0.17252  0.71261  1.0000
  S   S505      1.0  0.62945  0.01042  0.78337  1.0000
  Fe  Fe250     1.0  0.65110  0.18819  0.95397  1.0000
  S   S506      1.0  0.67327  0.19735  0.91985  1.0000
  Fe  Fe251     1.0  0.63581  0.21149  0.92621  1.0000
  S   S507      1.0  0.65699  0.22276  0.88989  1.0000
  S   S508      1.0  0.61433  0.22065  0.92817  1.0000
  Fe  Fe252     1.0  0.65812  0.19830  0.88967  1.0000
  S   S509      1.0  0.66482  0.19189  0.84799  1.0000
  Fe  Fe253     1.0  0.67062  0.22111  0.92292  1.0000
  S   S510      1.0  0.69309  0.23975  0.91625  1.0000
  S   S511      1.0  0.63605  0.18724  0.92354  1.0000
  C   C1507     1.0  0.49290  0.29200  0.82164  1.0000
  Fe  Fe254     1.0  0.61281  0.11017  0.74112  1.0000
  S   S512      1.0  0.61024  0.10442  0.78819  1.0000
  S   S513      1.0  0.59014  0.10454  0.72806  1.0000
  Fe  Fe255     1.0  0.64729  0.12523  0.72929  1.0000
  S   S514      1.0  0.64725  0.12033  0.77523  1.0000
  S   S515      1.0  0.66970  0.13677  0.69544  1.0000
  Fe  Fe256     1.0  0.63210  0.09685  0.77877  1.0000
  S   S516      1.0  0.63446  0.07618  0.81017  1.0000
  Fe  Fe257     1.0  0.62549  0.12831  0.78117  1.0000
  S   S517      1.0  0.61852  0.14112  0.81423  1.0000
  S   S518      1.0  0.63383  0.10089  0.73209  1.0000
  S   S519      1.0  0.62641  0.13496  0.73469  1.0000
  C   C1508     1.0  0.65219  0.17727  0.83927  1.0000
  C   C1509     1.0  0.63854  0.16803  0.85886  1.0000
  C   C1510     1.0  0.62844  0.15683  0.85098  1.0000
  C   C1511     1.0  0.63208  0.15450  0.82371  1.0000
  C   C1512     1.0  0.64594  0.16343  0.80432  1.0000
  C   C1513     1.0  0.65585  0.17493  0.81198  1.0000
  H   H1508     1.0  0.63563  0.16965  0.87996  1.0000
  H   H1509     1.0  0.61774  0.14993  0.86608  1.0000
  H   H1510     1.0  0.64879  0.16179  0.78319  1.0000
  H   H1511     1.0  0.66640  0.18206  0.79667  1.0000
  C   C1514     1.0  0.69991  0.25194  0.93714  1.0000
  H   H1512     1.0  0.59046  0.08077  0.61082  1.0000
  C   C1515     1.0  0.69758  0.20873  0.96638  1.0000
  H   H1513     1.0  0.51462  0.14378  0.82145  1.0000
  C   C1516     1.0  0.72050  0.18557  0.61415  1.0000
  C   C1517     1.0  0.71444  0.26278  0.92585  1.0000
  C   C1518     1.0  0.65119  0.02926  0.93408  1.0000
  C   C1519     1.0  0.69181  0.25054  0.96492  1.0000
  C   C1520     1.0  0.72672  0.23334  0.57739  1.0000
  C   C1521     1.0  0.63102  0.02871  0.79077  1.0000
  C   C1522     1.0  0.63026  0.04146  0.77014  1.0000
  C   C1523     1.0  0.63133  0.05613  0.77575  1.0000
  C   C1524     1.0  0.63319  0.05808  0.80204  1.0000
  C   C1525     1.0  0.63401  0.04535  0.82259  1.0000
  C   C1526     1.0  0.63294  0.03070  0.81696  1.0000
  H   H1514     1.0  0.62902  0.04000  0.74968  1.0000
  H   H1515     1.0  0.63092  0.06594  0.75965  1.0000
  H   H1516     1.0  0.63555  0.04688  0.84285  1.0000
  H   H1517     1.0  0.63368  0.02094  0.83265  1.0000
  C   C1527     1.0  0.56904  0.19388  0.91518  1.0000
  C   C1528     1.0  0.57073  0.20899  0.91845  1.0000
  C   C1529     1.0  0.58455  0.21691  0.92310  1.0000
  C   C1530     1.0  0.59681  0.20985  0.92431  1.0000
  C   C1531     1.0  0.59500  0.19465  0.92143  1.0000
  C   C1532     1.0  0.58118  0.18671  0.91689  1.0000
  H   H1518     1.0  0.56144  0.21461  0.91727  1.0000
  H   H1519     1.0  0.58585  0.22868  0.92528  1.0000
  H   H1520     1.0  0.60431  0.18907  0.92233  1.0000
  H   H1521     1.0  0.57994  0.17498  0.91451  1.0000
  C   C1533     1.0  0.51774  0.25907  0.90787  1.0000
  C   C1534     1.0  0.52064  0.27509  0.89542  1.0000
  C   C1535     1.0  0.51818  0.28544  0.91225  1.0000
  C   C1536     1.0  0.51282  0.27984  0.94174  1.0000
  C   C1537     1.0  0.50994  0.26383  0.95421  1.0000
  C   C1538     1.0  0.51233  0.25346  0.93735  1.0000
  H   H1522     1.0  0.50277  0.29368  0.80402  1.0000
  H   H1523     1.0  0.52061  0.29774  0.90242  1.0000
  H   H1524     1.0  0.55235  0.16735  0.97161  1.0000
  H   H1525     1.0  0.51007  0.24114  0.94715  1.0000
  H   H1526     1.0  0.70584  0.01052  0.75971  1.0000
  C   C1539     1.0  0.54255  0.14637  0.53538  1.0000
  H   H1527     1.0  0.72987  0.32321  0.92022  1.0000
  H   H1528     1.0  0.50919  0.13104  0.50378  1.0000
  H   H1529     1.0  0.53109  0.09660  0.50874  1.0000
  S   S520      1.0  0.48910  0.05773  0.71271  1.0000
  C   C1540     1.0  0.53702  0.09488  0.54877  1.0000
  C   C1541     1.0  0.53905  0.10159  0.51980  1.0000
  C   C1542     1.0  0.55145  0.11458  0.50490  1.0000
  C   C1543     1.0  0.55966  0.11443  0.54808  1.0000
  C   C1544     1.0  0.54729  0.10142  0.56295  1.0000
  H   H1530     1.0  0.73117  0.19056  0.62004  1.0000
  H   H1531     1.0  0.56764  0.11940  0.55911  1.0000
  H   H1532     1.0  0.54570  0.09644  0.58534  1.0000
  C   C1545     1.0  0.57101  0.06069  0.75733  1.0000
  C   C1546     1.0  0.57118  0.07263  0.67551  1.0000
  C   C1547     1.0  0.56231  0.08148  0.68786  1.0000
  C   C1548     1.0  0.56851  0.09145  0.70321  1.0000
  C   C1549     1.0  0.58362  0.09275  0.70640  1.0000
  C   C1550     1.0  0.59261  0.08410  0.69363  1.0000
  C   C1551     1.0  0.58641  0.07412  0.67822  1.0000
  H   H1533     1.0  0.55059  0.08048  0.68598  1.0000
  H   H1534     1.0  0.56145  0.09807  0.71303  1.0000
  H   H1535     1.0  0.60425  0.08495  0.69594  1.0000
  H   H1536     1.0  0.59336  0.06731  0.66877  1.0000
  C   C1552     1.0  0.69205  0.16905  0.72866  1.0000
  C   C1553     1.0  0.68049  0.15757  0.72450  1.0000
  C   C1554     1.0  0.68419  0.14975  0.70374  1.0000
  C   C1555     1.0  0.69957  0.15316  0.68779  1.0000
  C   C1556     1.0  0.71117  0.16444  0.69231  1.0000
  H   H1537     1.0  0.68902  0.17540  0.74416  1.0000
  H   H1538     1.0  0.66864  0.15515  0.73666  1.0000
  H   H1539     1.0  0.70248  0.14712  0.67174  1.0000
  H   H1540     1.0  0.58706  0.07355  0.78784  1.0000
  H   H1541     1.0  0.56874  0.08309  0.50832  1.0000
  C   C1557     1.0  0.56190  0.12092  0.51895  1.0000
  C   C1558     1.0  0.68011  0.18771  0.67116  1.0000
  H   H1542     1.0  0.50986  0.10701  0.57397  1.0000
  H   H1543     1.0  0.72080  0.26396  0.90437  1.0000
  H   H1544     1.0  0.59878  0.10934  0.54703  1.0000
  H   H1545     1.0  0.58691  0.02965  0.72723  1.0000
  H   H1546     1.0  0.70057  0.14618  0.76878  1.0000
  C   C1559     1.0  0.65513  0.02932  0.90551  1.0000
  H   H1547     1.0  0.70894  0.31765  0.92913  1.0000
  H   H1548     1.0  0.50641  0.10465  0.54105  1.0000
  C   C1560     1.0  0.55954  0.32347  0.93758  1.0000
  C   C1561     1.0  0.52972  0.14910  0.49761  1.0000
  H   H1549     1.0  0.68062  0.24230  0.97388  1.0000
  C   C1562     1.0  0.64350  0.02400  0.89278  1.0000
  N   N128      1.0  0.70658  0.18640  0.63379  1.0000
  H   H1550     1.0  0.61382  0.02319  0.88095  1.0000
  N   N129      1.0  0.58485  0.05820  0.76081  1.0000
  H   H1551     1.0  0.71868  0.20419  0.64912  1.0000
  C   C1563     1.0  0.50303  0.29191  0.49899  1.0000
  C   C1564     1.0  0.72099  0.27186  0.94226  1.0000
  S   S521      1.0  0.72151  0.18720  0.71815  1.0000
  H   H1552     1.0  0.49600  0.30471  0.89260  1.0000
  C   C1565     1.0  0.58227  0.03824  0.73590  1.0000
  H   H1553     1.0  0.50414  0.15861  0.81649  1.0000
  H   H1554     1.0  0.60165  0.04541  0.75262  1.0000
  N   N130      1.0  0.62840  0.01866  0.90815  1.0000
  H   H1555     1.0  0.70087  0.20781  0.94420  1.0000
  C   C1566     1.0  0.71923  0.31703  0.93746  1.0000
  C   C1567     1.0  0.49057  0.28008  0.49917  1.0000
  H   H1556     1.0  0.69538  0.20537  0.68270  1.0000
  C   C1568     1.0  0.70539  0.99906  0.77205  1.0000
  C   C1569     1.0  0.53099  0.13280  0.55029  1.0000
  H   H1557     1.0  0.48634  0.28448  0.91003  1.0000
  H   H1558     1.0  0.55135  0.28506  0.91520  1.0000
  H   H1559     1.0  0.49155  0.08643  0.67055  1.0000
  C   C1570     1.0  0.67915  0.17734  0.65416  1.0000
  S   S522      1.0  0.57821  0.13649  0.50076  1.0000
  C   C1571     1.0  0.72606  0.23560  0.54904  1.0000
  C   C1572     1.0  0.50295  0.14592  0.82440  1.0000
  N   N131      1.0  0.71853  0.32376  0.96182  1.0000
  S   S523      1.0  0.49089  0.18346  0.85285  1.0000
  C   C1573     1.0  0.50723  0.11304  0.55438  1.0000
  H   H1560     1.0  0.64667  0.02392  0.87065  1.0000
  C   C1574     1.0  0.55391  0.29578  0.92174  1.0000
  S   S524      1.0  0.51037  0.29261  0.96367  1.0000
  S   S525      1.0  0.49178  0.20475  0.91479  1.0000
  H   H1561     1.0  0.66819  0.16923  0.65636  1.0000
  H   H1562     1.0  0.52491  0.27950  0.87264  1.0000
  C   C1575     1.0  0.62440  0.01882  0.93604  1.0000
  C   C1576     1.0  0.63573  0.02406  0.94944  1.0000
  C   C1577     1.0  0.49510  0.29453  0.84743  1.0000
  H   H1563     1.0  0.61247  0.01443  0.94835  1.0000
  N   N132      1.0  0.67007  0.13723  0.82607  1.0000
  C   C1578     1.0  0.67365  0.15021  0.83569  1.0000
  C   C1579     1.0  0.67957  0.13572  0.80233  1.0000
  C   C1580     1.0  0.68700  0.16216  0.82140  1.0000
  C   C1581     1.0  0.69314  0.14732  0.78781  1.0000
  C   C1582     1.0  0.69679  0.16068  0.79727  1.0000
  C   C1583     1.0  0.65549  0.12537  0.84031  1.0000
  H   H1564     1.0  0.66594  0.15163  0.85408  1.0000
  H   H1565     1.0  0.67663  0.12560  0.79427  1.0000
  H   H1566     1.0  0.68947  0.17266  0.82864  1.0000
  H   H1567     1.0  0.66986  0.18780  0.68648  1.0000
  H   H1568     1.0  0.70702  0.16999  0.78551  1.0000
  H   H1569     1.0  0.64589  0.12894  0.83236  1.0000
  H   H1570     1.0  0.65596  0.11385  0.83636  1.0000
  H   H1571     1.0  0.65274  0.12382  0.86363  1.0000
  H   H1572     1.0  0.56685  0.06994  0.76448  1.0000
  H   H1573     1.0  0.60032  0.06148  0.78720  1.0000
  N   N133      1.0  0.51923  0.12738  0.53885  1.0000
  S   S526      1.0  0.71321  0.24584  0.53744  1.0000
  C   C1584     1.0  0.49034  0.99341  0.63436  1.0000
  C   C1585     1.0  0.55059  0.30977  0.95769  1.0000
  C   C1586     1.0  0.65483  0.99344  0.94676  1.0000
  S   S527      1.0  0.64930  0.21174  0.95956  1.0000
  H   H1574     1.0  0.66708  0.99787  0.93677  1.0000
  Fe  Fe258     1.0  0.51307  0.31813  0.94379  1.0000
  H   H1575     1.0  0.71911  0.23760  0.59176  1.0000
  N   N134      1.0  0.49382  0.13692  0.80944  1.0000
  H   H1576     1.0  0.51219  0.28909  0.50827  1.0000
  H   H1577     1.0  0.55598  0.06420  0.55521  1.0000
  C   C1587     1.0  0.69440  0.19757  0.66904  1.0000
  Fe  Fe259     1.0  0.71446  0.25225  0.49062  1.0000
  C   C1588     1.0  0.54187  0.15455  0.50890  1.0000
  H   H1578     1.0  0.53173  0.12641  0.57070  1.0000
  H   H1579     1.0  0.66012  0.03277  0.94459  1.0000
  C   C1589     1.0  0.59424  0.06818  0.77394  1.0000
  H   H1580     1.0  0.72297  0.16695  0.67995  1.0000
  H   H1581     1.0  0.56180  0.03422  0.72037  1.0000
  C   C1590     1.0  0.56238  0.05188  0.74326  1.0000
  H   H1582     1.0  0.60564  0.00578  0.91004  1.0000
  C   C1591     1.0  0.51847  0.13535  0.51289  1.0000
  H   H1583     1.0  0.50583  0.25942  0.97701  1.0000
  H   H1584     1.0  0.60292  0.07772  0.75711  1.0000
  C   C1592     1.0  0.48735  0.13398  0.76613  1.0000
  C   C1593     1.0  0.64913  0.99347  0.97508  1.0000
  C   C1594     1.0  0.56813  0.04068  0.73229  1.0000
  H   H1585     1.0  0.69176  0.16853  0.62273  1.0000
  N   N135      1.0  0.58251  0.08876  0.57467  1.0000
  C   C1595     1.0  0.57074  0.07618  0.57695  1.0000
  C   C1596     1.0  0.58969  0.09915  0.54888  1.0000
  C   C1597     1.0  0.56570  0.07387  0.55311  1.0000
  C   C1598     1.0  0.58505  0.09711  0.52454  1.0000
  C   C1599     1.0  0.61644  0.01315  0.89431  1.0000
  C   C1600     1.0  0.58704  0.09112  0.60033  1.0000
  H   H1586     1.0  0.56503  0.06803  0.59745  1.0000
  H   H1587     1.0  0.49587  0.11567  0.56051  1.0000
  H   H1588     1.0  0.49218  0.01274  0.59950  1.0000
  C   C1601     1.0  0.71845  0.99312  0.76752  1.0000
  C   C1602     1.0  0.69257  0.17690  0.63535  1.0000
  H   H1589     1.0  0.55221  0.15030  0.54393  1.0000
  H   H1590     1.0  0.59688  0.10150  0.59580  1.0000
  H   H1591     1.0  0.57711  0.09265  0.61559  1.0000
  N   N136      1.0  0.60614  0.19175  0.83564  1.0000
  C   C1603     1.0  0.59796  0.20102  0.84698  1.0000
  C   C1604     1.0  0.62188  0.19524  0.83091  1.0000
  C   C1605     1.0  0.60551  0.21378  0.85498  1.0000
  C   C1606     1.0  0.62973  0.20758  0.83959  1.0000
  C   C1607     1.0  0.62143  0.21680  0.85198  1.0000
  C   C1608     1.0  0.59806  0.17844  0.82732  1.0000
  H   H1592     1.0  0.58549  0.19842  0.85045  1.0000
  H   H1593     1.0  0.62843  0.18835  0.82070  1.0000
  H   H1594     1.0  0.59898  0.22096  0.86439  1.0000
  H   H1595     1.0  0.64215  0.20988  0.83688  1.0000
  H   H1596     1.0  0.62727  0.22620  0.85943  1.0000
  H   H1597     1.0  0.60454  0.16928  0.82770  1.0000
  H   H1598     1.0  0.58648  0.17285  0.84227  1.0000
  H   H1599     1.0  0.59669  0.18230  0.80556  1.0000
  C   C1609     1.0  0.59054  0.04718  0.75027  1.0000
  H   H1600     1.0  0.72395  0.22716  0.93025  1.0000
  C   C1610     1.0  0.50380  0.30735  0.48630  1.0000
  H   H1601     1.0  0.62033  0.00564  0.88085  1.0000
  C   C1611     1.0  0.70759  0.19679  0.65004  1.0000
  C   C1612     1.0  0.57289  0.08445  0.52678  1.0000
  C   C1613     1.0  0.71304  0.27024  0.97022  1.0000
  C   C1614     1.0  0.73362  0.23975  0.95719  1.0000
  H   H1602     1.0  0.55084  0.16502  0.49698  1.0000
  H   H1603     1.0  0.49728  0.14275  0.84749  1.0000
  C   C1615     1.0  0.48719  0.00042  0.60917  1.0000
  H   H1604     1.0  0.48860  0.13849  0.74360  1.0000
  H   H1605     1.0  0.71957  0.30465  0.94365  1.0000
  H   H1606     1.0  0.66713  0.03316  0.89347  1.0000
  H   H1607     1.0  0.50679  0.29819  0.84954  1.0000
  H   H1608     1.0  0.50330  0.15395  0.76971  1.0000
  N   N137      1.0  0.56563  0.32327  0.91026  1.0000
  H   H1609     1.0  0.48994  0.26799  0.50859  1.0000
  C   C1616     1.0  0.49556  0.14263  0.78101  1.0000
  H   H1610     1.0  0.73230  0.27991  0.93339  1.0000
  N   N138      1.0  0.70946  0.22013  0.97245  1.0000
  C   C1617     1.0  0.72244  0.22859  0.95161  1.0000
  H   H1611     1.0  0.54068  0.28520  0.96500  1.0000
  C   C1618     1.0  0.54794  0.29584  0.94974  1.0000
  H   H1612     1.0  0.72037  0.17328  0.61445  1.0000
  C   C1619     1.0  0.56268  0.30972  0.90208  1.0000
  H   H1613     1.0  0.56696  0.30965  0.88020  1.0000
  H   H1614     1.0  0.63264  0.02359  0.97185  1.0000
  H   H1615     1.0  0.72125  0.19216  0.59226  1.0000
  H   H1616     1.0  0.55308  0.11949  0.48246  1.0000
  H   H1617     1.0  0.68660  0.21238  0.96903  1.0000
  S   S528      1.0  0.64597  0.99162  0.84743  1.0000
  C   C1620     1.0  0.48528  0.29536  0.89641  1.0000
  H   H1618     1.0  0.51362  0.31663  0.48540  1.0000
  H   H1619     1.0  0.68157  0.99468  0.79543  1.0000
  H   H1620     1.0  0.52602  0.16049  0.96369  1.0000
  C   C1621     1.0  0.48402  0.08628  0.69042  1.0000
  C   C1622     1.0  0.48416  0.12256  0.82363  1.0000
  H   H1621     1.0  0.54535  0.31001  0.97912  1.0000
  H   H1622     1.0  0.70821  0.48015  0.05840  1.0000
  H   H1623     1.0  0.60580  0.62315  0.09824  1.0000
  S   S529      1.0  0.57445  0.42989  0.36209  1.0000
  Fe  Fe260     1.0  0.52201  0.43547  0.25932  1.0000
  S   S530      1.0  0.53493  0.42662  0.22556  1.0000
  S   S531      1.0  0.51805  0.42311  0.30560  1.0000
  Fe  Fe261     1.0  0.51623  0.46116  0.21648  1.0000
  S   S532      1.0  0.52902  0.45436  0.17943  1.0000
  Fe  Fe262     1.0  0.51619  0.42985  0.20357  1.0000
  S   S533      1.0  0.57756  0.42551  0.44101  1.0000
  Fe  Fe263     1.0  0.54657  0.45184  0.20438  1.0000
  S   S534      1.0  0.57230  0.45807  0.18391  1.0000
  S   S535      1.0  0.53492  0.46057  0.23970  1.0000
  C   C1623     1.0  0.50799  0.36818  0.01624  1.0000
  Fe  Fe264     1.0  0.67081  0.53740  0.15501  1.0000
  S   S536      1.0  0.65420  0.55244  0.15389  1.0000
  S   S537      1.0  0.68366  0.53518  0.18959  1.0000
  Fe  Fe265     1.0  0.66252  0.52490  0.10572  1.0000
  S   S538      1.0  0.64544  0.53912  0.10076  1.0000
  S   S539      1.0  0.66862  0.51059  0.07490  1.0000
  Fe  Fe266     1.0  0.66318  0.55839  0.10665  1.0000
  S   S540      1.0  0.67026  0.58248  0.07690  1.0000
  Fe  Fe267     1.0  0.63794  0.53182  0.14824  1.0000
  S   S541      1.0  0.61286  0.52554  0.17198  1.0000
  S   S542      1.0  0.68109  0.54481  0.10792  1.0000
  S   S543      1.0  0.65373  0.51608  0.15310  1.0000
  H   H1624     1.0  0.59329  0.44797  0.13489  1.0000
  H   H1625     1.0  0.72357  0.51743  0.33634  1.0000
  H   H1626     1.0  0.49303  0.50760  0.19657  1.0000
  S   S544      1.0  0.61600  0.46817  0.03788  1.0000
  S   S545      1.0  0.61931  0.43053  0.01392  1.0000
  C   C1624     1.0  0.54456  0.32839  0.43250  1.0000
  H   H1627     1.0  0.70677  0.64819  0.09374  1.0000
  S   S546      1.0  0.58793  0.39876  0.41114  1.0000
  H   H1628     1.0  0.53331  0.36209  0.42223  1.0000
  H   H1629     1.0  0.51880  0.40793  0.45901  1.0000
  C   C1625     1.0  0.68333  0.47333  0.06737  1.0000
  H   H1630     1.0  0.66154  0.42834  0.04819  1.0000
  C   C1626     1.0  0.70611  0.53771  0.33055  1.0000
  H   H1631     1.0  0.50344  0.57089  0.23391  1.0000
  Fe  Fe268     1.0  0.57248  0.41494  0.40573  1.0000
  S   S547      1.0  0.63714  0.63180  0.11684  1.0000
  C   C1627     1.0  0.52136  0.34056  0.41536  1.0000
  C   C1628     1.0  0.72468  0.54744  0.38082  1.0000
  H   H1632     1.0  0.51245  0.34540  0.40853  1.0000
  C   C1629     1.0  0.62607  0.63234  0.04874  1.0000
  S   S548      1.0  0.50854  0.41272  0.17862  1.0000
  H   H1633     1.0  0.68384  0.54481  0.04075  1.0000
  Fe  Fe269     1.0  0.55718  0.40629  0.46837  1.0000
  H   H1634     1.0  0.52768  0.44701  0.36217  1.0000
  H   H1635     1.0  0.63116  0.56183  0.03467  1.0000
  S   S549      1.0  0.50574  0.65050  0.12464  1.0000
  H   H1636     1.0  0.61167  0.65438  0.98875  1.0000
  C   C1630     1.0  0.65376  0.49921  0.06453  1.0000
  C   C1631     1.0  0.65771  0.49297  0.04142  1.0000
  C   C1632     1.0  0.64625  0.48349  0.03301  1.0000
  C   C1633     1.0  0.63069  0.48032  0.04745  1.0000
  C   C1634     1.0  0.62671  0.48690  0.07015  1.0000
  C   C1635     1.0  0.63819  0.49631  0.07869  1.0000
  H   H1637     1.0  0.66971  0.49539  0.03002  1.0000
  H   H1638     1.0  0.64946  0.47865  0.01534  1.0000
  H   H1639     1.0  0.61470  0.48467  0.08128  1.0000
  H   H1640     1.0  0.63500  0.50119  0.09637  1.0000
  C   C1636     1.0  0.66073  0.59603  0.08771  1.0000
  C   C1637     1.0  0.66585  0.61171  0.07219  1.0000
  C   C1638     1.0  0.65865  0.62280  0.08087  1.0000
  C   C1639     1.0  0.64626  0.61821  0.10506  1.0000
  C   C1640     1.0  0.64098  0.60251  0.12028  1.0000
  C   C1641     1.0  0.64822  0.59144  0.11167  1.0000
  H   H1641     1.0  0.67550  0.61531  0.05358  1.0000
  H   H1642     1.0  0.66274  0.63487  0.06891  1.0000
  H   H1643     1.0  0.63132  0.59889  0.13889  1.0000
  H   H1644     1.0  0.64408  0.57936  0.12357  1.0000
  C   C1642     1.0  0.52110  0.32494  0.41596  1.0000
  H   H1645     1.0  0.57625  0.37421  0.37758  1.0000
  C   C1643     1.0  0.62946  0.64362  0.99894  1.0000
  C   C1644     1.0  0.58317  0.47726  0.17868  1.0000
  C   C1645     1.0  0.59906  0.48138  0.16548  1.0000
  C   C1646     1.0  0.60819  0.49638  0.16237  1.0000
  C   C1647     1.0  0.60147  0.50729  0.17263  1.0000
  C   C1648     1.0  0.58553  0.50327  0.18528  1.0000
  C   C1649     1.0  0.57639  0.48829  0.18829  1.0000
  H   H1646     1.0  0.60437  0.47289  0.15801  1.0000
  H   H1647     1.0  0.62045  0.49939  0.15254  1.0000
  H   H1648     1.0  0.58027  0.51170  0.19313  1.0000
  H   H1649     1.0  0.56413  0.48525  0.19830  1.0000
  C   C1650     1.0  0.55889  0.42725  0.34615  1.0000
  C   C1651     1.0  0.54456  0.41692  0.36085  1.0000
  C   C1652     1.0  0.53216  0.41565  0.34808  1.0000
  C   C1653     1.0  0.53403  0.42459  0.32046  1.0000
  C   C1654     1.0  0.54843  0.43471  0.30555  1.0000
  C   C1655     1.0  0.56079  0.43607  0.31843  1.0000
  H   H1650     1.0  0.54291  0.41010  0.38218  1.0000
  H   H1651     1.0  0.52104  0.40779  0.35967  1.0000
  H   H1652     1.0  0.54997  0.44162  0.28421  1.0000
  H   H1653     1.0  0.57185  0.44408  0.30691  1.0000
  H   H1654     1.0  0.48788  0.33178  0.01123  1.0000
  H   H1655     1.0  0.64561  0.63261  0.01578  1.0000
  C   C1656     1.0  0.48931  0.37937  0.04072  1.0000
  N   N139      1.0  0.61260  0.63673  0.05511  1.0000
  C   C1657     1.0  0.71693  0.33654  0.00804  1.0000
  H   H1656     1.0  0.56203  0.34888  0.37390  1.0000
  H   H1657     1.0  0.50964  0.42884  0.40573  1.0000
  C   C1658     1.0  0.72180  0.57579  0.19419  1.0000
  C   C1659     1.0  0.71474  0.57741  0.17156  1.0000
  C   C1660     1.0  0.70302  0.56512  0.16997  1.0000
  C   C1661     1.0  0.69828  0.55101  0.19096  1.0000
  C   C1662     1.0  0.70538  0.54936  0.21354  1.0000
  C   C1663     1.0  0.71706  0.56169  0.21522  1.0000
  C   C1664     1.0  0.51565  0.41925  0.45608  1.0000
  H   H1658     1.0  0.69767  0.56655  0.15246  1.0000
  H   H1659     1.0  0.70179  0.53849  0.22985  1.0000
  H   H1660     1.0  0.72238  0.56028  0.23275  1.0000
  C   C1665     1.0  0.53316  0.35006  0.42319  1.0000
  H   H1661     1.0  0.64919  0.43613  0.07111  1.0000
  H   H1662     1.0  0.51655  0.42358  0.47513  1.0000
  H   H1663     1.0  0.71514  0.55196  0.38914  1.0000
  N   N140      1.0  0.67311  0.64167  0.14303  1.0000
  C   C1666     1.0  0.54666  0.45078  0.38160  1.0000
  H   H1664     1.0  0.55386  0.39586  0.98718  1.0000
  C   C1667     1.0  0.70754  0.43878  0.98292  1.0000
  C   C1668     1.0  0.69816  0.47157  0.05786  1.0000
  C   C1669     1.0  0.52131  0.43407  0.40626  1.0000
  C   C1670     1.0  0.64343  0.53030  0.02300  1.0000
  N   N141      1.0  0.52617  0.43041  0.43047  1.0000
  H   H1665     1.0  0.68777  0.55951  0.00758  1.0000
  H   H1666     1.0  0.65150  0.64647  0.15735  1.0000
  H   H1667     1.0  0.60864  0.64378  0.09333  1.0000
  C   C1671     1.0  0.65314  0.43996  0.47127  1.0000
  N   N142      1.0  0.67248  0.44995  0.05525  1.0000
  C   C1672     1.0  0.70002  0.45880  0.04740  1.0000
  C   C1673     1.0  0.68697  0.44798  0.04644  1.0000
  H   H1668     1.0  0.68169  0.56384  0.04121  1.0000
  H   H1669     1.0  0.49751  0.35173  0.08716  1.0000
  H   H1670     1.0  0.65527  0.44496  0.03331  1.0000
  H   H1671     1.0  0.59159  0.63232  0.08725  1.0000
  C   C1674     1.0  0.48552  0.45625  0.17580  1.0000
  H   H1672     1.0  0.63929  0.51885  0.01987  1.0000
  S   S550      1.0  0.55077  0.39726  0.43246  1.0000
  C   C1675     1.0  0.66810  0.62586  0.14816  1.0000
  Fe  Fe270     1.0  0.59142  0.40799  0.44875  1.0000
  C   C1676     1.0  0.65204  0.45510  0.46067  1.0000
  H   H1673     1.0  0.62133  0.53569  0.02734  1.0000
  C   C1677     1.0  0.64147  0.42698  0.47159  1.0000
  H   H1674     1.0  0.67278  0.60509  0.13762  1.0000
  C   C1678     1.0  0.55156  0.44682  0.40624  1.0000
  H   H1675     1.0  0.71836  0.58825  0.15516  1.0000
  C   C1679     1.0  0.68014  0.55475  0.02941  1.0000
  N   N143      1.0  0.62370  0.50504  0.22842  1.0000
  C   C1680     1.0  0.60855  0.50475  0.23875  1.0000
  C   C1681     1.0  0.62752  0.49225  0.22161  1.0000
  C   C1682     1.0  0.59677  0.49138  0.24255  1.0000
  C   C1683     1.0  0.61601  0.47872  0.22496  1.0000
  C   C1684     1.0  0.60054  0.47833  0.23547  1.0000
  C   C1685     1.0  0.63574  0.51929  0.22457  1.0000
  H   H1676     1.0  0.60549  0.51509  0.24306  1.0000
  H   H1677     1.0  0.63950  0.49251  0.21312  1.0000
  H   H1678     1.0  0.58474  0.49138  0.24976  1.0000
  H   H1679     1.0  0.61901  0.46872  0.21889  1.0000
  H   H1680     1.0  0.59145  0.46811  0.23730  1.0000
  H   H1681     1.0  0.63366  0.52918  0.20983  1.0000
  H   H1682     1.0  0.63564  0.52207  0.24522  1.0000
  H   H1683     1.0  0.64753  0.51824  0.21543  1.0000
  Fe  Fe271     1.0  0.56625  0.38147  0.44003  1.0000
  S   S551      1.0  0.71054  0.47005  0.44802  1.0000
  N   N144      1.0  0.66402  0.54972  0.02839  1.0000
  Fe  Fe272     1.0  0.72303  0.49484  0.44320  1.0000
  H   H1684     1.0  0.65906  0.46394  0.07278  1.0000
  S   S552      1.0  0.73216  0.57279  0.33543  1.0000
  H   H1685     1.0  0.67437  0.50108  0.41087  1.0000
  N   N145      1.0  0.57351  0.44527  0.11782  1.0000
  C   C1686     1.0  0.56429  0.43476  0.14222  1.0000
  C   C1687     1.0  0.56796  0.44861  0.09439  1.0000
  C   C1688     1.0  0.54906  0.42735  0.14365  1.0000
  C   C1689     1.0  0.55277  0.44137  0.09506  1.0000
  C   C1690     1.0  0.54326  0.43074  0.11996  1.0000
  C   C1691     1.0  0.58914  0.45371  0.11704  1.0000
  H   H1686     1.0  0.56856  0.43221  0.16097  1.0000
  H   H1687     1.0  0.57531  0.45698  0.07507  1.0000
  H   H1688     1.0  0.54172  0.41920  0.16318  1.0000
  H   H1689     1.0  0.54838  0.44409  0.07649  1.0000
  H   H1690     1.0  0.53136  0.42518  0.12111  1.0000
  H   H1691     1.0  0.58910  0.46569  0.11883  1.0000
  H   H1692     1.0  0.56353  0.45131  0.40613  1.0000
  H   H1693     1.0  0.59746  0.45438  0.09690  1.0000
  C   C1692     1.0  0.54493  0.34406  0.43161  1.0000
  C   C1693     1.0  0.65897  0.43931  0.05189  1.0000
  H   H1694     1.0  0.52740  0.34234  0.35299  1.0000
  H   H1695     1.0  0.49014  0.65211  0.07042  1.0000
  C   C1694     1.0  0.67693  0.61760  0.13390  1.0000
  H   H1696     1.0  0.48604  0.59002  0.15923  1.0000
  H   H1697     1.0  0.65702  0.61960  0.16286  1.0000
  H   H1698     1.0  0.69039  0.41725  0.98935  1.0000
  C   C1695     1.0  0.62857  0.42888  0.46117  1.0000
  H   H1699     1.0  0.71857  0.54164  0.31904  1.0000
  S   S553      1.0  0.56085  0.35578  0.43939  1.0000
  C   C1696     1.0  0.63911  0.45701  0.45031  1.0000
  S   S554      1.0  0.50212  0.43672  0.23912  1.0000
  C   C1697     1.0  0.69087  0.62565  0.11408  1.0000
  C   C1698     1.0  0.67054  0.46236  0.06580  1.0000
  H   H1700     1.0  0.70356  0.54728  0.33992  1.0000
  C   C1699     1.0  0.68695  0.64963  0.12409  1.0000
  C   C1700     1.0  0.62748  0.44403  0.45048  1.0000
  H   H1701     1.0  0.54258  0.33368  0.35982  1.0000
  H   H1702     1.0  0.54500  0.43346  0.44970  1.0000
  H   H1703     1.0  0.65852  0.57061  0.03508  1.0000
  Fe  Fe273     1.0  0.49912  0.65156  0.16988  1.0000
  C   C1701     1.0  0.60747  0.64468  0.03397  1.0000
  H   H1704     1.0  0.54302  0.34267  0.32380  1.0000
  S   S555      1.0  0.61378  0.41196  0.46376  1.0000
  C   C1702     1.0  0.49503  0.57607  0.22458  1.0000
  H   H1705     1.0  0.51454  0.35015  0.04299  1.0000
  C   C1703     1.0  0.72622  0.53319  0.39579  1.0000
  H   H1706     1.0  0.71641  0.53901  0.47775  1.0000
  S   S556      1.0  0.58407  0.41445  0.98260  1.0000
  C   C1704     1.0  0.72769  0.38153  0.47321  1.0000
  N   N146      1.0  0.54869  0.35870  0.34791  1.0000
  C   C1705     1.0  0.54576  0.37206  0.33422  1.0000
  C   C1706     1.0  0.55970  0.35942  0.36287  1.0000
  C   C1707     1.0  0.55391  0.38662  0.33542  1.0000
  C   C1708     1.0  0.56786  0.37377  0.36495  1.0000
  C   C1709     1.0  0.56495  0.38744  0.35108  1.0000
  H   H1707     1.0  0.51488  0.36710  0.99662  1.0000
  H   H1708     1.0  0.53706  0.37152  0.32230  1.0000
  H   H1709     1.0  0.69244  0.48421  0.41026  1.0000
  H   H1710     1.0  0.55162  0.39720  0.32439  1.0000
  H   H1711     1.0  0.71154  0.45746  0.03947  1.0000
  H   H1712     1.0  0.57123  0.39865  0.35251  1.0000
  Fe  Fe274     1.0  0.62208  0.45639  0.00261  1.0000
  C   C1710     1.0  0.53144  0.44443  0.38156  1.0000
  C   C1711     1.0  0.61572  0.64809  0.00556  1.0000
  H   H1713     1.0  0.71779  0.52674  0.41536  1.0000
  C   C1712     1.0  0.48556  0.39291  0.16588  1.0000
  C   C1713     1.0  0.65437  0.55928  0.03160  1.0000
  C   C1714     1.0  0.63888  0.55439  0.03131  1.0000
  H   H1714     1.0  0.55483  0.45829  0.36226  1.0000
  S   S557      1.0  0.50754  0.48254  0.20389  1.0000
  C   C1715     1.0  0.48529  0.49819  0.21381  1.0000
  C   C1716     1.0  0.63475  0.63579  0.02063  1.0000
  C   C1717     1.0  0.49875  0.37864  0.01542  1.0000
  C   C1718     1.0  0.65885  0.53558  0.02337  1.0000
  H   H1715     1.0  0.66661  0.52816  0.02023  1.0000
  C   C1719     1.0  0.48979  0.48447  0.22261  1.0000
  H   H1716     1.0  0.61764  0.44576  0.44250  1.0000
  C   C1720     1.0  0.69254  0.42976  0.98571  1.0000
  H   H1717     1.0  0.69762  0.61939  0.10242  1.0000
  N   N147      1.0  0.70260  0.52315  0.35277  1.0000
  C   C1721     1.0  0.68897  0.51870  0.37338  1.0000
  C   C1722     1.0  0.71264  0.51384  0.35233  1.0000
  C   C1723     1.0  0.68514  0.50464  0.39437  1.0000
  C   C1724     1.0  0.70920  0.49976  0.37309  1.0000
  C   C1725     1.0  0.69531  0.49513  0.39409  1.0000
  S   S558      1.0  0.66170  0.42525  0.98726  1.0000
  H   H1718     1.0  0.68101  0.52606  0.37372  1.0000
  C   C1726     1.0  0.69597  0.64177  0.10914  1.0000
  H   H1719     1.0  0.69918  0.53618  0.31499  1.0000
  C   C1727     1.0  0.66368  0.64993  0.15864  1.0000
  Fe  Fe275     1.0  0.64717  0.65712  0.09337  1.0000
  C   C1728     1.0  0.63337  0.53974  0.02721  1.0000
  H   H1720     1.0  0.63028  0.62633  0.06546  1.0000
  C   C1729     1.0  0.49808  0.35959  0.06715  1.0000
  C   C1730     1.0  0.54006  0.34364  0.34597  1.0000
  H   H1721     1.0  0.72216  0.40355  0.46017  1.0000
  H   H1722     1.0  0.49465  0.61671  0.16457  1.0000
  H   H1723     1.0  0.63806  0.46863  0.44210  1.0000
  H   H1724     1.0  0.59699  0.64849  0.03897  1.0000
  N   N148      1.0  0.48899  0.36983  0.06611  1.0000
  H   H1725     1.0  0.49480  0.38865  0.15551  1.0000
  H   H1726     1.0  0.71663  0.34146  0.02613  1.0000
  H   H1727     1.0  0.68175  0.48327  0.07545  1.0000
  H   H1728     1.0  0.73302  0.52602  0.45045  1.0000
  C   C1731     1.0  0.60421  0.63385  0.08487  1.0000
  C   C1732     1.0  0.50773  0.35862  0.04225  1.0000
  H   H1729     1.0  0.48973  0.56831  0.21263  1.0000
  C   C1733     1.0  0.72888  0.54267  0.47399  1.0000
  H   H1730     1.0  0.68856  0.43819  0.03802  1.0000
  H   H1731     1.0  0.50128  0.58734  0.20883  1.0000
  H   H1732     1.0  0.49840  0.38560  0.99515  1.0000
  C   C1734     1.0  0.68036  0.43685  0.98376  1.0000
  H   H1733     1.0  0.71688  0.43325  0.98434  1.0000
  H   H1734     1.0  0.66404  0.64721  0.18119  1.0000
  H   H1735     1.0  0.66296  0.43822  0.47935  1.0000
  S   S559      1.0  0.70194  0.50111  0.46386  1.0000
  H   H1736     1.0  0.71740  0.49264  0.37323  1.0000
  C   C1735     1.0  0.54109  0.43659  0.43066  1.0000
  Fe  Fe276     1.0  0.68960  0.47573  0.47191  1.0000
  C   C1736     1.0  0.48475  0.59208  0.25395  1.0000
  H   H1737     1.0  0.49415  0.46692  0.16163  1.0000
  S   S560      1.0  0.57102  0.38913  0.47828  1.0000
  H   H1738     1.0  0.49445  0.60192  0.24207  1.0000
  C   C1737     1.0  0.73065  0.39687  0.45695  1.0000
  H   H1739     1.0  0.50339  0.41726  0.45514  1.0000
  H   H1740     1.0  0.49084  0.45179  0.19286  1.0000
  S   S561      1.0  0.66624  0.47203  0.46016  1.0000
  C   C1738     1.0  0.48901  0.40473  0.17958  1.0000
  Fe  Fe277     1.0  0.64197  0.43617  0.98109  1.0000
  H   H1741     1.0  0.57987  0.65736  0.07217  1.0000
  C   C1739     1.0  0.48399  0.60891  0.17843  1.0000
  C   C1740     1.0  0.72514  0.34566  0.98096  1.0000
  H   H1742     1.0  0.64247  0.41535  0.48000  1.0000
  N   N149      1.0  0.70265  0.52414  0.63042  1.0000
  Fe  Fe278     1.0  0.53725  0.46114  0.67739  1.0000
  S   S562      1.0  0.54312  0.47550  0.63248  1.0000
  S   S563      1.0  0.55231  0.46383  0.70792  1.0000
  Fe  Fe279     1.0  0.50869  0.43947  0.67052  1.0000
  S   S564      1.0  0.51259  0.45201  0.62474  1.0000
  N   N150      1.0  0.48489  0.65486  0.91483  1.0000
  Fe  Fe280     1.0  0.53762  0.45262  0.62133  1.0000
  S   S565      1.0  0.55574  0.45012  0.58522  1.0000
  Fe  Fe281     1.0  0.51767  0.47373  0.63981  1.0000
  S   S566      1.0  0.50878  0.49412  0.62162  1.0000
  S   S567      1.0  0.53332  0.43821  0.66603  1.0000
  S   S568      1.0  0.51221  0.46121  0.68578  1.0000
  H   H1743     1.0  0.73336  0.46276  0.90877  1.0000
  S   S569      1.0  0.69516  0.46957  0.51434  1.0000
  C   C1741     1.0  0.56780  0.41348  0.58179  1.0000
  C   C1742     1.0  0.55979  0.40181  0.57197  1.0000
  H   H1744     1.0  0.68782  0.43467  0.91834  1.0000
  S   S570      1.0  0.60921  0.45579  0.96865  1.0000
  Fe  Fe282     1.0  0.70928  0.49450  0.50417  1.0000
  S   S571      1.0  0.70807  0.51052  0.53404  1.0000
  S   S572      1.0  0.62223  0.65613  0.84905  1.0000
  C   C1743     1.0  0.57468  0.60481  0.78277  1.0000
  H   H1745     1.0  0.60823  0.59843  0.81579  1.0000
  H   H1746     1.0  0.60004  0.40279  0.93724  1.0000
  C   C1744     1.0  0.60197  0.49662  0.66039  1.0000
  C   C1745     1.0  0.71131  0.50493  0.60926  1.0000
  S   S573      1.0  0.53824  0.40932  0.50207  1.0000
  H   H1747     1.0  0.68155  0.53036  0.62769  1.0000
  C   C1746     1.0  0.57449  0.33785  0.88921  1.0000
  H   H1748     1.0  0.69606  0.48397  0.90089  1.0000
  H   H1749     1.0  0.58815  0.40336  0.51497  1.0000
  C   C1747     1.0  0.50314  0.65343  0.87393  1.0000
  H   H1750     1.0  0.60635  0.52140  0.64381  1.0000
  C   C1748     1.0  0.68030  0.56895  0.75013  1.0000
  Fe  Fe283     1.0  0.51109  0.33996  0.89052  1.0000
  H   H1751     1.0  0.49168  0.60953  0.65608  1.0000
  C   C1749     1.0  0.50132  0.38142  0.73193  1.0000
  Fe  Fe284     1.0  0.50048  0.34623  0.94788  1.0000
  S   S574      1.0  0.49785  0.64988  0.75112  1.0000
  Fe  Fe285     1.0  0.53478  0.35115  0.92338  1.0000
  S   S575      1.0  0.55979  0.36458  0.91743  1.0000
  S   S576      1.0  0.51689  0.36122  0.90669  1.0000
  Fe  Fe286     1.0  0.64312  0.53507  0.74034  1.0000
  S   S577      1.0  0.63355  0.55139  0.71288  1.0000
  S   S578      1.0  0.66620  0.52974  0.72681  1.0000
  Fe  Fe287     1.0  0.61559  0.52791  0.79054  1.0000
  S   S579      1.0  0.60378  0.54387  0.76723  1.0000
  S   S580      1.0  0.60427  0.51446  0.83599  1.0000
  Fe  Fe288     1.0  0.61080  0.53335  0.73121  1.0000
  S   S581      1.0  0.59556  0.52924  0.70134  1.0000
  Fe  Fe289     1.0  0.62736  0.56051  0.75106  1.0000
  S   S582      1.0  0.63174  0.58675  0.74267  1.0000
  S   S583      1.0  0.62089  0.51611  0.75574  1.0000
  S   S584      1.0  0.63862  0.54544  0.77738  1.0000
  H   H1752     1.0  0.56089  0.38929  0.53974  1.0000
  H   H1753     1.0  0.59422  0.63281  0.82478  1.0000
  C   C1750     1.0  0.57939  0.61357  0.80092  1.0000
  C   C1751     1.0  0.48391  0.60516  0.67709  1.0000
  C   C1752     1.0  0.59238  0.50855  0.62202  1.0000
  Fe  Fe290     1.0  0.63236  0.45892  0.93927  1.0000
  S   S585      1.0  0.64290  0.47339  0.89429  1.0000
  S   S586      1.0  0.63044  0.43334  0.94598  1.0000
  C   C1753     1.0  0.70027  0.47358  0.90425  1.0000
  C   C1754     1.0  0.67232  0.57928  0.73878  1.0000
  S   S587      1.0  0.51749  0.62375  0.76526  1.0000
  C   C1755     1.0  0.49151  0.55252  0.67819  1.0000
  Fe  Fe291     1.0  0.53856  0.64382  0.75414  1.0000
  H   H1754     1.0  0.67407  0.45862  0.97790  1.0000
  Fe  Fe292     1.0  0.51146  0.63657  0.72716  1.0000
  H   H1755     1.0  0.54774  0.39602  0.58244  1.0000
  Fe  Fe293     1.0  0.60799  0.43015  0.97769  1.0000
  C   C1756     1.0  0.55614  0.38221  0.95666  1.0000
  S   S588      1.0  0.64064  0.62220  0.83744  1.0000
  N   N151      1.0  0.59171  0.61167  0.81165  1.0000
  H   H1756     1.0  0.72065  0.55574  0.68003  1.0000
  S   S589      1.0  0.50462  0.62633  0.69226  1.0000
  C   C1757     1.0  0.59892  0.60040  0.80632  1.0000
  H   H1757     1.0  0.69908  0.53402  0.71244  1.0000
  H   H1758     1.0  0.56521  0.60677  0.77358  1.0000
  C   C1758     1.0  0.48681  0.49071  0.67103  1.0000
  C   C1759     1.0  0.56717  0.39809  0.54790  1.0000
  C   C1760     1.0  0.59425  0.48197  0.65886  1.0000
  C   C1761     1.0  0.69568  0.59541  0.70654  1.0000
  H   H1759     1.0  0.50156  0.40174  0.74785  1.0000
  H   H1760     1.0  0.49931  0.33341  0.79712  1.0000
  C   C1762     1.0  0.61587  0.50456  0.85297  1.0000
  C   C1763     1.0  0.61005  0.49611  0.88148  1.0000
  C   C1764     1.0  0.61847  0.48685  0.89465  1.0000
  C   C1765     1.0  0.63276  0.48604  0.87933  1.0000
  C   C1766     1.0  0.63877  0.49481  0.85104  1.0000
  C   C1767     1.0  0.63034  0.50406  0.83785  1.0000
  H   H1761     1.0  0.59886  0.49650  0.89321  1.0000
  H   H1762     1.0  0.61379  0.48020  0.91648  1.0000
  H   H1763     1.0  0.64983  0.49424  0.83910  1.0000
  H   H1764     1.0  0.63488  0.51051  0.81582  1.0000
  C   C1768     1.0  0.63517  0.59657  0.76866  1.0000
  C   C1769     1.0  0.63657  0.61267  0.76276  1.0000
  C   C1770     1.0  0.63866  0.62078  0.78340  1.0000
  C   C1771     1.0  0.63945  0.61283  0.81005  1.0000
  C   C1772     1.0  0.63833  0.59677  0.81575  1.0000
  C   C1773     1.0  0.63615  0.58864  0.79516  1.0000
  H   H1765     1.0  0.63578  0.61886  0.74230  1.0000
  H   H1766     1.0  0.63945  0.63313  0.77883  1.0000
  H   H1767     1.0  0.63887  0.59054  0.83639  1.0000
  H   H1768     1.0  0.63504  0.57623  0.79997  1.0000
  C   C1774     1.0  0.56629  0.37858  0.93551  1.0000
  H   H1769     1.0  0.50239  0.40536  0.65905  1.0000
  C   C1775     1.0  0.48986  0.33271  0.84074  1.0000
  C   C1776     1.0  0.49295  0.49844  0.64233  1.0000
  C   C1777     1.0  0.58782  0.39716  0.94268  1.0000
  C   C1778     1.0  0.58215  0.38614  0.92859  1.0000
  C   C1779     1.0  0.58495  0.49370  0.62082  1.0000
  C   C1780     1.0  0.49175  0.39735  0.67255  1.0000
  H   H1770     1.0  0.59011  0.38343  0.91228  1.0000
  C   C1781     1.0  0.49784  0.56651  0.68386  1.0000
  C   C1782     1.0  0.49580  0.38961  0.75079  1.0000
  H   H1771     1.0  0.49731  0.35972  0.72007  1.0000
  C   C1783     1.0  0.58304  0.42147  0.56703  1.0000
  H   H1772     1.0  0.67021  0.46789  0.91595  1.0000
  C   C1784     1.0  0.72585  0.33905  0.95794  1.0000
  C   C1785     1.0  0.58241  0.59376  0.77624  1.0000
  C   C1786     1.0  0.72416  0.52279  0.54023  1.0000
  H   H1773     1.0  0.59440  0.47168  0.67426  1.0000
  Fe  Fe294     1.0  0.50551  0.63852  0.78841  1.0000
  H   H1774     1.0  0.58889  0.43099  0.57409  1.0000
  C   C1787     1.0  0.59689  0.62130  0.82984  1.0000
  H   H1775     1.0  0.71638  0.58774  0.70848  1.0000
  C   C1788     1.0  0.67118  0.60250  0.70520  1.0000
  H   H1776     1.0  0.49565  0.37784  0.65632  1.0000
  S   S590      1.0  0.53062  0.33116  0.90313  1.0000
  H   H1777     1.0  0.49548  0.58101  0.71283  1.0000
  C   C1789     1.0  0.58249  0.40616  0.53388  1.0000
  C   C1790     1.0  0.69964  0.51196  0.61848  1.0000
  C   C1791     1.0  0.72177  0.53455  0.55376  1.0000
  C   C1792     1.0  0.69572  0.44609  0.91368  1.0000
  N   N152      1.0  0.68000  0.59221  0.71709  1.0000
  H   H1778     1.0  0.61202  0.43334  0.53982  1.0000
  N   N153      1.0  0.58615  0.48066  0.63885  1.0000
  H   H1779     1.0  0.70180  0.60543  0.68885  1.0000
  C   C1793     1.0  0.59452  0.59140  0.78830  1.0000
  N   N154      1.0  0.59022  0.41766  0.54354  1.0000
  C   C1794     1.0  0.55016  0.44001  0.56081  1.0000
  C   C1795     1.0  0.53531  0.43028  0.56656  1.0000
  C   C1796     1.0  0.53171  0.42115  0.54805  1.0000
  C   C1797     1.0  0.54294  0.42161  0.52386  1.0000
  C   C1798     1.0  0.55770  0.43159  0.51779  1.0000
  C   C1799     1.0  0.56125  0.44082  0.53614  1.0000
  H   H1780     1.0  0.52670  0.42953  0.58555  1.0000
  H   H1781     1.0  0.52025  0.41348  0.55283  1.0000
  H   H1782     1.0  0.56642  0.43207  0.49918  1.0000
  H   H1783     1.0  0.57275  0.44838  0.53153  1.0000
  C   C1800     1.0  0.69025  0.53126  0.64029  1.0000
  H   H1784     1.0  0.54393  0.37654  0.96217  1.0000
  C   C1801     1.0  0.56295  0.48232  0.70817  1.0000
  C   C1802     1.0  0.57289  0.48329  0.72620  1.0000
  C   C1803     1.0  0.58244  0.49773  0.72536  1.0000
  C   C1804     1.0  0.58211  0.51130  0.70642  1.0000
  C   C1805     1.0  0.57179  0.51038  0.68907  1.0000
  C   C1806     1.0  0.56229  0.49594  0.68983  1.0000
  H   H1785     1.0  0.57339  0.47279  0.74053  1.0000
  H   H1786     1.0  0.59034  0.49832  0.73881  1.0000
  H   H1787     1.0  0.57145  0.52084  0.67443  1.0000
  H   H1788     1.0  0.55461  0.49533  0.67598  1.0000
  C   C1807     1.0  0.71129  0.44719  0.91300  1.0000
  C   C1808     1.0  0.57767  0.40070  0.96399  1.0000
  H   H1789     1.0  0.68439  0.52545  0.66300  1.0000
  S   S591      1.0  0.51869  0.33725  0.96551  1.0000
  C   C1809     1.0  0.70565  0.56933  0.66579  1.0000
  C   C1810     1.0  0.69029  0.57012  0.66852  1.0000
  C   C1811     1.0  0.67813  0.55805  0.68726  1.0000
  C   C1812     1.0  0.68125  0.54502  0.70318  1.0000
  C   C1813     1.0  0.69661  0.54407  0.70006  1.0000
  C   C1814     1.0  0.70881  0.55627  0.68156  1.0000
  H   H1790     1.0  0.68780  0.58023  0.65638  1.0000
  H   H1791     1.0  0.66636  0.55884  0.68930  1.0000
  C   C1815     1.0  0.59080  0.64930  0.76187  1.0000
  C   C1816     1.0  0.71589  0.47508  0.90366  1.0000
  C   C1817     1.0  0.72609  0.51040  0.61247  1.0000
  H   H1792     1.0  0.70251  0.56393  0.74743  1.0000
  H   H1793     1.0  0.72377  0.35302  0.50145  1.0000
  H   H1794     1.0  0.66657  0.44720  0.92721  1.0000
  C   C1818     1.0  0.67400  0.45774  0.91064  1.0000
  S   S592      1.0  0.72891  0.46699  0.97359  1.0000
  C   C1819     1.0  0.72898  0.52263  0.62515  1.0000
  S   S593      1.0  0.73123  0.48977  0.48276  1.0000
  C   C1820     1.0  0.57565  0.65103  0.76620  1.0000
  H   H1795     1.0  0.71939  0.53893  0.64380  1.0000
  Fe  Fe295     1.0  0.71694  0.46540  0.48963  1.0000
  H   H1796     1.0  0.73119  0.35773  0.97780  1.0000
  H   H1797     1.0  0.68827  0.50782  0.61536  1.0000
  S   S594      1.0  0.48669  0.42137  0.69634  1.0000
  H   H1798     1.0  0.67189  0.45699  0.88974  1.0000
  C   C1821     1.0  0.70404  0.58546  0.71766  1.0000
  H   H1799     1.0  0.56135  0.33431  0.94385  1.0000
  H   H1800     1.0  0.49068  0.51546  0.60724  1.0000
  Fe  Fe296     1.0  0.64283  0.64810  0.83089  1.0000
  C   C1822     1.0  0.49486  0.64741  0.90239  1.0000
  H   H1801     1.0  0.49218  0.48238  0.68127  1.0000
  H   H1802     1.0  0.71669  0.37635  0.48880  1.0000
  N   N155      1.0  0.59505  0.45231  0.88775  1.0000
  C   C1823     1.0  0.58412  0.45992  0.88201  1.0000
  C   C1824     1.0  0.60877  0.45516  0.86796  1.0000
  C   C1825     1.0  0.58690  0.47090  0.85606  1.0000
  C   C1826     1.0  0.61187  0.46597  0.84170  1.0000
  C   C1827     1.0  0.60085  0.47388  0.83579  1.0000
  C   C1828     1.0  0.59169  0.44058  0.91481  1.0000
  H   H1803     1.0  0.57326  0.45769  0.89770  1.0000
  H   H1804     1.0  0.61759  0.44941  0.87265  1.0000
  H   H1805     1.0  0.66567  0.60763  0.72171  1.0000
  H   H1806     1.0  0.62298  0.46865  0.82648  1.0000
  H   H1807     1.0  0.60336  0.48280  0.81602  1.0000
  H   H1808     1.0  0.58431  0.42943  0.91398  1.0000
  H   H1809     1.0  0.60241  0.43833  0.92003  1.0000
  H   H1810     1.0  0.58560  0.44449  0.93262  1.0000
  H   H1811     1.0  0.67409  0.55839  0.76662  1.0000
  S   S595      1.0  0.50827  0.33906  0.84661  1.0000
  H   H1812     1.0  0.57903  0.58699  0.76193  1.0000
  H   H1813     1.0  0.60801  0.49769  0.67678  1.0000
  H   H1814     1.0  0.59128  0.61524  0.85247  1.0000
  H   H1815     1.0  0.57480  0.46547  0.61745  1.0000
  H   H1816     1.0  0.71027  0.53616  0.55964  1.0000
  H   H1817     1.0  0.72840  0.55991  0.49777  1.0000
  N   N156      1.0  0.69037  0.45918  0.90972  1.0000
  H   H1818     1.0  0.56196  0.41689  0.59984  1.0000
  S   S596      1.0  0.72562  0.44441  0.50613  1.0000
  H   H1819     1.0  0.60568  0.43444  0.50763  1.0000
  H   H1820     1.0  0.59113  0.51888  0.60818  1.0000
  H   H1821     1.0  0.56648  0.34374  0.87984  1.0000
  H   H1822     1.0  0.61301  0.41834  0.52173  1.0000
  H   H1823     1.0  0.50812  0.57466  0.66921  1.0000
  H   H1824     1.0  0.65991  0.57679  0.74706  1.0000
  H   H1825     1.0  0.58586  0.45712  0.63938  1.0000
  C   C1829     1.0  0.60599  0.42641  0.52753  1.0000
  C   C1830     1.0  0.69625  0.57207  0.73942  1.0000
  H   H1826     1.0  0.70033  0.47449  0.97268  1.0000
  H   H1827     1.0  0.56765  0.46032  0.65542  1.0000
  C   C1831     1.0  0.72139  0.46178  0.90818  1.0000
  H   H1828     1.0  0.60059  0.58279  0.78347  1.0000
  H   H1829     1.0  0.57853  0.47742  0.85189  1.0000
  S   S597      1.0  0.56219  0.63945  0.75333  1.0000
  H   H1830     1.0  0.66187  0.59574  0.69793  1.0000
  H   H1831     1.0  0.51931  0.65637  0.64962  1.0000
  H   H1832     1.0  0.57329  0.62212  0.80588  1.0000
  C   C1832     1.0  0.60102  0.50997  0.64182  1.0000
  C   C1833     1.0  0.57824  0.46515  0.63766  1.0000
  H   H1833     1.0  0.58102  0.34595  0.89916  1.0000
  H   H1834     1.0  0.67852  0.61212  0.68681  1.0000
  H   H1835     1.0  0.59398  0.64083  0.75104  1.0000
  S   S598      1.0  0.49034  0.62786  0.83292  1.0000
  C   C1834     1.0  0.48790  0.38179  0.67100  1.0000
  H   H1836     1.0  0.60966  0.62373  0.82663  1.0000
  S   S599      1.0  0.72054  0.58536  0.64408  1.0000
  H   H1837     1.0  0.57807  0.49269  0.60564  1.0000
  C   C1835     1.0  0.71703  0.52935  0.63420  1.0000
  C   C1836     1.0  0.68327  0.45299  0.97920  1.0000
  S   S600      1.0  0.49329  0.32585  0.93035  1.0000
  C   C1837     1.0  0.48886  0.33075  0.81392  1.0000
  H   H1838     1.0  0.49686  0.54960  0.65918  1.0000
  C   C1838     1.0  0.49349  0.36602  0.73525  1.0000
  C   C1839     1.0  0.49079  0.57005  0.70839  1.0000
  H   H1839     1.0  0.71540  0.43676  0.91718  1.0000
  H   H1840     1.0  0.58299  0.33578  0.87201  1.0000
  H   H1841     1.0  0.51135  0.38717  0.71423  1.0000
  H   H1842     1.0  0.51055  0.64716  0.86377  1.0000
  C   C1840     1.0  0.69820  0.46198  0.97631  1.0000
  H   H1843     1.0  0.73257  0.34619  0.93707  1.0000
  C   C1841     1.0  0.71039  0.45495  0.97806  1.0000
  H   H1844     1.0  0.49615  0.63650  0.91419  1.0000
  H   H1845     1.0  0.73216  0.55326  0.57020  1.0000
  H   H1846     1.0  0.69491  0.54388  0.63811  1.0000
  C   C1842     1.0  0.56182  0.39319  0.97080  1.0000
  S   S601      1.0  0.64536  0.46197  0.97214  1.0000
  S   S602      1.0  0.53363  0.65557  0.71386  1.0000
  C   C1843     1.0  0.48594  0.50937  0.62943  1.0000
  H   H1847     1.0  0.70905  0.49574  0.59864  1.0000
  H   H1848     1.0  0.72364  0.48644  0.90039  1.0000
  C   C1844     1.0  0.48738  0.61153  0.69914  1.0000
  H   H1849     1.0  0.48779  0.46726  0.61278  1.0000
  H   H1850     1.0  0.49809  0.65694  0.68879  1.0000
  H   H1851     1.0  0.63610  0.64644  0.97703  1.0000
  H   H1852     1.0  0.61378  0.65770  0.76653  1.0000
  S   S603      1.0  0.52707  0.65757  0.78032  1.0000
  Fe  Fe297     1.0  0.59409  0.78901  0.25532  1.0000
  S   S604      1.0  0.57305  0.79244  0.28278  1.0000
  S   S605      1.0  0.61852  0.80427  0.24784  1.0000
  Fe  Fe298     1.0  0.57426  0.76426  0.23353  1.0000
  S   S606      1.0  0.55191  0.76648  0.25880  1.0000
  S   S607      1.0  0.57573  0.74532  0.21020  1.0000
  Fe  Fe299     1.0  0.56307  0.79224  0.24517  1.0000
  S   S608      1.0  0.55037  0.81077  0.23612  1.0000
  Fe  Fe300     1.0  0.56386  0.76652  0.29382  1.0000
  S   S609      1.0  0.55250  0.75114  0.33804  1.0000
  S   S610      1.0  0.58457  0.79022  0.21674  1.0000
  S   S611      1.0  0.58577  0.76288  0.26954  1.0000
  Fe  Fe301     1.0  0.54196  0.86392  0.10273  1.0000
  S   S612      1.0  0.54647  0.87821  0.05798  1.0000
  S   S613      1.0  0.55524  0.84564  0.10964  1.0000
  Fe  Fe302     1.0  0.51771  0.87977  0.12461  1.0000
  S   S614      1.0  0.52004  0.89492  0.08138  1.0000
  C   C1845     1.0  0.50990  0.76896  0.41886  1.0000
  Fe  Fe303     1.0  0.52058  0.87322  0.06655  1.0000
  S   S615      1.0  0.51094  0.86749  0.03025  1.0000
  Fe  Fe304     1.0  0.54561  0.89850  0.07674  1.0000
  S   S616      1.0  0.56121  0.92297  0.05691  1.0000
  S   S617      1.0  0.51614  0.85764  0.11032  1.0000
  S   S618      1.0  0.54327  0.88462  0.12085  1.0000
  S   S619      1.0  0.51977  0.70776  0.17306  1.0000
  S   S620      1.0  0.52435  0.68773  0.10940  1.0000
  H   H1853     1.0  0.50436  0.80598  0.10850  1.0000
  C   C1846     1.0  0.49433  0.85268  0.03308  1.0000
  C   C1847     1.0  0.52248  0.72463  0.28010  1.0000
  C   C1848     1.0  0.65718  0.82093  0.45345  1.0000
  H   H1854     1.0  0.52257  0.91210  0.12360  1.0000
  S   S621      1.0  0.68339  0.97955  0.11359  1.0000
  Fe  Fe305     1.0  0.63146  0.97435  0.09378  1.0000
  S   S622      1.0  0.61312  0.95138  0.11268  1.0000
  S   S623      1.0  0.67348  0.68211  0.99234  1.0000
  S   S624      1.0  0.65443  0.97404  0.06787  1.0000
  H   H1855     1.0  0.56414  0.71161  0.29867  1.0000
  S   S625      1.0  0.64543  0.67500  0.11780  1.0000
  Fe  Fe306     1.0  0.66274  0.68147  0.03776  1.0000
  S   S626      1.0  0.66246  0.70164  0.05758  1.0000
  C   C1849     1.0  0.72314  0.87995  0.22547  1.0000
  Fe  Fe307     1.0  0.66980  0.68733  0.09269  1.0000
  S   S627      1.0  0.68757  0.69274  0.11777  1.0000
  Fe  Fe308     1.0  0.63810  0.68770  0.08139  1.0000
  S   S628      1.0  0.61753  0.69771  0.09209  1.0000
  S   S629      1.0  0.67198  0.66824  0.07094  1.0000
  H   H1856     1.0  0.54481  0.77940  0.37079  1.0000
  Fe  Fe309     1.0  0.67393  0.84490  0.33238  1.0000
  S   S630      1.0  0.68777  0.83440  0.35985  1.0000
  S   S631      1.0  0.64975  0.82943  0.33880  1.0000
  Fe  Fe310     1.0  0.69912  0.87600  0.31049  1.0000
  S   S632      1.0  0.71448  0.86746  0.33693  1.0000
  S   S633      1.0  0.70486  0.89894  0.27636  1.0000
  Fe  Fe311     1.0  0.70821  0.84556  0.32238  1.0000
  H   H1857     1.0  0.50040  0.81996  0.03890  1.0000
  Fe  Fe312     1.0  0.69258  0.85697  0.37246  1.0000
  S   S634      1.0  0.68561  0.85447  0.42064  1.0000
  S   S635      1.0  0.69414  0.85458  0.29404  1.0000
  S   S636      1.0  0.67756  0.86698  0.34671  1.0000
  C   C1850     1.0  0.49115  0.84952  0.00814  1.0000
  H   H1858     1.0  0.70446  0.77917  0.25022  1.0000
  H   H1859     1.0  0.67239  0.88334  0.45012  1.0000
  H   H1860     1.0  0.63847  0.83058  0.40300  1.0000
  H   H1861     1.0  0.70605  0.79259  0.28548  1.0000
  C   C1851     1.0  0.73348  0.97964  0.08948  1.0000
  C   C1852     1.0  0.54500  0.70970  0.26347  1.0000
  C   C1853     1.0  0.69555  0.85970  0.44595  1.0000
  C   C1854     1.0  0.71716  0.87460  0.45885  1.0000
  C   C1855     1.0  0.71039  0.86973  0.43804  1.0000
  H   H1862     1.0  0.71654  0.87401  0.41586  1.0000
  H   H1863     1.0  0.72853  0.88261  0.45239  1.0000
  C   C1856     1.0  0.69799  0.71148  0.11789  1.0000
  C   C1857     1.0  0.70757  0.71268  0.13657  1.0000
  C   C1858     1.0  0.71623  0.72730  0.13710  1.0000
  C   C1859     1.0  0.71549  0.74089  0.11876  1.0000
  C   C1860     1.0  0.70593  0.73969  0.10006  1.0000
  C   C1861     1.0  0.69717  0.72508  0.09968  1.0000
  C   C1862     1.0  0.72017  0.92917  0.24728  1.0000
  H   H1864     1.0  0.70527  0.75013  0.08579  1.0000
  H   H1865     1.0  0.68988  0.72433  0.08519  1.0000
  H   H1866     1.0  0.60253  0.92400  0.98436  1.0000
  H   H1867     1.0  0.66784  0.66276  0.14976  1.0000
  S   S637      1.0  0.55025  0.65835  0.10177  1.0000
  H   H1868     1.0  0.52138  0.83654  0.99791  1.0000
  N   N157      1.0  0.68619  0.78827  0.26913  1.0000
  H   H1869     1.0  0.71329  0.82345  0.22156  1.0000
  H   H1870     1.0  0.70318  0.97112  0.14830  1.0000
  C   C1863     1.0  0.72680  0.91981  0.29107  1.0000
  N   N158      1.0  0.64560  0.82406  0.44143  1.0000
  N   N159      1.0  0.54732  0.71969  0.28015  1.0000
  H   H1871     1.0  0.62191  0.82465  0.44869  1.0000
  C   C1864     1.0  0.52330  0.83446  0.01898  1.0000
  C   C1865     1.0  0.53602  0.77402  0.39063  1.0000
  C   C1866     1.0  0.57118  0.67888  0.11828  1.0000
  C   C1867     1.0  0.58627  0.68727  0.11637  1.0000
  C   C1868     1.0  0.59908  0.68507  0.09819  1.0000
  H   H1872     1.0  0.56135  0.68084  0.13193  1.0000
  H   H1873     1.0  0.58801  0.69571  0.12859  1.0000
  C   C1869     1.0  0.69359  0.78199  0.24673  1.0000
  H   H1874     1.0  0.50287  0.73079  0.40893  1.0000
  H   H1875     1.0  0.72355  0.72805  0.15156  1.0000
  C   C1870     1.0  0.57585  0.93071  0.07210  1.0000
  C   C1871     1.0  0.57968  0.92141  0.09431  1.0000
  C   C1872     1.0  0.59134  0.92790  0.10610  1.0000
  C   C1873     1.0  0.59932  0.94370  0.09578  1.0000
  C   C1874     1.0  0.59564  0.95301  0.07332  1.0000
  C   C1875     1.0  0.58389  0.94652  0.06158  1.0000
  H   H1876     1.0  0.57365  0.90922  0.10244  1.0000
  H   H1877     1.0  0.59413  0.92065  0.12349  1.0000
  H   H1878     1.0  0.60169  0.96522  0.06528  1.0000
  H   H1879     1.0  0.58101  0.95378  0.04432  1.0000
  C   C1876     1.0  0.53124  0.70677  0.25499  1.0000
  H   H1880     1.0  0.49631  0.82269  0.10532  1.0000
  H   H1881     1.0  0.52953  0.69907  0.24130  1.0000
  C   C1877     1.0  0.72019  0.82117  0.23643  1.0000
  H   H1882     1.0  0.49490  0.90079  0.12106  1.0000
  C   C1878     1.0  0.53262  0.74931  0.35044  1.0000
  C   C1879     1.0  0.52452  0.73922  0.37702  1.0000
  C   C1880     1.0  0.50888  0.73833  0.38819  1.0000
  C   C1881     1.0  0.50923  0.75712  0.34572  1.0000
  C   C1882     1.0  0.52492  0.75816  0.33468  1.0000
  H   H1883     1.0  0.53043  0.73233  0.38927  1.0000
  H   H1884     1.0  0.54643  0.84943  0.00536  1.0000
  H   H1885     1.0  0.53110  0.76610  0.31428  1.0000
  C   C1883     1.0  0.56014  0.73503  0.19979  1.0000
  C   C1884     1.0  0.56128  0.72140  0.19122  1.0000
  C   C1885     1.0  0.54907  0.71288  0.18286  1.0000
  C   C1886     1.0  0.53566  0.71803  0.18276  1.0000
  C   C1887     1.0  0.53456  0.73165  0.19128  1.0000
  C   C1888     1.0  0.54669  0.74007  0.19989  1.0000
  H   H1886     1.0  0.57166  0.71741  0.19109  1.0000
  H   H1887     1.0  0.55003  0.70236  0.17650  1.0000
  H   H1888     1.0  0.52423  0.73571  0.19129  1.0000
  H   H1889     1.0  0.54567  0.75055  0.20635  1.0000
  C   C1889     1.0  0.55063  0.81928  0.20089  1.0000
  C   C1890     1.0  0.55874  0.81494  0.17816  1.0000
  C   C1891     1.0  0.55975  0.82285  0.15017  1.0000
  C   C1892     1.0  0.55266  0.83508  0.14482  1.0000
  C   C1893     1.0  0.54424  0.83917  0.16754  1.0000
  C   C1894     1.0  0.54326  0.83129  0.19551  1.0000
  H   H1890     1.0  0.56442  0.80567  0.18213  1.0000
  H   H1891     1.0  0.56625  0.81963  0.13263  1.0000
  H   H1892     1.0  0.53869  0.84856  0.16359  1.0000
  H   H1893     1.0  0.53693  0.83465  0.21303  1.0000
  C   C1895     1.0  0.62677  0.81158  0.27333  1.0000
  C   C1896     1.0  0.61914  0.80703  0.30218  1.0000
  C   C1897     1.0  0.62629  0.81275  0.32180  1.0000
  C   C1898     1.0  0.64111  0.82313  0.31289  1.0000
  C   C1899     1.0  0.64869  0.82780  0.28399  1.0000
  C   C1900     1.0  0.64156  0.82202  0.26436  1.0000
  H   H1894     1.0  0.60778  0.79899  0.30943  1.0000
  H   H1895     1.0  0.62031  0.80905  0.34409  1.0000
  H   H1896     1.0  0.66007  0.83579  0.27677  1.0000
  H   H1897     1.0  0.64756  0.82564  0.24208  1.0000
  H   H1898     1.0  0.56204  0.73021  0.30323  1.0000
  C   C1901     1.0  0.63110  0.82210  0.45812  1.0000
  S   S638      1.0  0.72582  0.83222  0.30953  1.0000
  H   H1899     1.0  0.65706  0.84173  0.40347  1.0000
  H   H1900     1.0  0.53807  0.73499  0.30182  1.0000
  H   H1901     1.0  0.71150  0.88045  0.23672  1.0000
  H   H1902     1.0  0.60647  0.67249  0.06819  1.0000
  H   H1903     1.0  0.66506  0.78571  0.25648  1.0000
  H   H1904     1.0  0.60706  0.93330  0.04138  1.0000
  C   C1902     1.0  0.66423  0.79605  0.29153  1.0000
  H   H1905     1.0  0.51966  0.93097  0.12459  1.0000
  H   H1906     1.0  0.64330  0.68773  0.99379  1.0000
  C   C1903     1.0  0.71878  0.82765  0.25983  1.0000
  H   H1907     1.0  0.69893  0.89736  0.44254  1.0000
  H   H1908     1.0  0.57449  0.93579  0.16729  1.0000
  C   C1904     1.0  0.56198  0.72270  0.28823  1.0000
  N   N160      1.0  0.59139  0.83579  0.21310  1.0000
  C   C1905     1.0  0.58248  0.84452  0.20189  1.0000
  C   C1906     1.0  0.60193  0.83084  0.19583  1.0000
  C   C1907     1.0  0.58397  0.84852  0.17264  1.0000
  C   C1908     1.0  0.60351  0.83438  0.16654  1.0000
  C   C1909     1.0  0.59445  0.84327  0.15493  1.0000
  C   C1910     1.0  0.58974  0.83208  0.24376  1.0000
  H   H1909     1.0  0.57382  0.84805  0.21567  1.0000
  H   H1910     1.0  0.60903  0.82393  0.20467  1.0000
  H   H1911     1.0  0.57662  0.85513  0.16388  1.0000
  H   H1912     1.0  0.61161  0.83011  0.15303  1.0000
  H   H1913     1.0  0.59528  0.84587  0.13234  1.0000
  H   H1914     1.0  0.59409  0.84281  0.25013  1.0000
  H   H1915     1.0  0.57737  0.82684  0.25528  1.0000
  H   H1916     1.0  0.59633  0.82358  0.25052  1.0000
  C   C1911     1.0  0.53731  0.84175  0.02319  1.0000
  H   H1917     1.0  0.55063  0.76202  0.41008  1.0000
  C   C1912     1.0  0.51347  0.75907  0.44070  1.0000
  Fe  Fe313     1.0  0.51672  0.68618  0.15596  1.0000
  H   H1918     1.0  0.51848  0.78373  0.37624  1.0000
  C   C1913     1.0  0.59675  0.67402  0.08271  1.0000
  C   C1914     1.0  0.53141  0.74640  0.46086  1.0000
  H   H1919     1.0  0.69388  0.91288  0.45707  1.0000
  H   H1920     1.0  0.72225  0.86827  0.22140  1.0000
  C   C1915     1.0  0.56888  0.66815  0.10215  1.0000
  H   H1921     1.0  0.50339  0.76421  0.33364  1.0000
  H   H1922     1.0  0.53285  0.92841  0.09433  1.0000
  S   S639      1.0  0.49220  0.67391  0.15896  1.0000
  C   C1916     1.0  0.61739  0.93942  0.02463  1.0000
  H   H1923     1.0  0.65244  0.79693  0.29312  1.0000
  C   C1917     1.0  0.68781  0.85424  0.47499  1.0000
  H   H1924     1.0  0.50457  0.75318  0.46017  1.0000
  C   C1918     1.0  0.72750  0.82463  0.27938  1.0000
  H   H1925     1.0  0.55018  0.84513  0.05413  1.0000
  H   H1926     1.0  0.65479  0.95866  0.01570  1.0000
  C   C1919     1.0  0.58170  0.66557  0.08476  1.0000
  H   H1927     1.0  0.53211  0.90623  0.16382  1.0000
  C   C1920     1.0  0.52125  0.77644  0.39367  1.0000
  H   H1928     1.0  0.49067  0.80801  0.08754  1.0000
  C   C1921     1.0  0.49242  0.89506  0.16612  1.0000
  H   H1929     1.0  0.50958  0.71270  0.25565  1.0000
  S   S640      1.0  0.50370  0.88147  0.16620  1.0000
  H   H1930     1.0  0.68578  0.77116  0.24564  1.0000
  C   C1922     1.0  0.69424  0.79342  0.28717  1.0000
  Fe  Fe314     1.0  0.50029  0.67363  0.11358  1.0000
  H   H1931     1.0  0.69669  0.79075  0.22589  1.0000
  H   H1932     1.0  0.65450  0.82208  0.39986  1.0000
  N   N161      1.0  0.51341  0.82328  0.06922  1.0000
  H   H1933     1.0  0.72672  0.96810  0.09079  1.0000
  C   C1923     1.0  0.63086  0.94574  0.03190  1.0000
  C   C1924     1.0  0.60276  0.93537  0.98940  1.0000
  H   H1934     1.0  0.57162  0.72874  0.26902  1.0000
  C   C1925     1.0  0.69591  0.90112  0.46235  1.0000
  C   C1926     1.0  0.53623  0.72703  0.28868  1.0000
  H   H1935     1.0  0.66712  0.80695  0.32524  1.0000
  H   H1936     1.0  0.63076  0.94496  0.05400  1.0000
  H   H1937     1.0  0.51393  0.73082  0.28629  1.0000
  C   C1927     1.0  0.52001  0.71445  0.26308  1.0000
  C   C1928     1.0  0.68756  0.80028  0.30751  1.0000
  H   H1938     1.0  0.69419  0.80479  0.32116  1.0000
  N   N162      1.0  0.54103  0.92765  0.13151  1.0000
  C   C1929     1.0  0.54121  0.91700  0.15523  1.0000
  C   C1930     1.0  0.55230  0.94134  0.12099  1.0000
  C   C1931     1.0  0.55322  0.91974  0.16851  1.0000
  C   C1932     1.0  0.56436  0.94455  0.13397  1.0000
  C   C1933     1.0  0.56489  0.93360  0.15768  1.0000
  C   C1934     1.0  0.52840  0.92470  0.11783  1.0000
  H   H1939     1.0  0.49845  0.85660  0.98774  1.0000
  H   H1940     1.0  0.55220  0.94970  0.10204  1.0000
  H   H1941     1.0  0.55350  0.91113  0.18693  1.0000
  H   H1942     1.0  0.57353  0.95524  0.12516  1.0000
  C   C1935     1.0  0.51142  0.82513  0.04236  1.0000
  C   C1936     1.0  0.71803  0.91717  0.27179  1.0000
  H   H1943     1.0  0.48704  0.84588  0.07865  1.0000
  S   S641      1.0  0.72652  0.75959  0.11779  1.0000
  N   N163      1.0  0.58092  0.71567  0.07449  1.0000
  C   C1937     1.0  0.59217  0.72425  0.08350  1.0000
  C   C1938     1.0  0.56564  0.71419  0.08629  1.0000
  C   C1939     1.0  0.58821  0.73161  0.10491  1.0000
  C   C1940     1.0  0.56127  0.72139  0.10774  1.0000
  C   C1941     1.0  0.57267  0.73028  0.11685  1.0000
  C   C1942     1.0  0.58519  0.70845  0.05137  1.0000
  H   H1944     1.0  0.60429  0.72513  0.07464  1.0000
  H   H1945     1.0  0.55674  0.70724  0.07936  1.0000
  H   H1946     1.0  0.59714  0.73816  0.11239  1.0000
  H   H1947     1.0  0.54911  0.72001  0.11741  1.0000
  H   H1948     1.0  0.56946  0.73604  0.13331  1.0000
  H   H1949     1.0  0.59705  0.70676  0.04921  1.0000
  H   H1950     1.0  0.57724  0.69671  0.05565  1.0000
  H   H1951     1.0  0.58468  0.71585  0.03106  1.0000
  C   C1943     1.0  0.70582  0.98371  0.14212  1.0000
  C   C1944     1.0  0.49020  0.90321  0.14086  1.0000
  H   H1952     1.0  0.55398  0.70425  0.25600  1.0000
  S   S642      1.0  0.52308  0.66374  0.17082  1.0000
  H   H1953     1.0  0.69102  0.66217  0.12014  1.0000
  S   S643      1.0  0.63796  0.66882  0.05873  1.0000
  H   H1954     1.0  0.71344  0.92728  0.23223  1.0000
  C   C1945     1.0  0.50124  0.74740  0.37269  1.0000
  H   H1955     1.0  0.49829  0.77050  0.42112  1.0000
  C   C1946     1.0  0.52719  0.83020  0.07349  1.0000
  H   H1956     1.0  0.66872  0.82265  0.44022  1.0000
  C   C1947     1.0  0.53919  0.76403  0.41288  1.0000
  C   C1948     1.0  0.64901  0.82990  0.41053  1.0000
  C   C1949     1.0  0.67244  0.80158  0.30968  1.0000
  C   C1950     1.0  0.53937  0.83945  0.05055  1.0000
  C   C1951     1.0  0.67139  0.78959  0.27101  1.0000
  C   C1952     1.0  0.63329  0.98767  0.98791  1.0000
  H   H1957     1.0  0.54178  0.74229  0.45355  1.0000
  N   N164      1.0  0.52792  0.75661  0.43742  1.0000
  H   H1958     1.0  0.70613  0.90174  0.47139  1.0000
  H   H1959     1.0  0.52160  0.73588  0.47101  1.0000
  N   N165      1.0  0.61719  0.94115  0.99681  1.0000
  C   C1953     1.0  0.64434  0.95331  0.01048  1.0000
  C   C1954     1.0  0.50055  0.81451  0.09384  1.0000
  H   H1960     1.0  0.52874  0.82885  0.09480  1.0000
  H   H1961     1.0  0.71078  0.83478  0.26288  1.0000
  H   H1962     1.0  0.70829  0.70223  0.15072  1.0000
  Fe  Fe315     1.0  0.66508  0.98802  0.09453  1.0000
  H   H1963     1.0  0.72531  0.91069  0.30997  1.0000
  Fe  Fe316     1.0  0.52922  0.66454  0.12436  1.0000
  C   C1955     1.0  0.48478  0.84347  0.05933  1.0000
  H   H1964     1.0  0.53336  0.75271  0.47719  1.0000
  C   C1956     1.0  0.67088  0.88210  0.47271  1.0000
  H   H1965     1.0  0.59243  0.93386  0.00699  1.0000
  H   H1966     1.0  0.72392  0.98663  0.16400  1.0000
  S   S644      1.0  0.64206  0.98658  0.12274  1.0000
  H   H1967     1.0  0.61092  0.97788  0.98221  1.0000
  C   C1957     1.0  0.64427  0.95416  0.98226  1.0000
  C   C1958     1.0  0.73024  0.81154  0.23237  1.0000
  S   S645      1.0  0.48490  0.68053  0.08516  1.0000
  H   H1968     1.0  0.62879  0.98760  0.00973  1.0000
  H   H1969     1.0  0.48748  0.89171  0.21142  1.0000
  H   H1970     1.0  0.73244  0.95275  0.22308  1.0000
  C   C1959     1.0  0.73096  0.94363  0.24199  1.0000
  C   C1960     1.0  0.48586  0.89803  0.19179  1.0000
  H   H1971     1.0  0.72683  0.88871  0.20460  1.0000
  S   S646      1.0  0.73050  0.80281  0.20373  1.0000
  H   H1972     1.0  0.73124  0.85911  0.26197  1.0000
  Fe  Fe317     1.0  0.58648  0.79946  0.58328  1.0000
  S   S647      1.0  0.57917  0.78494  0.62848  1.0000
  S   S648      1.0  0.61153  0.81382  0.56286  1.0000
  Fe  Fe318     1.0  0.55442  0.78650  0.57267  1.0000
  S   S649      1.0  0.54512  0.77150  0.61721  1.0000
  S   S650      1.0  0.53850  0.78819  0.54269  1.0000
  Fe  Fe319     1.0  0.55702  0.79220  0.62986  1.0000
  S   S651      1.0  0.54369  0.79825  0.66757  1.0000
  Fe  Fe320     1.0  0.56802  0.76568  0.61154  1.0000
  S   S652      1.0  0.57018  0.74091  0.62251  1.0000
  S   S653      1.0  0.56481  0.80791  0.58570  1.0000
  S   S654      1.0  0.57685  0.77953  0.56591  1.0000
  Fe  Fe321     1.0  0.51944  0.88524  0.73809  1.0000
  S   S655      1.0  0.52376  0.86143  0.74492  1.0000
  S   S656      1.0  0.49627  0.88965  0.73555  1.0000
  Fe  Fe322     1.0  0.55057  0.90029  0.74736  1.0000
  S   S657      1.0  0.55738  0.87772  0.75501  1.0000
  S   S658      1.0  0.56442  0.92389  0.74787  1.0000
  Fe  Fe323     1.0  0.54780  0.87389  0.71813  1.0000
  S   S659      1.0  0.56175  0.86671  0.68225  1.0000
  Fe  Fe324     1.0  0.53279  0.86733  0.78103  1.0000
  S   S660      1.0  0.52680  0.85017  0.82391  1.0000
  S   S661      1.0  0.54272  0.89740  0.70840  1.0000
  S   S662      1.0  0.52677  0.89019  0.77621  1.0000
  C   C1961     1.0  0.63963  0.81347  0.50006  1.0000
  S   S663      1.0  0.52125  0.69339  0.72979  1.0000
  C   C1962     1.0  0.72640  0.82492  0.68829  1.0000
  C   C1963     1.0  0.48716  0.83129  0.88640  1.0000
  H   H1973     1.0  0.71131  0.69474  0.88833  1.0000
  S   S664      1.0  0.60957  0.97502  0.85003  1.0000
  Fe  Fe325     1.0  0.61793  0.95499  0.83857  1.0000
  S   S665      1.0  0.63813  0.97006  0.80322  1.0000
  S   S666      1.0  0.60298  0.93181  0.83812  1.0000
  Fe  Fe326     1.0  0.65145  0.97023  0.83634  1.0000
  S   S667      1.0  0.67399  0.96332  0.83272  1.0000
  C   C1964     1.0  0.53108  0.81891  0.58195  1.0000
  S   S668      1.0  0.63181  0.95359  0.87089  1.0000
  H   H1974     1.0  0.67779  0.93540  0.78500  1.0000
  H   H1975     1.0  0.68966  0.77466  0.72031  1.0000
  H   H1976     1.0  0.51325  0.93709  0.67000  1.0000
  S   S669      1.0  0.64529  0.69162  0.82814  1.0000
  H   H1977     1.0  0.56005  0.66348  0.78354  1.0000
  Fe  Fe327     1.0  0.63055  0.67565  0.80940  1.0000
  S   S670      1.0  0.61268  0.68432  0.78948  1.0000
  Fe  Fe328     1.0  0.66426  0.68097  0.81205  1.0000
  S   S671      1.0  0.68992  0.69296  0.79449  1.0000
  H   H1978     1.0  0.56503  0.93987  0.83115  1.0000
  Fe  Fe329     1.0  0.67840  0.86712  0.60651  1.0000
  S   S672      1.0  0.69429  0.88928  0.57632  1.0000
  S   S673      1.0  0.65206  0.86199  0.61335  1.0000
  Fe  Fe330     1.0  0.70561  0.85567  0.62144  1.0000
  Fe  Fe331     1.0  0.70827  0.89058  0.60895  1.0000
  C   C1965     1.0  0.69458  0.85910  0.49580  1.0000
  Fe  Fe332     1.0  0.70806  0.87350  0.56061  1.0000
  S   S674      1.0  0.71757  0.87763  0.51262  1.0000
  S   S675      1.0  0.69095  0.86986  0.64061  1.0000
  S   S676      1.0  0.69178  0.85141  0.58979  1.0000
  H   H1979     1.0  0.60138  0.67162  0.70566  1.0000
  H   H1980     1.0  0.53693  0.91029  0.81427  1.0000
  C   C1966     1.0  0.50604  0.74713  0.52481  1.0000
  H   H1981     1.0  0.51963  0.72045  0.65222  1.0000
  H   H1982     1.0  0.68834  0.85503  0.51794  1.0000
  H   H1983     1.0  0.67610  0.67030  0.94302  1.0000
  H   H1984     1.0  0.67467  0.71278  0.92585  1.0000
  H   H1985     1.0  0.71636  0.80833  0.63153  1.0000
  H   H1986     1.0  0.68935  0.89459  0.51869  1.0000
  S   S677      1.0  0.62980  0.67523  0.90977  1.0000
  H   H1987     1.0  0.51810  0.98274  0.60154  1.0000
  C   C1967     1.0  0.65580  0.67215  0.92814  1.0000
  H   H1988     1.0  0.65467  0.96010  0.96543  1.0000
  H   H1989     1.0  0.64927  0.98782  0.90942  1.0000
  C   C1968     1.0  0.70880  0.79262  0.67352  1.0000
  C   C1969     1.0  0.69881  0.71301  0.78833  1.0000
  C   C1970     1.0  0.69019  0.72390  0.79133  1.0000
  C   C1971     1.0  0.69778  0.73974  0.78619  1.0000
  C   C1972     1.0  0.71504  0.71810  0.78034  1.0000
  H   H1990     1.0  0.67770  0.72016  0.79727  1.0000
  H   H1991     1.0  0.69103  0.74810  0.78841  1.0000
  H   H1992     1.0  0.72179  0.70974  0.77797  1.0000
  N   N166      1.0  0.70627  0.96263  0.73373  1.0000
  H   H1993     1.0  0.48602  0.81581  0.83814  1.0000
  H   H1994     1.0  0.49348  0.92775  0.67257  1.0000
  H   H1995     1.0  0.53081  0.83979  0.64186  1.0000
  C   C1973     1.0  0.59161  0.67559  0.69909  1.0000
  Fe  Fe333     1.0  0.63088  0.99017  0.81702  1.0000
  C   C1974     1.0  0.57687  0.70662  0.74506  1.0000
  C   C1975     1.0  0.69104  0.97530  0.80821  1.0000
  N   N167      1.0  0.71307  0.78381  0.69492  1.0000
  C   C1976     1.0  0.53079  0.83407  0.62480  1.0000
  C   C1977     1.0  0.71777  0.97832  0.78360  1.0000
  C   C1978     1.0  0.70416  0.96950  0.80399  1.0000
  H   H1996     1.0  0.60166  0.94382  0.97069  1.0000
  C   C1979     1.0  0.51673  0.79405  0.61647  1.0000
  H   H1997     1.0  0.70369  0.95802  0.81628  1.0000
  Fe  Fe334     1.0  0.63837  0.67129  0.86658  1.0000
  H   H1998     1.0  0.70288  0.76341  0.72893  1.0000
  C   C1980     1.0  0.58298  0.67177  0.78842  1.0000
  Fe  Fe335     1.0  0.52051  0.66782  0.74087  1.0000
  S   S678      1.0  0.71946  0.91429  0.61635  1.0000
  H   H1999     1.0  0.57999  0.68066  0.79828  1.0000
  C   C1981     1.0  0.70080  0.69842  0.88771  1.0000
  C   C1982     1.0  0.50796  0.84694  0.84525  1.0000
  C   C1983     1.0  0.49826  0.85623  0.83759  1.0000
  C   C1984     1.0  0.56644  0.69733  0.73467  1.0000
  H   H2000     1.0  0.50234  0.86574  0.81863  1.0000
  H   H2001     1.0  0.64878  0.86520  0.48392  1.0000
  C   C1985     1.0  0.57698  0.92584  0.77021  1.0000
  C   C1986     1.0  0.58456  0.94081  0.77079  1.0000
  C   C1987     1.0  0.59328  0.94284  0.79058  1.0000
  C   C1988     1.0  0.59447  0.92985  0.80988  1.0000
  C   C1989     1.0  0.58754  0.91487  0.80835  1.0000
  C   C1990     1.0  0.57876  0.91284  0.78866  1.0000
  H   H2002     1.0  0.58330  0.95091  0.75643  1.0000
  H   H2003     1.0  0.59864  0.95443  0.79151  1.0000
  H   H2004     1.0  0.58857  0.90478  0.82304  1.0000
  H   H2005     1.0  0.57306  0.90126  0.78825  1.0000
  H   H2006     1.0  0.63723  0.80927  0.52295  1.0000
  C   C1991     1.0  0.67589  0.95791  0.76416  1.0000
  C   C1992     1.0  0.50051  0.88880  0.67964  1.0000
  H   H2007     1.0  0.71535  0.81870  0.70299  1.0000
  H   H2008     1.0  0.55449  0.69793  0.73837  1.0000
  H   H2009     1.0  0.51129  0.88591  0.68101  1.0000
  C   C1993     1.0  0.69879  0.94871  0.75314  1.0000
  C   C1994     1.0  0.52602  0.77212  0.53642  1.0000
  C   C1995     1.0  0.51562  0.77492  0.51983  1.0000
  C   C1996     1.0  0.50563  0.76253  0.51417  1.0000
  C   C1997     1.0  0.51648  0.74435  0.54131  1.0000
  C   C1998     1.0  0.52634  0.75672  0.54721  1.0000
  H   H2010     1.0  0.51522  0.78676  0.51139  1.0000
  H   H2011     1.0  0.51696  0.73252  0.54958  1.0000
  H   H2012     1.0  0.53429  0.75433  0.55991  1.0000
  C   C1999     1.0  0.55703  0.72790  0.65306  1.0000
  C   C2000     1.0  0.54715  0.73314  0.67200  1.0000
  C   C2001     1.0  0.53649  0.72245  0.69588  1.0000
  C   C2002     1.0  0.53552  0.70648  0.70076  1.0000
  C   C2003     1.0  0.54548  0.70124  0.68195  1.0000
  C   C2004     1.0  0.55627  0.71194  0.65824  1.0000
  H   H2013     1.0  0.54775  0.74544  0.66826  1.0000
  H   H2014     1.0  0.52882  0.72658  0.71041  1.0000
  H   H2015     1.0  0.54466  0.68895  0.68529  1.0000
  H   H2016     1.0  0.56390  0.70786  0.64358  1.0000
  C   C2005     1.0  0.54893  0.81731  0.67134  1.0000
  C   C2006     1.0  0.54037  0.82116  0.69436  1.0000
  C   C2007     1.0  0.54398  0.83637  0.69763  1.0000
  C   C2008     1.0  0.55615  0.84783  0.67779  1.0000
  C   C2009     1.0  0.56469  0.84399  0.65468  1.0000
  C   C2010     1.0  0.56111  0.82876  0.65147  1.0000
  H   H2017     1.0  0.53095  0.81233  0.70982  1.0000
  H   H2018     1.0  0.53747  0.83915  0.71568  1.0000
  H   H2019     1.0  0.57421  0.85279  0.63939  1.0000
  H   H2020     1.0  0.56777  0.82590  0.63365  1.0000
  C   C2011     1.0  0.62249  0.82659  0.57843  1.0000
  C   C2012     1.0  0.61573  0.83564  0.59420  1.0000
  C   C2013     1.0  0.62498  0.84665  0.60407  1.0000
  C   C2014     1.0  0.64102  0.84836  0.59937  1.0000
  C   C2015     1.0  0.64778  0.83927  0.58369  1.0000
  C   C2016     1.0  0.63860  0.82863  0.57295  1.0000
  H   H2021     1.0  0.60341  0.83448  0.59806  1.0000
  H   H2022     1.0  0.61965  0.85394  0.61534  1.0000
  H   H2023     1.0  0.66009  0.84046  0.57969  1.0000
  H   H2024     1.0  0.64402  0.82181  0.56065  1.0000
  C   C2017     1.0  0.66714  0.87814  0.53055  1.0000
  H   H2025     1.0  0.65244  0.71144  0.90705  1.0000
  H   H2026     1.0  0.49760  0.76492  0.50166  1.0000
  H   H2027     1.0  0.48839  0.68465  0.85844  1.0000
  H   H2028     1.0  0.70478  0.98524  0.71366  1.0000
  C   C2018     1.0  0.71401  0.74482  0.77807  1.0000
  H   H2029     1.0  0.59529  0.68156  0.67610  1.0000
  C   C2019     1.0  0.52396  0.69554  0.63729  1.0000
  C   C2020     1.0  0.50246  0.83463  0.86996  1.0000
  H   H2030     1.0  0.72232  0.90086  0.67404  1.0000
  H   H2031     1.0  0.48621  0.97179  0.66590  1.0000
  H   H2032     1.0  0.69701  0.79365  0.67623  1.0000
  H   H2033     1.0  0.65934  0.66784  0.90988  1.0000
  H   H2034     1.0  0.60031  0.71244  0.74903  1.0000
  C   C2021     1.0  0.54045  0.88997  0.84033  1.0000
  H   H2035     1.0  0.50403  0.79213  0.62015  1.0000
  C   C2022     1.0  0.69379  0.70407  0.90958  1.0000
  C   C2023     1.0  0.69166  0.99013  0.79227  1.0000
  C   C2024     1.0  0.68355  0.94620  0.76884  1.0000
  C   C2025     1.0  0.63732  0.68190  0.95687  1.0000
  H   H2036     1.0  0.64539  0.86183  0.53581  1.0000
  S   S679      1.0  0.70928  0.83576  0.65334  1.0000
  N   N168      1.0  0.55198  0.91627  0.84004  1.0000
  C   C2026     1.0  0.72814  0.78325  0.69189  1.0000
  C   C2027     1.0  0.68036  0.88834  0.51098  1.0000
  C   C2028     1.0  0.60202  0.65880  0.77072  1.0000
  C   C2029     1.0  0.51243  0.97055  0.60466  1.0000
  C   C2030     1.0  0.65944  0.71246  0.88542  1.0000
  C   C2031     1.0  0.65567  0.86982  0.52080  1.0000
  C   C2032     1.0  0.49600  0.89023  0.65409  1.0000
  C   C2033     1.0  0.50526  0.93234  0.65800  1.0000
  C   C2034     1.0  0.50416  0.96606  0.58580  1.0000
  C   C2035     1.0  0.51270  0.95934  0.62840  1.0000
  C   C2036     1.0  0.49627  0.95049  0.59086  1.0000
  C   C2037     1.0  0.68048  0.70204  0.86482  1.0000
  C   C2038     1.0  0.72263  0.73393  0.77525  1.0000
  H   H2037     1.0  0.53606  0.68130  0.61632  1.0000
  H   H2038     1.0  0.66240  0.72469  0.87251  1.0000
  C   C2039     1.0  0.49688  0.93958  0.61469  1.0000
  H   H2039     1.0  0.48945  0.94695  0.57674  1.0000
  H   H2040     1.0  0.51940  0.78777  0.63582  1.0000
  C   C2040     1.0  0.51737  0.66746  0.65219  1.0000
  C   C2041     1.0  0.50546  0.66777  0.67432  1.0000
  H   H2041     1.0  0.72238  0.96240  0.69668  1.0000
  C   C2042     1.0  0.69415  0.69744  0.86511  1.0000
  H   H2042     1.0  0.52095  0.78879  0.59912  1.0000
  C   C2043     1.0  0.66524  0.67350  0.94698  1.0000
  H   H2043     1.0  0.54408  0.84116  0.55339  1.0000
  N   N169      1.0  0.58650  0.68614  0.71533  1.0000
  C   C2044     1.0  0.59685  0.69534  0.72517  1.0000
  C   C2045     1.0  0.57151  0.68714  0.71965  1.0000
  H   H2044     1.0  0.51885  0.96305  0.64329  1.0000
  C   C2046     1.0  0.69878  0.97412  0.72878  1.0000
  H   H2045     1.0  0.72887  0.97738  0.71373  1.0000
  H   H2046     1.0  0.54425  0.93653  0.84235  1.0000
  H   H2047     1.0  0.56331  0.67985  0.71186  1.0000
  S   S680      1.0  0.72336  0.87638  0.59075  1.0000
  S   S681      1.0  0.65017  0.66663  0.78963  1.0000
  C   C2047     1.0  0.65440  0.81563  0.48290  1.0000
  H   H2048     1.0  0.58216  0.66490  0.70292  1.0000
  C   C2048     1.0  0.64674  0.68323  0.97571  1.0000
  H   H2049     1.0  0.62655  0.68527  0.96066  1.0000
  H   H2050     1.0  0.69948  0.69312  0.84787  1.0000
  S   S682      1.0  0.49443  0.73100  0.51711  1.0000
  C   C2049     1.0  0.52373  0.81816  0.63077  1.0000
  C   C2050     1.0  0.52673  0.68142  0.63356  1.0000
  H   H2051     1.0  0.67538  0.70117  0.84721  1.0000
  H   H2052     1.0  0.69863  0.70456  0.92764  1.0000
  H   H2053     1.0  0.50588  0.71041  0.68523  1.0000
  H   H2054     1.0  0.49972  0.71269  0.65258  1.0000
  H   H2055     1.0  0.50338  0.97470  0.56786  1.0000
  N   N170      1.0  0.68214  0.89010  0.48250  1.0000
  C   C2051     1.0  0.68349  0.97194  0.74390  1.0000
  N   N171      1.0  0.67360  0.70741  0.88648  1.0000
  H   H2056     1.0  0.60868  0.69440  0.72224  1.0000
  H   H2057     1.0  0.63038  0.94923  0.95365  1.0000
  H   H2058     1.0  0.70379  0.78155  0.73852  1.0000
  S   S683      1.0  0.65833  0.66164  0.85202  1.0000
  N   N172      1.0  0.52418  0.81074  0.60953  1.0000
  H   H2059     1.0  0.50689  0.67148  0.83573  1.0000
  H   H2060     1.0  0.65193  0.70492  0.87600  1.0000
  C   C2052     1.0  0.70173  0.77548  0.72191  1.0000
  H   H2061     1.0  0.67635  0.84646  0.48146  1.0000
  C   C2053     1.0  0.50315  0.68210  0.67771  1.0000
  C   C2054     1.0  0.49068  0.67447  0.87087  1.0000
  C   C2055     1.0  0.55377  0.93303  0.82972  1.0000
  C   C2056     1.0  0.53832  0.83482  0.57522  1.0000
  H   H2062     1.0  0.51829  0.81167  0.65266  1.0000
  S   S684      1.0  0.61590  0.97552  0.92487  1.0000
  H   H2063     1.0  0.57306  0.71447  0.75696  1.0000
  H   H2064     1.0  0.55369  0.93613  0.80695  1.0000
  C   C2057     1.0  0.62319  0.98223  0.97225  1.0000
  H   H2065     1.0  0.53129  0.70636  0.62273  1.0000
  H   H2066     1.0  0.61640  0.81511  0.50101  1.0000
  C   C2058     1.0  0.55922  0.91093  0.86011  1.0000
  H   H2067     1.0  0.72840  0.95761  0.72891  1.0000
  S   S685      1.0  0.72294  0.76493  0.77088  1.0000
  C   C2059     1.0  0.49104  0.89114  0.70330  1.0000
  H   H2068     1.0  0.72766  0.97359  0.78041  1.0000
  H   H2069     1.0  0.50910  0.92248  0.65150  1.0000
  N   N173      1.0  0.60119  0.85430  0.68898  1.0000
  C   C2060     1.0  0.61502  0.85213  0.67610  1.0000
  C   C2061     1.0  0.58821  0.84215  0.69853  1.0000
  C   C2062     1.0  0.61610  0.83742  0.67288  1.0000
  C   C2063     1.0  0.58877  0.82740  0.69486  1.0000
  C   C2064     1.0  0.60283  0.82506  0.68190  1.0000
  C   C2065     1.0  0.60000  0.86994  0.69074  1.0000
  H   H2070     1.0  0.62529  0.86181  0.66778  1.0000
  H   H2071     1.0  0.57724  0.84389  0.70861  1.0000
  H   H2072     1.0  0.62710  0.83581  0.66251  1.0000
  H   H2073     1.0  0.57830  0.81796  0.70159  1.0000
  H   H2074     1.0  0.60341  0.81375  0.67853  1.0000
  H   H2075     1.0  0.59077  0.86941  0.70957  1.0000
  H   H2076     1.0  0.61101  0.87708  0.69249  1.0000
  H   H2077     1.0  0.59696  0.87586  0.67156  1.0000
  C   C2066     1.0  0.72735  0.92238  0.64199  1.0000
  C   C2067     1.0  0.59821  0.67028  0.78350  1.0000
  N   N174      1.0  0.50508  0.94406  0.63301  1.0000
  H   H2078     1.0  0.54658  0.87198  0.86786  1.0000
  H   H2079     1.0  0.73153  0.77652  0.70915  1.0000
  C   C2068     1.0  0.55747  0.89495  0.87036  1.0000
  Fe  Fe336     1.0  0.62521  0.97481  0.87954  1.0000
  C   C2069     1.0  0.68018  0.70867  0.90849  1.0000
  C   C2070     1.0  0.72769  0.91322  0.66810  1.0000
  C   C2071     1.0  0.50921  0.71056  0.66242  1.0000
  H   H2080     1.0  0.66585  0.87661  0.55315  1.0000
  H   H2081     1.0  0.54399  0.85468  0.59207  1.0000
  C   C2072     1.0  0.62889  0.98235  0.94385  1.0000
  H   H2082     1.0  0.50993  0.82743  0.87605  1.0000
  C   C2073     1.0  0.71971  0.80095  0.64807  1.0000
  C   C2074     1.0  0.54802  0.88442  0.86035  1.0000
  H   H2083     1.0  0.53127  0.81308  0.56502  1.0000
  C   C2075     1.0  0.59218  0.70563  0.74035  1.0000
  H   H2084     1.0  0.56688  0.91906  0.86753  1.0000
  C   C2076     1.0  0.53824  0.84240  0.59685  1.0000
  C   C2077     1.0  0.72687  0.83503  0.66246  1.0000
  C   C2078     1.0  0.54259  0.90603  0.83030  1.0000
  H   H2085     1.0  0.53309  0.88182  0.83252  1.0000
  C   C2079     1.0  0.64186  0.67643  0.93300  1.0000
  H   H2086     1.0  0.67773  0.98124  0.74068  1.0000
  N   N175      1.0  0.51236  0.69573  0.65931  1.0000
  H   H2087     1.0  0.70470  0.93957  0.75695  1.0000
  H   H2088     1.0  0.66424  0.95627  0.77684  1.0000
  H   H2089     1.0  0.50336  0.88845  0.63577  1.0000
  H   H2090     1.0  0.66367  0.81330  0.49232  1.0000
  C   C2080     1.0  0.57169  0.66211  0.77995  1.0000
  H   H2091     1.0  0.49364  0.83309  0.78987  1.0000
  H   H2092     1.0  0.56359  0.89081  0.88566  1.0000
  H   H2093     1.0  0.49038  0.85679  0.75923  1.0000
  C   C2081     1.0  0.66081  0.67919  0.97062  1.0000
  C   C2082     1.0  0.72223  0.96512  0.71742  1.0000
  H   H2094     1.0  0.49064  0.92752  0.61858  1.0000
  C   C2083     1.0  0.70922  0.86956  0.48781  1.0000
  C   C2084     1.0  0.50103  0.66707  0.85813  1.0000
  C   C2085     1.0  0.63050  0.94799  0.97575  1.0000
  H   H2095     1.0  0.49404  0.68224  0.69531  1.0000
  C   C2086     1.0  0.65753  0.87177  0.49170  1.0000
  C   C2087     1.0  0.62790  0.81673  0.48766  1.0000
  C   C2088     1.0  0.64476  0.98782  0.93121  1.0000
  H   H2096     1.0  0.73358  0.88360  0.64496  1.0000
  Fe  Fe337     1.0  0.74756  0.21192  0.27193  1.0000
  S   S686      1.0  0.74660  0.21947  0.22662  1.0000
  C   C2089     1.0  0.87233  0.11082  0.22997  1.0000
  Fe  Fe338     1.0  0.77901  0.20568  0.25546  1.0000
  S   S687      1.0  0.78059  0.21315  0.20898  1.0000
  S   S688      1.0  0.80017  0.19974  0.26677  1.0000
  Fe  Fe339     1.0  0.77125  0.23287  0.21890  1.0000
  S   S689      1.0  0.77874  0.25740  0.19032  1.0000
  Fe  Fe340     1.0  0.75590  0.19904  0.22087  1.0000
  H   H2097     1.0  0.82424  0.09997  0.45706  1.0000
  S   S690      1.0  0.77163  0.22669  0.26458  1.0000
  S   S691      1.0  0.75489  0.19015  0.26692  1.0000
  C   C2090     1.0  0.97952  0.25320  0.12536  1.0000
  H   H2098     1.0  0.86530  0.10293  0.25078  1.0000
  N   N176      1.0  0.82676  0.28209  0.12140  1.0000
  H   H2099     1.0  0.76801  0.02966  0.06725  1.0000
  H   H2100     1.0  0.87074  0.10466  0.21335  1.0000
  C   C2091     1.0  0.77347  0.02068  0.29735  1.0000
  S   S692      1.0  0.96415  0.19163  0.15575  1.0000
  Fe  Fe341     1.0  0.96882  0.18227  0.19768  1.0000
  S   S693      1.0  0.95127  0.16294  0.23352  1.0000
  Fe  Fe342     1.0  0.85839  0.12840  0.28822  1.0000
  S   S694      1.0  0.85820  0.10469  0.31367  1.0000
  S   S695      1.0  0.87799  0.14644  0.25393  1.0000
  Fe  Fe343     1.0  0.82334  0.12240  0.30852  1.0000
  S   S696      1.0  0.82084  0.09838  0.33495  1.0000
  S   S697      1.0  0.80091  0.12923  0.30825  1.0000
  Fe  Fe344     1.0  0.84141  0.10952  0.34910  1.0000
  S   S698      1.0  0.83662  0.10308  0.39789  1.0000
  Fe  Fe345     1.0  0.83748  0.09570  0.29755  1.0000
  S   S699      1.0  0.83633  0.07499  0.27747  1.0000
  S   S700      1.0  0.84285  0.13379  0.32430  1.0000
  S   S701      1.0  0.83868  0.11911  0.27041  1.0000
  S   S702      1.0  0.80288  0.99866  0.12859  1.0000
  S   S703      1.0  0.76538  0.28927  0.99136  1.0000
  S   S704      1.0  0.95442  0.13783  0.03596  1.0000
  H   H2101     1.0  0.79050  0.26331  0.12288  1.0000
  S   S705      1.0  0.81207  0.01539  0.99460  1.0000
  H   H2102     1.0  0.80283  0.14743  0.35142  1.0000
  H   H2103     1.0  0.75680  0.15162  0.20811  1.0000
  N   N177      1.0  0.88876  0.11548  0.22926  1.0000
  S   S706      1.0  0.83804  0.30567  0.19626  1.0000
  H   H2104     1.0  0.79918  0.01991  0.32757  1.0000
  H   H2105     1.0  0.93224  0.12794  0.22624  1.0000
  H   H2106     1.0  0.79900  0.03731  0.30255  1.0000
  C   C2092     1.0  0.81848  0.29555  0.08272  1.0000
  C   C2093     1.0  0.80431  0.28438  0.09165  1.0000
  H   H2107     1.0  0.97254  0.20277  0.09278  1.0000
  H   H2108     1.0  0.84465  0.17658  0.35759  1.0000
  S   S707      1.0  0.77658  0.30659  0.05261  1.0000
  H   H2109     1.0  0.75094  0.03274  0.08895  1.0000
  H   H2110     1.0  0.91446  0.10628  0.26586  1.0000
  S   S708      1.0  0.77734  0.02545  0.16020  1.0000
  C   C2094     1.0  0.92011  0.12410  0.22667  1.0000
  H   H2111     1.0  0.82068  0.30537  0.06449  1.0000
  C   C2095     1.0  0.98041  0.16010  0.03671  1.0000
  S   S709      1.0  0.95746  0.10688  0.99148  1.0000
  C   C2096     1.0  0.78321  0.17075  0.21688  1.0000
  H   H2112     1.0  0.75067  0.01584  0.29010  1.0000
  C   C2097     1.0  0.83602  0.16549  0.36421  1.0000
  S   S710      1.0  0.97949  0.20583  0.20307  1.0000
  H   H2113     1.0  0.78552  0.27651  0.33141  1.0000
  H   H2114     1.0  0.82743  0.12947  0.40876  1.0000
  H   H2115     1.0  0.76385  0.02452  0.10563  1.0000
  C   C2098     1.0  0.82162  0.06618  0.26264  1.0000
  C   C2099     1.0  0.80726  0.06970  0.26591  1.0000
  C   C2100     1.0  0.79568  0.06184  0.25516  1.0000
  H   H2116     1.0  0.82495  0.18545  0.27216  1.0000
  C   C2101     1.0  0.82423  0.05482  0.24810  1.0000
  H   H2117     1.0  0.80500  0.07836  0.27700  1.0000
  H   H2118     1.0  0.78460  0.06463  0.25807  1.0000
  H   H2119     1.0  0.83528  0.05199  0.24535  1.0000
  C   C2102     1.0  0.96707  0.16248  0.09109  1.0000
  C   C2103     1.0  0.95861  0.15281  0.07765  1.0000
  C   C2104     1.0  0.96520  0.15150  0.05041  1.0000
  H   H2120     1.0  0.96185  0.16317  0.11214  1.0000
  H   H2121     1.0  0.94690  0.14615  0.08858  1.0000
  C   C2105     1.0  0.89821  0.15189  0.25046  1.0000
  C   C2106     1.0  0.90766  0.16338  0.22623  1.0000
  C   C2107     1.0  0.92389  0.16729  0.22124  1.0000
  C   C2108     1.0  0.93087  0.15973  0.24050  1.0000
  C   C2109     1.0  0.92140  0.14853  0.26516  1.0000
  C   C2110     1.0  0.90515  0.14461  0.27014  1.0000
  H   H2122     1.0  0.90241  0.16916  0.21097  1.0000
  H   H2123     1.0  0.93100  0.17596  0.20227  1.0000
  H   H2124     1.0  0.92669  0.14268  0.28026  1.0000
  H   H2125     1.0  0.89803  0.13581  0.28895  1.0000
  N   N178      1.0  0.81438  0.13681  0.38004  1.0000
  C   C2111     1.0  0.83631  0.10612  0.45192  1.0000
  C   C2112     1.0  0.84538  0.10950  0.42385  1.0000
  C   C2113     1.0  0.86096  0.11749  0.41762  1.0000
  C   C2114     1.0  0.86745  0.12151  0.43938  1.0000
  C   C2115     1.0  0.86475  0.05337  0.02548  1.0000
  H   H2126     1.0  0.86815  0.12016  0.39625  1.0000
  H   H2127     1.0  0.87963  0.12727  0.43440  1.0000
  C   C2116     1.0  0.80306  0.12165  0.38805  1.0000
  C   C2117     1.0  0.89849  0.12734  0.20731  1.0000
  C   C2118     1.0  0.73771  0.00755  0.07616  1.0000
  C   C2119     1.0  0.89436  0.10780  0.24993  1.0000
  H   H2128     1.0  0.81486  0.03828  0.22626  1.0000
  H   H2129     1.0  0.83048  0.04119  0.01482  1.0000
  S   S711      1.0  0.75199  0.00728  0.22064  1.0000
  C   C2120     1.0  0.79903  0.01612  0.04876  1.0000
  N   N179      1.0  0.78671  0.01585  0.29716  1.0000
  C   C2121     1.0  0.79259  0.31922  0.05793  1.0000
  S   S712      1.0  0.74405  0.24089  0.40439  1.0000
  H   H2130     1.0  0.89528  0.04082  0.99619  1.0000
  C   C2122     1.0  0.76092  0.01169  0.29102  1.0000
  C   C2123     1.0  0.83691  0.04328  0.03096  1.0000
  H   H2131     1.0  0.80837  0.11202  0.39505  1.0000
  H   H2132     1.0  0.75293  0.15831  0.23974  1.0000
  S   S713      1.0  0.78265  0.04024  0.22954  1.0000
  H   H2133     1.0  0.83116  0.03409  0.05107  1.0000
  C   C2124     1.0  0.74646  0.31458  0.47012  1.0000
  H   H2134     1.0  0.84678  0.02305  0.00536  1.0000
  H   H2135     1.0  0.78552  0.31007  0.10341  1.0000
  C   C2125     1.0  0.79935  0.14886  0.23127  1.0000
  H   H2136     1.0  0.80546  0.14022  0.23780  1.0000
  C   C2126     1.0  0.74955  0.22708  0.36122  1.0000
  C   C2127     1.0  0.74614  0.22128  0.33865  1.0000
  H   H2137     1.0  0.76026  0.22645  0.36689  1.0000
  H   H2138     1.0  0.75413  0.21605  0.32723  1.0000
  Fe  Fe346     1.0  0.77067  0.30965  0.00996  1.0000
  C   C2128     1.0  0.79454  0.27103  0.19380  1.0000
  C   C2129     1.0  0.80340  0.26667  0.21236  1.0000
  C   C2130     1.0  0.81651  0.27753  0.21339  1.0000
  C   C2131     1.0  0.82098  0.29272  0.19557  1.0000
  C   C2132     1.0  0.81206  0.29711  0.17714  1.0000
  C   C2133     1.0  0.79877  0.28634  0.17651  1.0000
  H   H2139     1.0  0.80034  0.25487  0.22556  1.0000
  H   H2140     1.0  0.82344  0.27407  0.22758  1.0000
  H   H2141     1.0  0.81540  0.30880  0.16337  1.0000
  H   H2142     1.0  0.79196  0.28980  0.16210  1.0000
  C   C2134     1.0  0.80019  0.18014  0.27890  1.0000
  C   C2135     1.0  0.78646  0.16830  0.28787  1.0000
  C   C2136     1.0  0.78685  0.15272  0.29701  1.0000
  C   C2137     1.0  0.80096  0.14889  0.29679  1.0000
  C   C2138     1.0  0.81471  0.16070  0.28784  1.0000
  C   C2139     1.0  0.81429  0.17631  0.27915  1.0000
  H   H2143     1.0  0.77555  0.17115  0.28798  1.0000
  H   H2144     1.0  0.77618  0.14361  0.30413  1.0000
  H   H2145     1.0  0.82564  0.15782  0.28761  1.0000
  H   H2146     1.0  0.81942  0.16828  0.22022  1.0000
  Fe  Fe347     1.0  0.78396  0.00288  0.16137  1.0000
  H   H2147     1.0  0.86767  0.12125  0.22640  1.0000
  H   H2148     1.0  0.92190  0.14160  0.18886  1.0000
  H   H2149     1.0  0.95125  0.24522  0.10226  1.0000
  H   H2150     1.0  0.81077  0.26113  0.14826  1.0000
  H   H2151     1.0  0.83603  0.05475  0.03456  1.0000
  C   C2140     1.0  0.80718  0.16460  0.22143  1.0000
  H   H2152     1.0  0.84262  0.29252  0.14210  1.0000
  C   C2141     1.0  0.84269  0.11055  0.47349  1.0000
  H   H2153     1.0  0.88948  0.06146  0.01918  1.0000
  C   C2142     1.0  0.75869  0.02482  0.08722  1.0000
  N   N180      1.0  0.85301  0.04281  0.02122  1.0000
  H   H2154     1.0  0.80498  0.18796  0.20733  1.0000
  H   H2155     1.0  0.78665  0.26275  0.28090  1.0000
  H   H2156     1.0  0.74261  0.26237  0.26330  1.0000
  H   H2157     1.0  0.77181  0.25985  0.35708  1.0000
  H   H2158     1.0  0.97949  0.29101  0.09837  1.0000
  C   C2143     1.0  0.81544  0.99723  0.07453  1.0000
  H   H2159     1.0  0.84051  0.30310  0.09112  1.0000
  H   H2160     1.0  0.96282  0.26120  0.07338  1.0000
  C   C2144     1.0  0.82962  0.29424  0.09798  1.0000
  C   C2145     1.0  0.81312  0.27079  0.12969  1.0000
  H   H2161     1.0  0.82556  0.99594  0.03218  1.0000
  H   H2162     1.0  0.94858  0.24628  0.06694  1.0000
  H   H2163     1.0  0.88662  0.09853  0.26751  1.0000
  S   S714      1.0  0.96733  0.23596  0.14941  1.0000
  H   H2164     1.0  0.96822  0.10925  0.04477  1.0000
  H   H2165     1.0  0.78931  0.01774  0.09108  1.0000
  C   C2146     1.0  0.79909  0.17565  0.21418  1.0000
  C   C2147     1.0  0.79693  0.01272  0.07838  1.0000
  C   C2148     1.0  0.80160  0.27189  0.11527  1.0000
  C   C2149     1.0  0.91430  0.13180  0.20565  1.0000
  C   C2150     1.0  0.81266  0.04701  0.23723  1.0000
  H   H2166     1.0  0.84856  0.27830  0.12478  1.0000
  C   C2151     1.0  0.82342  0.16345  0.35232  1.0000
  Fe  Fe348     1.0  0.77704  0.02097  0.20662  1.0000
  H   H2167     1.0  0.89396  0.13372  0.19142  1.0000
  H   H2168     1.0  0.79281  0.02363  0.03876  1.0000
  N   N181      1.0  0.96865  0.23950  0.07390  1.0000
  C   C2152     1.0  0.82632  0.13892  0.39268  1.0000
  Fe  Fe349     1.0  0.75293  0.01030  0.17442  1.0000
  H   H2169     1.0  0.82212  0.17295  0.33649  1.0000
  S   S715      1.0  0.73578  0.02014  0.15362  1.0000
  Fe  Fe350     1.0  0.97675  0.21487  0.15932  1.0000
  C   C2153     1.0  0.83855  0.28120  0.13728  1.0000
  C   C2154     1.0  0.74571  0.31935  0.44195  1.0000
  C   C2155     1.0  0.85612  0.03137  0.00871  1.0000
  C   C2156     1.0  0.83743  0.15319  0.38472  1.0000
  Fe  Fe351     1.0  0.95899  0.13188  0.99285  1.0000
  C   C2157     1.0  0.74428  0.26434  0.30501  1.0000
  C   C2158     1.0  0.80503  0.00315  0.09145  1.0000
  C   C2159     1.0  0.81759  0.00066  0.04489  1.0000
  C   C2160     1.0  0.95725  0.24849  0.07928  1.0000
  H   H2170     1.0  0.77698  0.17938  0.21119  1.0000
  C   C2161     1.0  0.77543  0.99276  0.28466  1.0000
  N   N182      1.0  0.77556  0.15533  0.22699  1.0000
  C   C2162     1.0  0.78343  0.14440  0.23395  1.0000
  H   H2171     1.0  0.86232  0.06243  0.03544  1.0000
  C   C2163     1.0  0.97546  0.21506  0.08205  1.0000
  H   H2172     1.0  0.83392  0.27236  0.15809  1.0000
  C   C2164     1.0  0.75397  0.26497  0.32336  1.0000
  C   C2165     1.0  0.91011  0.11203  0.24901  1.0000
  H   H2173     1.0  0.77742  0.13216  0.24213  1.0000
  C   C2166     1.0  0.79822  0.05039  0.24085  1.0000
  C   C2167     1.0  0.88339  0.04116  0.00388  1.0000
  C   C2168     1.0  0.87135  0.03041  0.99977  1.0000
  C   C2169     1.0  0.77473  0.26316  0.28791  1.0000
  H   H2174     1.0  0.75355  0.13847  0.24262  1.0000
  H   H2175     1.0  0.84714  0.15459  0.39424  1.0000
  H   H2176     1.0  0.79538  0.28554  0.08050  1.0000
  C   C2170     1.0  0.75891  0.15062  0.22953  1.0000
  H   H2177     1.0  0.79318  0.12130  0.40546  1.0000
  C   C2171     1.0  0.96499  0.22401  0.08756  1.0000
  C   C2172     1.0  0.80935  0.01011  0.03188  1.0000
  H   H2178     1.0  0.87391  0.02165  0.98902  1.0000
  H   H2179     1.0  0.81081  0.02526  0.29129  1.0000
  C   C2173     1.0  0.76190  0.99758  0.28488  1.0000
  S   S716      1.0  0.74997  0.18420  0.19131  1.0000
  C   C2174     1.0  0.77877  0.26437  0.33462  1.0000
  H   H2180     1.0  0.96313  0.26674  0.13387  1.0000
  C   C2175     1.0  0.79952  0.02499  0.30513  1.0000
  H   H2181     1.0  0.74940  0.26590  0.34465  1.0000
  C   C2176     1.0  0.81259  0.14897  0.36071  1.0000
  H   H2182     1.0  0.79832  0.99828  0.29057  1.0000
  H   H2183     1.0  0.79875  0.11937  0.36961  1.0000
  S   S717      1.0  0.74907  0.31673  0.00400  1.0000
  C   C2177     1.0  0.75003  0.26308  0.27769  1.0000
  C   C2178     1.0  0.98233  0.17095  0.07752  1.0000
  H   H2184     1.0  0.78683  0.25687  0.33139  1.0000
  C   C2179     1.0  0.98258  0.24643  0.05451  1.0000
  N   N183      1.0  0.76885  0.26393  0.31496  1.0000
  C   C2180     1.0  0.75449  0.99644  0.09984  1.0000
  H   H2185     1.0  0.77273  0.03181  0.30143  1.0000
  C   C2181     1.0  0.88012  0.05277  0.01670  1.0000
  H   H2186     1.0  0.97193  0.12540  0.07794  1.0000
  C   C2182     1.0  0.97436  0.26683  0.12151  1.0000
  H   H2187     1.0  0.77003  0.26196  0.24754  1.0000
  H   H2188     1.0  0.98266  0.24146  0.20415  1.0000
  C   C2183     1.0  0.76541  0.26273  0.26889  1.0000
  S   S718      1.0  0.73620  0.26568  0.45742  1.0000
  C   C2184     1.0  0.85841  0.11807  0.46748  1.0000
  C   C2185     1.0  0.97964  0.11308  0.04795  1.0000
  N   N184      1.0  0.74999  0.00921  0.08805  1.0000
  C   C2186     1.0  0.73914  0.23358  0.37660  1.0000
  H   H2189     1.0  0.95402  0.21856  0.10318  1.0000
  S   S719      1.0  0.78551  0.99937  0.20686  1.0000
  H   H2190     1.0  0.76437  0.99774  0.10886  1.0000
  C   C2187     1.0  0.78781  0.00208  0.29092  1.0000
  H   H2191     1.0  0.73411  0.01766  0.06686  1.0000
  C   C2188     1.0  0.79416  0.31837  0.08563  1.0000
  H   H2192     1.0  0.97766  0.32358  0.98287  1.0000
  H   H2193     1.0  0.73736  0.16486  0.15874  1.0000
  Fe  Fe352     1.0  0.74510  0.29762  0.98158  1.0000
  H   H2194     1.0  0.98038  0.26800  0.18368  1.0000
  C   C2189     1.0  0.98185  0.12240  0.06657  1.0000
  H   H2195     1.0  0.73959  0.25144  0.98842  1.0000
  C   C2190     1.0  0.98358  0.28056  0.10145  1.0000
  Fe  Fe353     1.0  0.76263  0.20884  0.62516  1.0000
  S   S720      1.0  0.75029  0.21973  0.65596  1.0000
  S   S721      1.0  0.76077  0.21107  0.58013  1.0000
  Fe  Fe354     1.0  0.77819  0.19378  0.66739  1.0000
  S   S722      1.0  0.76691  0.20343  0.70200  1.0000
  S   S723      1.0  0.79396  0.17813  0.67602  1.0000
  H   H2196     1.0  0.94014  0.30243  0.74246  1.0000
  C   C2191     1.0  0.81828  0.00279  0.83981  1.0000
  Fe  Fe355     1.0  0.77283  0.22570  0.66774  1.0000
  S   S724      1.0  0.78000  0.25028  0.67247  1.0000
  S   S725      1.0  0.75613  0.18516  0.65566  1.0000
  S   S726      1.0  0.78569  0.21661  0.63413  1.0000
  C   C2192     1.0  0.96889  0.16570  0.79993  1.0000
  Fe  Fe356     1.0  0.83484  0.31578  0.76463  1.0000
  S   S727      1.0  0.96286  0.30354  0.82469  1.0000
  S   S728      1.0  0.80747  0.01728  0.65679  1.0000
  Fe  Fe357     1.0  0.84632  0.14469  0.57567  1.0000
  S   S729      1.0  0.87015  0.14722  0.54946  1.0000
  S   S730      1.0  0.83566  0.16508  0.57029  1.0000
  Fe  Fe358     1.0  0.84149  0.11025  0.60189  1.0000
  S   S731      1.0  0.86525  0.11026  0.57794  1.0000
  S   S732      1.0  0.82096  0.09122  0.63181  1.0000
  Fe  Fe359     1.0  0.87353  0.13296  0.58937  1.0000
  S   S733      1.0  0.89702  0.14038  0.59959  1.0000
  Fe  Fe360     1.0  0.86005  0.12472  0.53990  1.0000
  N   N185      1.0  0.92966  0.13937  0.84028  1.0000
  S   S734      1.0  0.85006  0.13177  0.61606  1.0000
  S   S735      1.0  0.83593  0.12336  0.56327  1.0000
  Fe  Fe361     1.0  0.94792  0.19135  0.68617  1.0000
  S   S736      1.0  0.92456  0.18230  0.67608  1.0000
  S   S737      1.0  0.94621  0.19516  0.73002  1.0000
  Fe  Fe362     1.0  0.96485  0.14259  0.92791  1.0000
  H   H2197     1.0  0.79635  0.15252  0.58528  1.0000
  Fe  Fe363     1.0  0.86297  0.02000  0.92806  1.0000
  S   S738      1.0  0.84170  0.02758  0.92175  1.0000
  S   S739      1.0  0.88741  0.03506  0.92400  1.0000
  C   C2193     1.0  0.96983  0.17863  0.83781  1.0000
  S   S740      1.0  0.83052  0.01399  0.85608  1.0000
  H   H2198     1.0  0.81025  0.11193  0.66690  1.0000
  H   H2199     1.0  0.80701  0.05882  0.58976  1.0000
  S   S741      1.0  0.84086  0.29312  0.77696  1.0000
  C   C2194     1.0  0.80775  0.00135  0.79848  1.0000
  S   S742      1.0  0.87079  0.30689  0.72188  1.0000
  Fe  Fe364     1.0  0.84572  0.29419  0.73055  1.0000
  S   S743      1.0  0.83869  0.27152  0.71852  1.0000
  Fe  Fe365     1.0  0.86521  0.30772  0.76734  1.0000
  S   S744      1.0  0.87881  0.30235  0.79966  1.0000
  C   C2195     1.0  0.89484  0.07568  0.94963  1.0000
  C   C2196     1.0  0.75384  0.00259  0.80037  1.0000
  H   H2200     1.0  0.82249  0.02201  0.80314  1.0000
  Fe  Fe366     1.0  0.94323  0.11022  0.95942  1.0000
  Fe  Fe367     1.0  0.97637  0.31784  0.84763  1.0000
  C   C2197     1.0  0.78813  0.14160  0.64074  1.0000
  H   H2201     1.0  0.93480  0.15684  0.80086  1.0000
  C   C2198     1.0  0.84175  0.05971  0.54807  1.0000
  H   H2202     1.0  0.93972  0.13913  0.79808  1.0000
  C   C2199     1.0  0.85053  0.31340  0.86391  1.0000
  C   C2200     1.0  0.79356  0.31447  0.87204  1.0000
  H   H2203     1.0  0.75416  0.02375  0.77075  1.0000
  H   H2204     1.0  0.81792  0.08743  0.57132  1.0000
  Fe  Fe368     1.0  0.74534  0.19660  0.68743  1.0000
  C   C2201     1.0  0.91936  0.06938  0.93844  1.0000
  C   C2202     1.0  0.91204  0.05615  0.93079  1.0000
  C   C2203     1.0  0.89604  0.05246  0.93268  1.0000
  H   H2205     1.0  0.93161  0.07184  0.93709  1.0000
  H   H2206     1.0  0.91882  0.04859  0.92359  1.0000
  N   N186      1.0  0.75944  0.26433  0.55458  1.0000
  C   C2204     1.0  0.78755  0.13723  0.66962  1.0000
  S   S745      1.0  0.96915  0.16443  0.89248  1.0000
  C   C2205     1.0  0.79699  0.14024  0.59172  1.0000
  S   S746      1.0  0.96366  0.21539  0.66541  1.0000
  C   C2206     1.0  0.90424  0.15113  0.62256  1.0000
  C   C2207     1.0  0.92031  0.15533  0.61981  1.0000
  C   C2208     1.0  0.92671  0.16442  0.63649  1.0000
  C   C2209     1.0  0.91713  0.16946  0.65636  1.0000
  C   C2210     1.0  0.90104  0.16510  0.65935  1.0000
  C   C2211     1.0  0.89463  0.15602  0.64267  1.0000
  H   H2207     1.0  0.92790  0.15163  0.60443  1.0000
  H   H2208     1.0  0.93909  0.16767  0.63372  1.0000
  H   H2209     1.0  0.89346  0.16888  0.67461  1.0000
  H   H2210     1.0  0.88227  0.15289  0.64523  1.0000
  H   H2211     1.0  0.78220  0.15024  0.63344  1.0000
  C   C2212     1.0  0.77413  0.25333  0.59534  1.0000
  S   S747      1.0  0.96415  0.11870  0.92203  1.0000
  S   S748      1.0  0.96111  0.24221  0.71402  1.0000
  H   H2212     1.0  0.74408  0.99583  0.79528  1.0000
  C   C2213     1.0  0.81157  0.03775  0.65217  1.0000
  C   C2214     1.0  0.80030  0.04486  0.66284  1.0000
  C   C2215     1.0  0.80352  0.06122  0.65684  1.0000
  C   C2216     1.0  0.81805  0.07068  0.64032  1.0000
  C   C2217     1.0  0.82951  0.06358  0.63036  1.0000
  C   C2218     1.0  0.82622  0.04719  0.63608  1.0000
  H   H2213     1.0  0.78897  0.03776  0.67518  1.0000
  H   H2214     1.0  0.79460  0.06657  0.66477  1.0000
  H   H2215     1.0  0.84079  0.07069  0.61785  1.0000
  H   H2216     1.0  0.83505  0.04180  0.62790  1.0000
  C   C2219     1.0  0.93094  0.14397  0.80974  1.0000
  C   C2220     1.0  0.89894  0.31063  0.78984  1.0000
  C   C2221     1.0  0.90765  0.30732  0.80944  1.0000
  H   H2217     1.0  0.93032  0.31144  0.81752  1.0000
  H   H2218     1.0  0.95076  0.27113  0.82019  1.0000
  S   S749      1.0  0.77939  0.00533  0.73354  1.0000
  C   C2222     1.0  0.75206  0.27063  0.53284  1.0000
  H   H2219     1.0  0.90196  0.29970  0.83036  1.0000
  H   H2220     1.0  0.77825  0.99884  0.84192  1.0000
  H   H2221     1.0  0.75182  0.26377  0.51681  1.0000
  H   H2222     1.0  0.80806  0.13971  0.57820  1.0000
  H   H2223     1.0  0.96619  0.27415  0.71570  1.0000
  H   H2224     1.0  0.85876  0.02215  0.80760  1.0000
  S   S750      1.0  0.75847  0.31327  0.93872  1.0000
  C   C2223     1.0  0.91079  0.07920  0.94818  1.0000
  H   H2225     1.0  0.81480  0.28791  0.87897  1.0000
  H   H2226     1.0  0.83548  0.10787  0.49481  1.0000
  H   H2227     1.0  0.96702  0.30653  0.95472  1.0000
  H   H2228     1.0  0.81777  0.16180  0.67181  1.0000
  H   H2229     1.0  0.78137  0.14257  0.68427  1.0000
  C   C2224     1.0  0.82315  0.26650  0.70318  1.0000
  C   C2225     1.0  0.81373  0.27648  0.69746  1.0000
  C   C2226     1.0  0.80078  0.27153  0.68726  1.0000
  C   C2227     1.0  0.79709  0.25656  0.68292  1.0000
  C   C2228     1.0  0.80669  0.24671  0.68812  1.0000
  C   C2229     1.0  0.81968  0.25170  0.69811  1.0000
  H   H2230     1.0  0.81634  0.28793  0.70111  1.0000
  H   H2231     1.0  0.79346  0.27924  0.68313  1.0000
  H   H2232     1.0  0.80401  0.23519  0.68474  1.0000
  H   H2233     1.0  0.82695  0.24393  0.70241  1.0000
  C   C2230     1.0  0.80677  0.17599  0.64640  1.0000
  C   C2231     1.0  0.80604  0.18243  0.61885  1.0000
  C   C2232     1.0  0.81539  0.17941  0.59565  1.0000
  C   C2233     1.0  0.82526  0.16968  0.59984  1.0000
  C   C2234     1.0  0.82623  0.16346  0.62733  1.0000
  C   C2235     1.0  0.81713  0.16677  0.65053  1.0000
  H   H2234     1.0  0.79812  0.18957  0.61544  1.0000
  H   H2235     1.0  0.81468  0.18436  0.57439  1.0000
  H   H2236     1.0  0.83388  0.15604  0.63079  1.0000
  H   H2237     1.0  0.80670  0.00700  0.77784  1.0000
  H   H2238     1.0  0.92409  0.11513  0.84234  1.0000
  H   H2239     1.0  0.86646  0.01763  0.83731  1.0000
  H   H2240     1.0  0.74793  0.27414  0.58530  1.0000
  S   S751      1.0  0.83784  0.31593  0.71866  1.0000
  C   C2236     1.0  0.92723  0.13029  0.89816  1.0000
  Fe  Fe369     1.0  0.78737  0.00021  0.69163  1.0000
  H   H2241     1.0  0.92787  0.26202  0.74160  1.0000
  S   S752      1.0  0.85038  0.00189  0.96896  1.0000
  C   C2237     1.0  0.93103  0.14605  0.88404  1.0000
  H   H2242     1.0  0.87760  0.01813  0.80243  1.0000
  C   C2238     1.0  0.74724  0.22038  0.56859  1.0000
  Fe  Fe370     1.0  0.82900  0.00872  0.96181  1.0000
  C   C2239     1.0  0.93122  0.29129  0.74657  1.0000
  H   H2243     1.0  0.73557  0.23198  0.50849  1.0000
  H   H2244     1.0  0.78689  0.22929  0.75125  1.0000
  C   C2240     1.0  0.81418  0.30221  0.83913  1.0000
  H   H2245     1.0  0.77689  0.03945  0.78156  1.0000
  H   H2246     1.0  0.92632  0.12671  0.92071  1.0000
  H   H2247     1.0  0.92179  0.10681  0.89406  1.0000
  H   H2248     1.0  0.96803  0.14128  0.81164  1.0000
  H   H2249     1.0  0.97567  0.23257  0.75942  1.0000
  C   C2241     1.0  0.80994  0.29677  0.86880  1.0000
  C   C2242     1.0  0.76998  0.25599  0.54848  1.0000
  C   C2243     1.0  0.85219  0.32281  0.83690  1.0000
  H   H2250     1.0  0.77010  0.24713  0.74297  1.0000
  Fe  Fe371     1.0  0.77906  0.30609  0.94977  1.0000
  H   H2251     1.0  0.86660  0.17203  0.58151  1.0000
  H   H2252     1.0  0.81078  0.11994  0.61632  1.0000
  C   C2244     1.0  0.96855  0.15175  0.81890  1.0000
  H   H2253     1.0  0.79552  0.12334  0.70138  1.0000
  H   H2254     1.0  0.88805  0.08318  0.95696  1.0000
  N   N187      1.0  0.76070  0.99565  0.81965  1.0000
  H   H2255     1.0  0.73956  0.30325  0.48314  1.0000
  C   C2245     1.0  0.81827  0.06349  0.57466  1.0000
  C   C2246     1.0  0.83823  0.30427  0.91496  1.0000
  C   C2247     1.0  0.77220  0.02721  0.79260  1.0000
  H   H2256     1.0  0.82909  0.29356  0.91745  1.0000
  C   C2248     1.0  0.83920  0.08538  0.54589  1.0000
  C   C2249     1.0  0.76347  0.26194  0.60133  1.0000
  C   C2250     1.0  0.78910  0.24030  0.75689  1.0000
  H   H2257     1.0  0.86202  0.08711  0.49685  1.0000
  H   H2258     1.0  0.85707  0.30469  0.86602  1.0000
  H   H2259     1.0  0.73978  0.27006  0.54242  1.0000
  C   C2251     1.0  0.94531  0.26897  0.80348  1.0000
  H   H2260     1.0  0.73793  0.22443  0.60876  1.0000
  H   H2261     1.0  0.77245  0.25336  0.52805  1.0000
  C   C2252     1.0  0.77891  0.02013  0.81281  1.0000
  H   H2262     1.0  0.86992  0.09148  0.52538  1.0000
  S   S753      1.0  0.79660  0.29749  0.92247  1.0000
  C   C2253     1.0  0.93636  0.25175  0.77604  1.0000
  N   N188      1.0  0.89921  0.19386  0.60844  1.0000
  C   C2254     1.0  0.90272  0.18599  0.58842  1.0000
  C   C2255     1.0  0.88425  0.19420  0.61871  1.0000
  C   C2256     1.0  0.89106  0.17798  0.57853  1.0000
  C   C2257     1.0  0.87230  0.18637  0.60917  1.0000
  C   C2258     1.0  0.87577  0.17821  0.58895  1.0000
  C   C2259     1.0  0.91154  0.20248  0.61828  1.0000
  H   H2263     1.0  0.91451  0.18541  0.58065  1.0000
  H   H2264     1.0  0.88147  0.20046  0.63453  1.0000
  H   H2265     1.0  0.89387  0.17132  0.56339  1.0000
  H   H2266     1.0  0.86041  0.18654  0.61740  1.0000
  H   H2267     1.0  0.77979  0.24898  0.61134  1.0000
  H   H2268     1.0  0.91456  0.21506  0.60735  1.0000
  H   H2269     1.0  0.90790  0.20088  0.64161  1.0000
  H   H2270     1.0  0.92212  0.19815  0.61436  1.0000
  S   S754      1.0  0.73535  0.00435  0.74144  1.0000
  C   C2260     1.0  0.79561  0.12658  0.67914  1.0000
  C   C2261     1.0  0.92598  0.12388  0.85398  1.0000
  H   H2271     1.0  0.91963  0.13974  0.80530  1.0000
  C   C2262     1.0  0.92371  0.31392  0.80219  1.0000
  S   S755      1.0  0.91917  0.09576  0.95944  1.0000
  H   H2272     1.0  0.93542  0.16271  0.84404  1.0000
  N   N189      1.0  0.85869  0.99820  0.82160  1.0000
  H   H2273     1.0  0.82228  0.29754  0.82672  1.0000
  C   C2263     1.0  0.92468  0.11910  0.88311  1.0000
  H   H2274     1.0  0.94344  0.29243  0.79015  1.0000
  S   S756      1.0  0.98059  0.14192  0.95731  1.0000
  C   C2264     1.0  0.84818  0.99345  0.80714  1.0000
  H   H2275     1.0  0.78537  0.24322  0.56423  1.0000
  H   H2276     1.0  0.97035  0.18911  0.84503  1.0000
  C   C2265     1.0  0.81666  0.00986  0.81297  1.0000
  N   N190      1.0  0.79560  0.26918  0.76868  1.0000
  C   C2266     1.0  0.80507  0.25952  0.77282  1.0000
  C   C2267     1.0  0.78311  0.26484  0.75823  1.0000
  C   C2268     1.0  0.77740  0.25028  0.56880  1.0000
  C   C2269     1.0  0.77964  0.25032  0.75230  1.0000
  H   H2277     1.0  0.84395  0.09786  0.53795  1.0000
  C   C2270     1.0  0.79955  0.28473  0.77344  1.0000
  N   N191      1.0  0.84063  0.31496  0.88710  1.0000
  H   H2278     1.0  0.77600  0.27276  0.75369  1.0000
  C   C2271     1.0  0.79983  0.30306  0.88535  1.0000
  H   H2279     1.0  0.81549  0.26330  0.77946  1.0000
  C   C2272     1.0  0.97068  0.26821  0.73209  1.0000
  H   H2280     1.0  0.78919  0.28928  0.77828  1.0000
  H   H2281     1.0  0.80477  0.28458  0.79174  1.0000
  H   H2282     1.0  0.80794  0.29295  0.75425  1.0000
  S   S757      1.0  0.96805  0.18066  0.68706  1.0000
  H   H2283     1.0  0.96800  0.14025  0.86173  1.0000
  C   C2273     1.0  0.75621  0.26744  0.58054  1.0000
  H   H2284     1.0  0.75835  0.28292  0.52181  1.0000
  Fe  Fe372     1.0  0.96348  0.21835  0.70911  1.0000
  C   C2274     1.0  0.75948  0.01844  0.78652  1.0000
  S   S758      1.0  0.85949  0.00261  0.90176  1.0000
  H   H2285     1.0  0.85997  0.32141  0.81864  1.0000
  C   C2275     1.0  0.93259  0.26405  0.75916  1.0000
  C   C2276     1.0  0.97012  0.25233  0.73548  1.0000
  C   C2277     1.0  0.96864  0.15116  0.84728  1.0000
  C   C2278     1.0  0.73599  0.23022  0.53043  1.0000
  H   H2286     1.0  0.82242  0.04097  0.57522  1.0000
  S   S759      1.0  0.86762  0.12232  0.49440  1.0000
  C   C2279     1.0  0.94136  0.28098  0.78623  1.0000
  H   H2287     1.0  0.78722  0.13249  0.58734  1.0000
  C   C2280     1.0  0.96930  0.16463  0.85686  1.0000
  C   C2281     1.0  0.96952  0.17916  0.80950  1.0000
  H   H2288     1.0  0.80981  0.23757  0.76943  1.0000
  C   C2282     1.0  0.94285  0.25430  0.79821  1.0000
  S   S760      1.0  0.94328  0.13456  0.96364  1.0000
  H   H2289     1.0  0.75415  0.21834  0.52584  1.0000
  C   C2283     1.0  0.82698  0.05347  0.56657  1.0000
  C   C2284     1.0  0.80191  0.24491  0.76720  1.0000
  H   H2290     1.0  0.93487  0.24053  0.77116  1.0000
  Fe  Fe373     1.0  0.83700  0.00872  0.89884  1.0000
  C   C2285     1.0  0.80426  0.12490  0.63113  1.0000
  Fe  Fe374     1.0  0.96714  0.18571  0.72981  1.0000
  N   N192      1.0  0.79662  0.13563  0.62186  1.0000
  C   C2286     1.0  0.74650  0.22253  0.54027  1.0000
  C   C2287     1.0  0.93212  0.15042  0.85494  1.0000
  C   C2288     1.0  0.82442  0.07955  0.56439  1.0000
  H   H2291     1.0  0.76089  0.26429  0.62202  1.0000
  H   H2292     1.0  0.93351  0.15484  0.89542  1.0000
  C   C2289     1.0  0.88752  0.06247  0.94190  1.0000
  C   C2290     1.0  0.80395  0.12028  0.65983  1.0000
  S   S761      1.0  0.96772  0.16544  0.76506  1.0000
  C   C2291     1.0  0.86581  0.01484  0.81684  1.0000
  H   H2293     1.0  0.93050  0.28928  0.72561  1.0000
  H   H2294     1.0  0.84476  0.00192  0.79257  1.0000
  H   H2295     1.0  0.86979  0.07317  0.51724  1.0000
  H   H2296     1.0  0.94645  0.24507  0.81071  1.0000
  C   C2292     1.0  0.77288  0.00427  0.82641  1.0000
  S   S762      1.0  0.96896  0.31126  0.89555  1.0000
  N   N193      1.0  0.93530  0.27848  0.76418  1.0000
  C   C2293     1.0  0.80815  0.31380  0.82578  1.0000
  N   N194      1.0  0.84770  0.07549  0.53811  1.0000
  H   H2297     1.0  0.87526  0.05994  0.94335  1.0000
  H   H2298     1.0  0.78887  0.02678  0.81766  1.0000
  C   C2294     1.0  0.97604  0.24479  0.75658  1.0000
  H   H2299     1.0  0.84847  0.05183  0.54201  1.0000
  H   H2300     1.0  0.84905  0.30104  0.91749  1.0000
  H   H2301     1.0  0.97686  0.28854  0.74768  1.0000
  C   C2295     1.0  0.86309  0.08202  0.51845  1.0000
  H   H2302     1.0  0.74368  0.24676  0.94043  1.0000
  H   H2303     1.0  0.96978  0.18998  0.79509  1.0000
  Fe  Fe375     1.0  0.97839  0.11736  0.95424  1.0000
  H   H2304     1.0  0.91991  0.29261  0.75764  1.0000
  C   C2296     1.0  0.73734  0.22585  0.58708  1.0000
  C   C2297     1.0  0.97669  0.27639  0.75018  1.0000
  H   H2305     1.0  0.89976  0.32291  0.74753  1.0000
  C   C2298     1.0  0.97340  0.31847  0.94432  1.0000
  H   H2306     1.0  0.78583  0.31946  0.88464  1.0000
  Fe  Fe376     1.0  0.75561  0.99400  0.73090  1.0000
  S   S763      1.0  0.81390  0.32139  0.78867  1.0000
  H   H2307     1.0  0.75592  0.32093  0.50368  1.0000
  C   C2299     1.0  0.98227  0.26874  0.77175  1.0000
  C   C2300     1.0  0.98214  0.25300  0.77456  1.0000
  H   H2308     1.0  0.83439  0.30963  0.93236  1.0000
  C   C2301     1.0  0.93111  0.32390  0.77530  1.0000
  C   C2302     1.0  0.90637  0.32047  0.76284  1.0000
  C   C2303     1.0  0.79764  0.31975  0.84228  1.0000
  C   C2304     1.0  0.97585  0.32409  0.91491  1.0000
  H   H2309     1.0  0.87157  0.99124  0.85096  1.0000
  Fe  Fe377     1.0  0.98373  0.20504  0.66944  1.0000
  Fe  Fe378     1.0  0.77018  0.61466  0.25402  1.0000
  S   S764      1.0  0.77401  0.59483  0.28482  1.0000
  S   S765      1.0  0.78205  0.64050  0.24611  1.0000
  H   H2310     1.0  0.93506  0.54061  0.09807  1.0000
  C   C2305     1.0  0.79220  0.36469  0.04678  1.0000
  Fe  Fe379     1.0  0.74862  0.58406  0.29224  1.0000
  S   S766      1.0  0.97095  0.64901  0.06719  1.0000
  Fe  Fe380     1.0  0.77656  0.58353  0.24866  1.0000
  S   S767      1.0  0.79509  0.57079  0.24069  1.0000
  C   C2306     1.0  0.91615  0.54806  0.12011  1.0000
  S   S768      1.0  0.77463  0.60402  0.21715  1.0000
  Fe  Fe381     1.0  0.90992  0.45647  0.27123  1.0000
  S   S769      1.0  0.90066  0.45008  0.23558  1.0000
  S   S770      1.0  0.89403  0.45652  0.31256  1.0000
  Fe  Fe382     1.0  0.94401  0.46549  0.23795  1.0000
  S   S771      1.0  0.93722  0.45921  0.19991  1.0000
  S   S772      1.0  0.97022  0.47576  0.23053  1.0000
  Fe  Fe383     1.0  0.91860  0.47161  0.20821  1.0000
  S   S773      1.0  0.91617  0.48811  0.16961  1.0000
  Fe  Fe384     1.0  0.91983  0.43809  0.22978  1.0000
  S   S774      1.0  0.91657  0.41393  0.22165  1.0000
  S   S775      1.0  0.92634  0.47926  0.24414  1.0000
  S   S776      1.0  0.92808  0.44304  0.26764  1.0000
  Fe  Fe385     1.0  0.79464  0.41148  0.44448  1.0000
  C   C2307     1.0  0.88898  0.42049  0.38880  1.0000
  S   S777      1.0  0.78281  0.43010  0.42951  1.0000
  Fe  Fe386     1.0  0.82180  0.39843  0.42487  1.0000
  H   H2311     1.0  0.88494  0.45365  0.40728  1.0000
  S   S778      1.0  0.84098  0.39762  0.38873  1.0000
  H   H2312     1.0  0.80924  0.44924  0.44590  1.0000
  S   S779      1.0  0.74442  0.60469  0.26382  1.0000
  N   N195      1.0  0.91581  0.63045  0.00854  1.0000
  S   S780      1.0  0.79705  0.39254  0.42241  1.0000
  S   S781      1.0  0.81992  0.41882  0.44295  1.0000
  Fe  Fe387     1.0  0.85131  0.53379  0.07270  1.0000
  S   S782      1.0  0.83532  0.52908  0.11591  1.0000
  S   S783      1.0  0.84880  0.51865  0.04192  1.0000
  Fe  Fe388     1.0  0.87480  0.56054  0.08306  1.0000
  S   S784      1.0  0.86029  0.55784  0.12673  1.0000
  S   S785      1.0  0.89926  0.57617  0.06444  1.0000
  Fe  Fe389     1.0  0.85690  0.53216  0.13148  1.0000
  S   S786      1.0  0.85836  0.51656  0.17205  1.0000
  Fe  Fe390     1.0  0.84024  0.55516  0.10707  1.0000
  S   S787      1.0  0.82142  0.56761  0.11515  1.0000
  S   S788      1.0  0.87256  0.53493  0.08907  1.0000
  S   S789      1.0  0.85497  0.55981  0.06252  1.0000
  Fe  Fe391     1.0  0.84852  0.32797  0.16125  1.0000
  S   S790      1.0  0.75484  0.44747  0.01774  1.0000
  Fe  Fe392     1.0  0.77772  0.46550  0.00324  1.0000
  S   S791      1.0  0.78421  0.47987  0.03351  1.0000
  S   S792      1.0  0.92583  0.63256  0.11270  1.0000
  S   S793      1.0  0.86830  0.36501  0.10084  1.0000
  S   S794      1.0  0.86599  0.38515  0.16298  1.0000
  H   H2313     1.0  0.82475  0.34857  0.02243  1.0000
  Fe  Fe393     1.0  0.79206  0.37671  0.46603  1.0000
  C   C2308     1.0  0.83077  0.50838  0.03901  1.0000
  C   C2309     1.0  0.83048  0.49782  0.02202  1.0000
  C   C2310     1.0  0.81635  0.48884  0.02031  1.0000
  C   C2311     1.0  0.80237  0.49059  0.03514  1.0000
  C   C2312     1.0  0.80268  0.50114  0.05213  1.0000
  C   C2313     1.0  0.81680  0.50998  0.05413  1.0000
  C   C2314     1.0  0.91351  0.63359  0.03452  1.0000
  H   H2314     1.0  0.81631  0.48038  0.00798  1.0000
  H   H2315     1.0  0.79192  0.50252  0.06380  1.0000
  H   H2316     1.0  0.81686  0.51801  0.06737  1.0000
  C   C2315     1.0  0.90683  0.59122  0.07913  1.0000
  C   C2316     1.0  0.92235  0.59978  0.06793  1.0000
  C   C2317     1.0  0.92852  0.61232  0.07832  1.0000
  C   C2318     1.0  0.91917  0.61632  0.10010  1.0000
  C   C2319     1.0  0.90375  0.60756  0.11161  1.0000
  C   C2320     1.0  0.89758  0.59510  0.10114  1.0000
  H   H2317     1.0  0.92960  0.59683  0.05092  1.0000
  H   H2318     1.0  0.94041  0.61899  0.06928  1.0000
  H   H2319     1.0  0.89644  0.61062  0.12840  1.0000
  H   H2320     1.0  0.88559  0.58871  0.10980  1.0000
  H   H2321     1.0  0.78808  0.37543  0.08122  1.0000
  S   S795      1.0  0.75150  0.57088  0.25900  1.0000
  C   C2321     1.0  0.76353  0.53173  0.43804  1.0000
  S   S796      1.0  0.87223  0.34261  0.15851  1.0000
  H   H2322     1.0  0.93259  0.33911  0.14473  1.0000
  N   N196      1.0  0.87664  0.41002  0.40862  1.0000
  H   H2323     1.0  0.79742  0.40523  0.99749  1.0000
  C   C2322     1.0  0.76473  0.33957  0.46530  1.0000
  H   H2324     1.0  0.96515  0.64919  0.01109  1.0000
  H   H2325     1.0  0.95705  0.63153  0.98209  1.0000
  C   C2323     1.0  0.97597  0.48657  0.27679  1.0000
  C   C2324     1.0  0.95390  0.37610  0.07352  1.0000
  H   H2326     1.0  0.96411  0.48048  0.28791  1.0000
  H   H2327     1.0  0.75856  0.53105  0.35067  1.0000
  C   C2325     1.0  0.90386  0.40696  0.20183  1.0000
  C   C2326     1.0  0.89357  0.41521  0.19310  1.0000
  C   C2327     1.0  0.88246  0.40858  0.18022  1.0000
  C   C2328     1.0  0.88157  0.39371  0.17565  1.0000
  C   C2329     1.0  0.89225  0.38568  0.18335  1.0000
  C   C2330     1.0  0.90327  0.39225  0.19655  1.0000
  H   H2328     1.0  0.89391  0.42655  0.19693  1.0000
  H   H2329     1.0  0.87429  0.41490  0.17426  1.0000
  H   H2330     1.0  0.89165  0.37419  0.18011  1.0000
  H   H2331     1.0  0.91117  0.38577  0.20327  1.0000
  C   C2331     1.0  0.89927  0.49459  0.17080  1.0000
  C   C2332     1.0  0.89733  0.50313  0.14553  1.0000
  C   C2333     1.0  0.88491  0.50998  0.14582  1.0000
  C   C2334     1.0  0.87413  0.50811  0.17133  1.0000
  C   C2335     1.0  0.87585  0.49926  0.19660  1.0000
  C   C2336     1.0  0.88844  0.49254  0.19638  1.0000
  H   H2332     1.0  0.90572  0.50479  0.12571  1.0000
  H   H2333     1.0  0.88381  0.51673  0.12629  1.0000
  H   H2334     1.0  0.86751  0.49770  0.21644  1.0000
  H   H2335     1.0  0.88990  0.48601  0.21601  1.0000
  C   C2337     1.0  0.85427  0.41450  0.36515  1.0000
  C   C2338     1.0  0.86551  0.41287  0.34290  1.0000
  C   C2339     1.0  0.87738  0.42583  0.32569  1.0000
  C   C2340     1.0  0.87808  0.44050  0.33067  1.0000
  C   C2341     1.0  0.86653  0.44222  0.35224  1.0000
  C   C2342     1.0  0.85465  0.42927  0.36941  1.0000
  H   H2336     1.0  0.86524  0.40146  0.33944  1.0000
  H   H2337     1.0  0.88630  0.42441  0.30925  1.0000
  H   H2338     1.0  0.86701  0.45356  0.35611  1.0000
  H   H2339     1.0  0.84603  0.43067  0.38637  1.0000
  C   C2343     1.0  0.94931  0.37711  0.10135  1.0000
  C   C2344     1.0  0.92863  0.52994  0.14306  1.0000
  H   H2340     1.0  0.91526  0.55560  0.10083  1.0000
  C   C2345     1.0  0.80345  0.57111  0.20542  1.0000
  C   C2346     1.0  0.79968  0.58005  0.18265  1.0000
  C   C2347     1.0  0.80580  0.57939  0.15486  1.0000
  C   C2348     1.0  0.81563  0.56973  0.14968  1.0000
  C   C2349     1.0  0.81971  0.56109  0.17235  1.0000
  C   C2350     1.0  0.81366  0.56183  0.20015  1.0000
  H   H2341     1.0  0.79178  0.58716  0.18640  1.0000
  H   H2342     1.0  0.80261  0.58608  0.13736  1.0000
  H   H2343     1.0  0.82723  0.55357  0.16856  1.0000
  H   H2344     1.0  0.81665  0.55491  0.21767  1.0000
  C   C2351     1.0  0.79134  0.64905  0.26918  1.0000
  C   C2352     1.0  0.77771  0.54344  0.19054  1.0000
  C   C2353     1.0  0.80331  0.45690  0.45629  1.0000
  C   C2354     1.0  0.76723  0.55031  0.20449  1.0000
  C   C2355     1.0  0.79832  0.64781  0.31397  1.0000
  C   C2356     1.0  0.79070  0.64058  0.29640  1.0000
  H   H2345     1.0  0.75875  0.58504  0.14915  1.0000
  H   H2346     1.0  0.75968  0.35428  0.00327  1.0000
  H   H2347     1.0  0.79759  0.64120  0.33515  1.0000
  H   H2348     1.0  0.78427  0.62847  0.30400  1.0000
  C   C2357     1.0  0.81778  0.33930  0.06780  1.0000
  H   H2349     1.0  0.88529  0.38073  0.26500  1.0000
  C   C2358     1.0  0.98158  0.48647  0.24860  1.0000
  C   C2359     1.0  0.89219  0.43631  0.38811  1.0000
  C   C2360     1.0  0.74471  0.40362  0.43665  1.0000
  H   H2350     1.0  0.77309  0.55410  0.46302  1.0000
  H   H2351     1.0  0.85018  0.41345  0.24236  1.0000
  H   H2352     1.0  0.90160  0.44466  0.37158  1.0000
  C   C2361     1.0  0.75573  0.39513  0.43323  1.0000
  Fe  Fe394     1.0  0.98190  0.33967  0.07455  1.0000
  C   C2362     1.0  0.86934  0.41140  0.26060  1.0000
  C   C2363     1.0  0.88274  0.44136  0.40799  1.0000
  Fe  Fe395     1.0  0.87679  0.34366  0.11206  1.0000
  C   C2364     1.0  0.81271  0.63267  0.19199  1.0000
  H   H2353     1.0  0.78974  0.54165  0.14989  1.0000
  H   H2354     1.0  0.76096  0.57582  0.12056  1.0000
  N   N197      1.0  0.79745  0.38149  0.99994  1.0000
  H   H2355     1.0  0.81090  0.60298  0.21678  1.0000
  C   C2365     1.0  0.87922  0.40212  0.26694  1.0000
  C   C2366     1.0  0.86381  0.36733  0.24213  1.0000
  Fe  Fe396     1.0  0.76677  0.43320  0.99300  1.0000
  H   H2356     1.0  0.90722  0.33983  0.13439  1.0000
  H   H2357     1.0  0.89617  0.41673  0.37283  1.0000
  H   H2358     1.0  0.80291  0.33052  0.01374  1.0000
  C   C2367     1.0  0.90821  0.37864  0.10707  1.0000
  N   N198      1.0  0.85029  0.48842  0.10310  1.0000
  C   C2368     1.0  0.83837  0.48416  0.09127  1.0000
  C   C2369     1.0  0.84739  0.49075  0.12967  1.0000
  C   C2370     1.0  0.82307  0.48222  0.10604  1.0000
  C   C2371     1.0  0.83226  0.48895  0.14506  1.0000
  C   C2372     1.0  0.82003  0.48472  0.13307  1.0000
  C   C2373     1.0  0.86626  0.49135  0.08643  1.0000
  H   H2359     1.0  0.84071  0.48268  0.06993  1.0000
  H   H2360     1.0  0.85678  0.49415  0.13905  1.0000
  H   H2361     1.0  0.81370  0.47920  0.09622  1.0000
  H   H2362     1.0  0.83016  0.49118  0.16589  1.0000
  H   H2363     1.0  0.80825  0.48355  0.14454  1.0000
  H   H2364     1.0  0.86951  0.50274  0.07029  1.0000
  H   H2365     1.0  0.87454  0.49165  0.09998  1.0000
  H   H2366     1.0  0.86746  0.48207  0.07540  1.0000
  H   H2367     1.0  0.75556  0.55606  0.32387  1.0000
  C   C2374     1.0  0.76670  0.43361  0.45105  1.0000
  H   H2368     1.0  0.79076  0.35324  0.06052  1.0000
  H   H2369     1.0  0.86268  0.43445  0.44356  1.0000
  C   C2375     1.0  0.76430  0.34419  0.43692  1.0000
  C   C2376     1.0  0.75471  0.33424  0.42552  1.0000
  C   C2377     1.0  0.93197  0.65640  0.98696  1.0000
  N   N199      1.0  0.86597  0.38270  0.24789  1.0000
  H   H2370     1.0  0.81453  0.59247  0.26400  1.0000
  H   H2371     1.0  0.90109  0.36651  0.11699  1.0000
  H   H2372     1.0  0.77728  0.55904  0.12291  1.0000
  H   H2373     1.0  0.79113  0.40155  0.04929  1.0000
  H   H2374     1.0  0.96524  0.37439  0.06560  1.0000
  C   C2378     1.0  0.75248  0.37989  0.45006  1.0000
  H   H2375     1.0  0.85546  0.35842  0.26049  1.0000
  N   N200      1.0  0.76386  0.56312  0.15974  1.0000
  C   C2379     1.0  0.77412  0.55642  0.14588  1.0000
  C   C2380     1.0  0.78113  0.54643  0.16106  1.0000
  C   C2381     1.0  0.75653  0.57362  0.14385  1.0000
  H   H2376     1.0  0.82022  0.64882  0.22803  1.0000
  S   S797      1.0  0.81713  0.38141  0.46756  1.0000
  C   C2382     1.0  0.87730  0.38767  0.26058  1.0000
  C   C2383     1.0  0.90933  0.61475  0.00625  1.0000
  H   H2377     1.0  0.76755  0.45446  0.42012  1.0000
  H   H2378     1.0  0.74382  0.56854  0.14961  1.0000
  C   C2384     1.0  0.81398  0.61092  0.22939  1.0000
  C   C2385     1.0  0.86731  0.41487  0.42825  1.0000
  H   H2379     1.0  0.84738  0.38789  0.23112  1.0000
  H   H2380     1.0  0.77543  0.53373  0.44096  1.0000
  C   C2386     1.0  0.94156  0.33799  0.07578  1.0000
  C   C2387     1.0  0.91672  0.33925  0.11807  1.0000
  H   H2381     1.0  0.88866  0.40630  0.27584  1.0000
  H   H2382     1.0  0.75431  0.33807  0.40371  1.0000
  C   C2388     1.0  0.91865  0.52874  0.16905  1.0000
  C   C2389     1.0  0.76289  0.39337  0.99344  1.0000
  N   N201      1.0  0.92418  0.37847  0.09509  1.0000
  C   C2390     1.0  0.92853  0.37723  0.06790  1.0000
  C   C2391     1.0  0.93430  0.37828  0.11188  1.0000
  C   C2392     1.0  0.94349  0.37620  0.05661  1.0000
  H   H2383     1.0  0.92585  0.33850  0.04890  1.0000
  H   H2384     1.0  0.81232  0.62404  0.17913  1.0000
  H   H2385     1.0  0.90754  0.38539  0.12328  1.0000
  H   H2386     1.0  0.92020  0.37634  0.05521  1.0000
  H   H2387     1.0  0.76681  0.40044  0.41784  1.0000
  H   H2388     1.0  0.91807  0.60787  0.00708  1.0000
  S   S798      1.0  0.79007  0.45032  0.98203  1.0000
  H   H2389     1.0  0.90628  0.62476  0.05326  1.0000
  C   C2393     1.0  0.87022  0.43060  0.42825  1.0000
  H   H2390     1.0  0.93066  0.37856  0.13382  1.0000
  H   H2391     1.0  0.98144  0.49378  0.31298  1.0000
  H   H2392     1.0  0.84125  0.49638  0.01050  1.0000
  H   H2393     1.0  0.81209  0.46685  0.45796  1.0000
  H   H2394     1.0  0.95114  0.33774  0.05926  1.0000
  H   H2395     1.0  0.86191  0.38682  0.42206  1.0000
  C   C2394     1.0  0.96697  0.65375  0.98854  1.0000
  S   S799      1.0  0.96198  0.34024  0.10934  1.0000
  H   H2396     1.0  0.85737  0.40662  0.44364  1.0000
  C   C2395     1.0  0.81935  0.63650  0.23558  1.0000
  H   H2397     1.0  0.74522  0.46036  0.44950  1.0000
  C   C2396     1.0  0.87373  0.39348  0.40909  1.0000
  Fe  Fe397     1.0  0.94904  0.65050  0.09528  1.0000
  H   H2398     1.0  0.75838  0.51893  0.44426  1.0000
  H   H2399     1.0  0.76119  0.37343  0.44756  1.0000
  H   H2400     1.0  0.76488  0.54843  0.22732  1.0000
  H   H2401     1.0  0.77125  0.35546  0.42374  1.0000
  H   H2402     1.0  0.94671  0.37462  0.03543  1.0000
  C   C2397     1.0  0.92723  0.33844  0.06996  1.0000
  H   H2403     1.0  0.85940  0.36730  0.22291  1.0000
  Fe  Fe398     1.0  0.86212  0.36298  0.14763  1.0000
  S   S800      1.0  0.76354  0.40746  0.01320  1.0000
  C   C2398     1.0  0.93107  0.33881  0.12389  1.0000
  C   C2399     1.0  0.81627  0.34005  0.04011  1.0000
  N   N202      1.0  0.73854  0.37323  0.46950  1.0000
  H   H2404     1.0  0.79668  0.35732  0.00843  1.0000
  C   C2400     1.0  0.81606  0.60491  0.25614  1.0000
  C   C2401     1.0  0.85620  0.39172  0.24162  1.0000
  H   H2405     1.0  0.80773  0.32769  0.11201  1.0000
  C   C2402     1.0  0.74894  0.45010  0.45744  1.0000
  C   C2403     1.0  0.92497  0.64161  0.98492  1.0000
  S   S801      1.0  0.83791  0.34825  0.15389  1.0000
  H   H2406     1.0  0.75902  0.37436  0.03027  1.0000
  C   C2404     1.0  0.92745  0.53971  0.11841  1.0000
  H   H2407     1.0  0.78359  0.53628  0.20246  1.0000
  H   H2408     1.0  0.82123  0.61044  0.29372  1.0000
  S   S802      1.0  0.83258  0.35339  0.07310  1.0000
  C   C2405     1.0  0.82155  0.63090  0.26240  1.0000
  C   C2406     1.0  0.76116  0.36629  0.99224  1.0000
  C   C2407     1.0  0.76075  0.37767  0.00750  1.0000
  H   H2409     1.0  0.93691  0.52291  0.14205  1.0000
  Fe  Fe399     1.0  0.84508  0.34854  0.10778  1.0000
  H   H2410     1.0  0.74723  0.41554  0.42398  1.0000
  H   H2411     1.0  0.89280  0.56004  0.12603  1.0000
  N   N203      1.0  0.81562  0.62654  0.21946  1.0000
  C   C2408     1.0  0.85775  0.40621  0.24783  1.0000
  N   N204      1.0  0.90620  0.54652  0.14565  1.0000
  C   C2409     1.0  0.80678  0.32827  0.09056  1.0000
  C   C2410     1.0  0.73520  0.55569  0.35480  1.0000
  C   C2411     1.0  0.76031  0.56013  0.18866  1.0000
  C   C2412     1.0  0.89439  0.55526  0.14732  1.0000
  C   C2413     1.0  0.90737  0.53709  0.16995  1.0000
  H   H2412     1.0  0.76418  0.53616  0.41518  1.0000
  Fe  Fe400     1.0  0.74918  0.59216  0.22982  1.0000
  H   H2413     1.0  0.88304  0.54754  0.16062  1.0000
  H   H2414     1.0  0.89782  0.56516  0.15650  1.0000
  H   H2415     1.0  0.91916  0.52075  0.18814  1.0000
  C   C2414     1.0  0.81982  0.61498  0.27276  1.0000
  H   H2416     1.0  0.87494  0.36402  0.23784  1.0000
  C   C2415     1.0  0.79263  0.39182  0.04054  1.0000
  H   H2417     1.0  0.75228  0.56558  0.19954  1.0000
  C   C2416     1.0  0.94360  0.33848  0.10262  1.0000
  H   H2418     1.0  0.82197  0.64326  0.17952  1.0000
  C   C2417     1.0  0.79619  0.39383  0.01117  1.0000
  H   H2419     1.0  0.89928  0.53565  0.19009  1.0000
  C   C2418     1.0  0.76162  0.44676  0.44088  1.0000
  H   H2420     1.0  0.81202  0.51838  0.98324  1.0000
  C   C2419     1.0  0.73845  0.52725  0.38501  1.0000
  C   C2420     1.0  0.79561  0.36708  0.01731  1.0000
  H   H2421     1.0  0.90309  0.38406  0.09040  1.0000
  H   H2422     1.0  0.88233  0.38833  0.41783  1.0000
  C   C2421     1.0  0.74742  0.54976  0.34398  1.0000
  C   C2422     1.0  0.79073  0.37716  0.05840  1.0000
  C   C2423     1.0  0.74909  0.53561  0.35917  1.0000
  C   C2424     1.0  0.73830  0.53525  0.45882  1.0000
  H   H2423     1.0  0.89891  0.60843  0.02392  1.0000
  H   H2424     1.0  0.95710  0.37622  0.11503  1.0000
  H   H2425     1.0  0.79634  0.46124  0.44202  1.0000
  H   H2426     1.0  0.87084  0.42271  0.26517  1.0000
  H   H2427     1.0  0.73586  0.34919  0.47190  1.0000
  N   N205      1.0  0.75398  0.53938  0.45492  1.0000
  C   C2425     1.0  0.91488  0.33938  0.09088  1.0000
  H   H2428     1.0  0.91931  0.65027  0.05834  1.0000
  H   H2429     1.0  0.87435  0.39205  0.38733  1.0000
  S   S803      1.0  0.89798  0.34227  0.08122  1.0000
  C   C2426     1.0  0.80384  0.32994  0.03516  1.0000
  H   H2430     1.0  0.80142  0.63574  0.19544  1.0000
  C   C2427     1.0  0.92073  0.64808  0.03747  1.0000
  C   C2428     1.0  0.76068  0.55087  0.46584  1.0000
  S   S804      1.0  0.74057  0.50923  0.40273  1.0000
  H   H2431     1.0  0.98059  0.52381  0.25795  1.0000
  H   H2432     1.0  0.82421  0.63884  0.27531  1.0000
  S   S805      1.0  0.73694  0.59143  0.19446  1.0000
  S   S806      1.0  0.85406  0.32732  0.11568  1.0000
  H   H2433     1.0  0.90589  0.61517  0.98605  1.0000
  C   C2429     1.0  0.75885  0.42363  0.47777  1.0000
  S   S807      1.0  0.98062  0.32439  0.04439  1.0000
  Fe  Fe401     1.0  0.77782  0.60156  0.60161  1.0000
  S   S808      1.0  0.76439  0.59352  0.64730  1.0000
  S   S809      1.0  0.79169  0.62687  0.58067  1.0000
  Fe  Fe402     1.0  0.76479  0.56961  0.59018  1.0000
  S   S810      1.0  0.75085  0.55956  0.63531  1.0000
  S   S811      1.0  0.76521  0.55441  0.55873  1.0000
  Fe  Fe403     1.0  0.74474  0.58243  0.63139  1.0000
  Fe  Fe404     1.0  0.77188  0.57143  0.64700  1.0000
  S   S812      1.0  0.77807  0.55821  0.68510  1.0000
  S   S813      1.0  0.75748  0.59197  0.58541  1.0000
  S   S814      1.0  0.78655  0.57998  0.60206  1.0000
  S   S815      1.0  0.82035  0.40901  0.52366  1.0000
  Fe  Fe405     1.0  0.89202  0.44729  0.58335  1.0000
  S   S816      1.0  0.87522  0.44675  0.62343  1.0000
  S   S817      1.0  0.88534  0.43757  0.54717  1.0000
  Fe  Fe406     1.0  0.92048  0.46159  0.60440  1.0000
  S   S818      1.0  0.90543  0.46137  0.64601  1.0000
  S   S819      1.0  0.94674  0.47186  0.59129  1.0000
  Fe  Fe407     1.0  0.89206  0.43776  0.64532  1.0000
  S   S820      1.0  0.88259  0.41800  0.68512  1.0000
  Fe  Fe408     1.0  0.89016  0.47034  0.62026  1.0000
  S   S821      1.0  0.88181  0.49159  0.62545  1.0000
  S   S822      1.0  0.90829  0.43705  0.60561  1.0000
  S   S823      1.0  0.90580  0.47181  0.57821  1.0000
  Fe  Fe409     1.0  0.88135  0.56049  0.75739  1.0000
  S   S824      1.0  0.85854  0.56659  0.76381  1.0000
  S   S825      1.0  0.90472  0.57702  0.75140  1.0000
  Fe  Fe410     1.0  0.86724  0.52813  0.75155  1.0000
  S   S826      1.0  0.84323  0.53149  0.75781  1.0000
  S   S827      1.0  0.87193  0.50536  0.74606  1.0000
  Fe  Fe411     1.0  0.85471  0.55532  0.72892  1.0000
  S   S828      1.0  0.84804  0.56685  0.69014  1.0000
  Fe  Fe412     1.0  0.84896  0.54222  0.79229  1.0000
  S   S829      1.0  0.83168  0.53797  0.83424  1.0000
  S   S830      1.0  0.87835  0.55113  0.72002  1.0000
  S   S831      1.0  0.87213  0.53695  0.78861  1.0000
  Fe  Fe413     1.0  0.78304  0.46116  0.94336  1.0000
  H   H2434     1.0  0.84348  0.59885  0.69223  1.0000
  S   S832      1.0  0.80021  0.46747  0.90066  1.0000
  H   H2435     1.0  0.79143  0.41830  0.53949  1.0000
  H   H2436     1.0  0.81808  0.64080  0.65253  1.0000
  H   H2437     1.0  0.91094  0.35494  0.73399  1.0000
  C   C2430     1.0  0.73415  0.54424  0.55984  1.0000
  S   S833      1.0  0.91872  0.61693  0.83757  1.0000
  H   H2438     1.0  0.92814  0.33467  0.73470  1.0000
  S   S834      1.0  0.87587  0.34872  0.67554  1.0000
  C   C2431     1.0  0.81547  0.49424  0.95008  1.0000
  C   C2432     1.0  0.76532  0.38613  0.94880  1.0000
  C   C2433     1.0  0.80612  0.51491  0.96727  1.0000
  Fe  Fe414     1.0  0.86247  0.32868  0.71359  1.0000
  S   S835      1.0  0.76401  0.35662  0.94272  1.0000
  C   C2434     1.0  0.75151  0.53067  0.53849  1.0000
  C   C2435     1.0  0.76349  0.37050  0.96278  1.0000
  Fe  Fe415     1.0  0.96750  0.32605  0.79173  1.0000
  H   H2439     1.0  0.89963  0.60867  0.73233  1.0000
  H   H2440     1.0  0.97841  0.48989  0.57284  1.0000
  S   S836      1.0  0.77244  0.47757  0.96365  1.0000
  C   C2436     1.0  0.80141  0.38384  0.96909  1.0000
  Fe  Fe416     1.0  0.76413  0.33171  0.96190  1.0000
  Fe  Fe417     1.0  0.94271  0.63095  0.83551  1.0000
  H   H2441     1.0  0.80238  0.52489  0.95630  1.0000
  Fe  Fe418     1.0  0.81361  0.40161  0.48557  1.0000
  H   H2442     1.0  0.92724  0.63902  0.96440  1.0000
  C   C2437     1.0  0.86120  0.60628  0.74265  1.0000
  C   C2438     1.0  0.73913  0.52094  0.53250  1.0000
  H   H2443     1.0  0.76709  0.38947  0.92602  1.0000
  H   H2444     1.0  0.87756  0.42562  0.50152  1.0000
  C   C2439     1.0  0.82186  0.51833  0.85072  1.0000
  C   C2440     1.0  0.80924  0.51463  0.87447  1.0000
  C   C2441     1.0  0.80212  0.49902  0.88945  1.0000
  C   C2442     1.0  0.80762  0.48705  0.88073  1.0000
  C   C2443     1.0  0.81994  0.49076  0.85647  1.0000
  C   C2444     1.0  0.82706  0.50635  0.84150  1.0000
  H   H2445     1.0  0.80512  0.52387  0.88155  1.0000
  H   H2446     1.0  0.79255  0.49629  0.90792  1.0000
  H   H2447     1.0  0.82423  0.48155  0.84959  1.0000
  H   H2448     1.0  0.83680  0.50910  0.82323  1.0000
  C   C2445     1.0  0.90804  0.58900  0.77428  1.0000
  C   C2446     1.0  0.89641  0.58861  0.79760  1.0000
  C   C2447     1.0  0.89971  0.59778  0.81618  1.0000
  C   C2448     1.0  0.91467  0.60723  0.81174  1.0000
  C   C2449     1.0  0.92615  0.60800  0.78788  1.0000
  C   C2450     1.0  0.92279  0.59899  0.76909  1.0000
  H   H2449     1.0  0.88496  0.58106  0.80160  1.0000
  H   H2450     1.0  0.89075  0.59722  0.83455  1.0000
  H   H2451     1.0  0.93768  0.61531  0.78419  1.0000
  H   H2452     1.0  0.93179  0.59947  0.75085  1.0000
  C   C2451     1.0  0.95855  0.48259  0.60881  1.0000
  C   C2452     1.0  0.95297  0.48361  0.63646  1.0000
  C   C2453     1.0  0.96258  0.49273  0.64905  1.0000
  C   C2454     1.0  0.97392  0.49064  0.59418  1.0000
  H   H2453     1.0  0.94123  0.47743  0.64814  1.0000
  H   H2454     1.0  0.95807  0.49351  0.67035  1.0000
  C   C2455     1.0  0.88057  0.39882  0.68198  1.0000
  C   C2456     1.0  0.87195  0.38640  0.70531  1.0000
  C   C2457     1.0  0.87030  0.37096  0.70353  1.0000
  C   C2458     1.0  0.87748  0.36788  0.67852  1.0000
  C   C2459     1.0  0.88614  0.38029  0.65523  1.0000
  C   C2460     1.0  0.88761  0.39573  0.65689  1.0000
  H   H2455     1.0  0.86644  0.38874  0.72476  1.0000
  H   H2456     1.0  0.86343  0.36147  0.72145  1.0000
  H   H2457     1.0  0.89172  0.37796  0.63583  1.0000
  H   H2458     1.0  0.89433  0.40521  0.63886  1.0000
  C   C2461     1.0  0.88074  0.49593  0.65845  1.0000
  C   C2462     1.0  0.88086  0.48475  0.68229  1.0000
  C   C2463     1.0  0.87867  0.48800  0.70892  1.0000
  C   C2464     1.0  0.87636  0.50243  0.71187  1.0000
  C   C2465     1.0  0.87676  0.51381  0.68786  1.0000
  C   C2466     1.0  0.87895  0.51056  0.66120  1.0000
  H   H2459     1.0  0.88209  0.47339  0.68047  1.0000
  H   H2460     1.0  0.87836  0.47915  0.72745  1.0000
  H   H2461     1.0  0.87502  0.52498  0.68993  1.0000
  H   H2462     1.0  0.87892  0.51927  0.64278  1.0000
  C   C2467     1.0  0.83858  0.41722  0.52940  1.0000
  C   C2468     1.0  0.83889  0.42249  0.55396  1.0000
  C   C2469     1.0  0.85302  0.42898  0.55954  1.0000
  C   C2470     1.0  0.86709  0.43018  0.54069  1.0000
  H   H2463     1.0  0.82812  0.42159  0.56876  1.0000
  H   H2464     1.0  0.85300  0.43309  0.57839  1.0000
  H   H2465     1.0  0.76735  0.42554  0.55898  1.0000
  C   C2471     1.0  0.93065  0.57042  0.80950  1.0000
  H   H2466     1.0  0.85160  0.60756  0.75800  1.0000
  C   C2472     1.0  0.81445  0.64512  0.63373  1.0000
  C   C2473     1.0  0.82773  0.52062  0.92532  1.0000
  H   H2467     1.0  0.74053  0.52715  0.62722  1.0000
  H   H2468     1.0  0.85260  0.41423  0.49184  1.0000
  H   H2469     1.0  0.82426  0.47685  0.93304  1.0000
  Fe  Fe419     1.0  0.96051  0.64223  0.87627  1.0000
  C   C2474     1.0  0.74910  0.54229  0.55236  1.0000
  C   C2475     1.0  0.91267  0.57039  0.85343  1.0000
  C   C2476     1.0  0.92240  0.32711  0.75565  1.0000
  S   S837      1.0  0.95638  0.62001  0.86261  1.0000
  H   H2470     1.0  0.86901  0.59557  0.68184  1.0000
  H   H2471     1.0  0.81368  0.65153  0.50361  1.0000
  C   C2477     1.0  0.79756  0.56094  0.68639  1.0000
  C   C2478     1.0  0.80960  0.57038  0.66341  1.0000
  C   C2479     1.0  0.82503  0.57209  0.66488  1.0000
  C   C2480     1.0  0.82851  0.56446  0.68937  1.0000
  C   C2481     1.0  0.81649  0.55515  0.71250  1.0000
  C   C2482     1.0  0.80106  0.55334  0.71093  1.0000
  H   H2472     1.0  0.80702  0.57629  0.64445  1.0000
  H   H2473     1.0  0.83428  0.57932  0.64691  1.0000
  H   H2474     1.0  0.81904  0.54932  0.73157  1.0000
  H   H2475     1.0  0.79177  0.54607  0.72881  1.0000
  C   C2483     1.0  0.80104  0.63983  0.59788  1.0000
  C   C2484     1.0  0.80562  0.63448  0.62247  1.0000
  H   H2476     1.0  0.80264  0.62212  0.63245  1.0000
  H   H2477     1.0  0.93061  0.49713  0.58592  1.0000
  H   H2478     1.0  0.84117  0.64646  0.56337  1.0000
  C   C2485     1.0  0.74603  0.42687  0.49419  1.0000
  C   C2486     1.0  0.83795  0.51599  0.90584  1.0000
  C   C2487     1.0  0.82559  0.48920  0.93115  1.0000
  C   C2488     1.0  0.83683  0.50016  0.90880  1.0000
  C   C2489     1.0  0.96416  0.64958  0.94289  1.0000
  C   C2490     1.0  0.96241  0.64376  0.97205  1.0000
  C   C2491     1.0  0.82728  0.64715  0.53349  1.0000
  H   H2479     1.0  0.93529  0.52086  0.68430  1.0000
  H   H2480     1.0  0.84425  0.49638  0.89319  1.0000
  C   C2492     1.0  0.93949  0.58610  0.83849  1.0000
  Fe  Fe420     1.0  0.97721  0.63201  0.82642  1.0000
  H   H2481     1.0  0.74116  0.51195  0.52213  1.0000
  H   H2482     1.0  0.93727  0.59050  0.85713  1.0000
  N   N206      1.0  0.86423  0.39203  0.60655  1.0000
  C   C2493     1.0  0.86282  0.40470  0.61663  1.0000
  C   C2494     1.0  0.85708  0.37729  0.62331  1.0000
  C   C2495     1.0  0.85436  0.40279  0.64440  1.0000
  C   C2496     1.0  0.84852  0.37495  0.65118  1.0000
  C   C2497     1.0  0.84721  0.38781  0.66175  1.0000
  C   C2498     1.0  0.87293  0.39435  0.57722  1.0000
  H   H2483     1.0  0.86850  0.41637  0.60333  1.0000
  H   H2484     1.0  0.85824  0.36720  0.61546  1.0000
  H   H2485     1.0  0.90973  0.57992  0.86259  1.0000
  H   H2486     1.0  0.84338  0.36323  0.66474  1.0000
  H   H2487     1.0  0.89153  0.35700  0.73536  1.0000
  H   H2488     1.0  0.86538  0.39641  0.56270  1.0000
  H   H2489     1.0  0.88310  0.40461  0.57091  1.0000
  H   H2490     1.0  0.87740  0.38413  0.57446  1.0000
  C   C2499     1.0  0.95423  0.59126  0.81976  1.0000
  S   S838      1.0  0.96317  0.64108  0.79799  1.0000
  C   C2500     1.0  0.84344  0.33366  0.83358  1.0000
  S   S839      1.0  0.97897  0.34076  0.81679  1.0000
  C   C2501     1.0  0.76513  0.39754  0.96401  1.0000
  N   N207      1.0  0.83791  0.51097  0.69030  1.0000
  C   C2502     1.0  0.83766  0.50074  0.71488  1.0000
  C   C2503     1.0  0.84068  0.50701  0.66508  1.0000
  C   C2504     1.0  0.83988  0.48598  0.71472  1.0000
  C   C2505     1.0  0.84295  0.49234  0.66414  1.0000
  C   C2506     1.0  0.84254  0.48178  0.68916  1.0000
  C   C2507     1.0  0.83635  0.52665  0.69078  1.0000
  H   H2491     1.0  0.83620  0.50408  0.73470  1.0000
  H   H2492     1.0  0.84152  0.51533  0.64542  1.0000
  H   H2493     1.0  0.84025  0.47816  0.73412  1.0000
  H   H2494     1.0  0.84574  0.48943  0.64399  1.0000
  H   H2495     1.0  0.84494  0.47063  0.68852  1.0000
  H   H2496     1.0  0.82759  0.52634  0.71008  1.0000
  H   H2497     1.0  0.84763  0.53418  0.69051  1.0000
  H   H2498     1.0  0.83251  0.53217  0.67228  1.0000
  N   N208      1.0  0.93755  0.51206  0.61125  1.0000
  C   C2508     1.0  0.95048  0.52030  0.61651  1.0000
  C   C2509     1.0  0.92373  0.50736  0.63135  1.0000
  C   C2510     1.0  0.94987  0.52358  0.64284  1.0000
  C   C2511     1.0  0.92267  0.51052  0.65786  1.0000
  C   C2512     1.0  0.93587  0.51860  0.66364  1.0000
  H   H2499     1.0  0.84625  0.52459  0.88787  1.0000
  H   H2500     1.0  0.96151  0.52383  0.60078  1.0000
  H   H2501     1.0  0.91346  0.50098  0.62704  1.0000
  C   C2513     1.0  0.77478  0.43206  0.53825  1.0000
  H   H2502     1.0  0.91172  0.50661  0.67386  1.0000
  H   H2503     1.0  0.75688  0.56719  0.49082  1.0000
  H   H2504     1.0  0.76030  0.44765  0.53031  1.0000
  H   H2505     1.0  0.80654  0.48563  0.96698  1.0000
  H   H2506     1.0  0.96338  0.59943  0.82396  1.0000
  N   N209      1.0  0.92790  0.57591  0.83309  1.0000
  H   H2507     1.0  0.83702  0.60704  0.72078  1.0000
  C   C2514     1.0  0.92226  0.40548  0.67278  1.0000
  C   C2515     1.0  0.83788  0.65393  0.54691  1.0000
  H   H2508     1.0  0.74000  0.41915  0.51489  1.0000
  H   H2509     1.0  0.94723  0.57137  0.77116  1.0000
  H   H2510     1.0  0.85376  0.41285  0.65268  1.0000
  C   C2516     1.0  0.86677  0.42485  0.51618  1.0000
  H   H2511     1.0  0.84103  0.38616  0.68360  1.0000
  C   C2517     1.0  0.97782  0.50113  0.63413  1.0000
  H   H2512     1.0  0.95015  0.50826  0.57333  1.0000
  H   H2513     1.0  0.82244  0.63462  0.53955  1.0000
  H   H2514     1.0  0.92686  0.41750  0.66031  1.0000
  H   H2515     1.0  0.91095  0.41144  0.70978  1.0000
  H   H2516     1.0  0.92042  0.36853  0.66767  1.0000
  H   H2517     1.0  0.93477  0.51775  0.56945  1.0000
  S   S840      1.0  0.98261  0.65345  0.84196  1.0000
  S   S841      1.0  0.77521  0.35225  0.48201  1.0000
  C   C2518     1.0  0.87087  0.59952  0.70023  1.0000
  H   H2518     1.0  0.91262  0.56051  0.87083  1.0000
  H   H2519     1.0  0.96034  0.52946  0.64734  1.0000
  C   C2519     1.0  0.73561  0.55437  0.48525  1.0000
  C   C2520     1.0  0.84325  0.59845  0.71477  1.0000
  N   N210      1.0  0.81657  0.50977  0.94691  1.0000
  C   C2521     1.0  0.93832  0.50874  0.58356  1.0000
  C   C2522     1.0  0.77089  0.44453  0.52229  1.0000
  S   S842      1.0  0.85879  0.33047  0.75850  1.0000
  H   H2520     1.0  0.90344  0.56660  0.84300  1.0000
  S   S843      1.0  0.78802  0.39546  0.48806  1.0000
  H   H2521     1.0  0.76259  0.41342  0.48575  1.0000
  H   H2522     1.0  0.96845  0.59004  0.78067  1.0000
  H   H2523     1.0  0.76304  0.52913  0.53247  1.0000
  H   H2524     1.0  0.87773  0.61229  0.76669  1.0000
  H   H2525     1.0  0.82854  0.53294  0.92261  1.0000
  C   C2523     1.0  0.75577  0.32467  0.48172  1.0000
  C   C2524     1.0  0.97939  0.32811  0.96030  1.0000
  H   H2526     1.0  0.83663  0.58655  0.72777  1.0000
  C   C2525     1.0  0.90306  0.35849  0.72107  1.0000
  C   C2526     1.0  0.82226  0.65668  0.51347  1.0000
  S   S844      1.0  0.78598  0.32585  0.96908  1.0000
  C   C2527     1.0  0.85264  0.41843  0.51053  1.0000
  H   H2527     1.0  0.82610  0.34315  0.85485  1.0000
  S   S845      1.0  0.95630  0.63689  0.92416  1.0000
  H   H2528     1.0  0.76683  0.40958  0.95293  1.0000
  H   H2529     1.0  0.90127  0.35047  0.70726  1.0000
  C   C2528     1.0  0.78821  0.42794  0.52729  1.0000
  H   H2530     1.0  0.89508  0.59973  0.69034  1.0000
  H   H2531     1.0  0.73540  0.50547  0.60445  1.0000
  H   H2532     1.0  0.82371  0.32640  0.90226  1.0000
  C   C2529     1.0  0.88820  0.60684  0.72853  1.0000
  H   H2533     1.0  0.74414  0.35590  0.49847  1.0000
  S   S846      1.0  0.76056  0.44298  0.95280  1.0000
  C   C2530     1.0  0.92491  0.39335  0.66094  1.0000
  C   C2531     1.0  0.83336  0.33516  0.85731  1.0000
  H   H2534     1.0  0.90011  0.38401  0.73773  1.0000
  C   C2532     1.0  0.94524  0.57543  0.79021  1.0000
  H   H2535     1.0  0.79290  0.32871  0.83204  1.0000
  C   C2533     1.0  0.88568  0.60195  0.70479  1.0000
  N   N211      1.0  0.85889  0.60180  0.71896  1.0000
  C   C2534     1.0  0.91340  0.40209  0.70064  1.0000
  H   H2536     1.0  0.84413  0.34057  0.81258  1.0000
  C   C2535     1.0  0.95708  0.58594  0.79544  1.0000
  C   C2536     1.0  0.87591  0.60894  0.74773  1.0000
  C   C2537     1.0  0.90718  0.38654  0.71623  1.0000
  S   S847      1.0  0.95121  0.33235  0.76497  1.0000
  H   H2537     1.0  0.92143  0.56248  0.80497  1.0000
  H   H2538     1.0  0.81414  0.38662  0.96074  1.0000
  H   H2539     1.0  0.93174  0.39588  0.63924  1.0000
  C   C2538     1.0  0.74113  0.44020  0.48422  1.0000
  N   N212      1.0  0.90956  0.37470  0.70426  1.0000
  C   C2539     1.0  0.91848  0.37792  0.67711  1.0000
  C   C2540     1.0  0.79750  0.43628  0.50030  1.0000
  C   C2541     1.0  0.73535  0.35707  0.48621  1.0000
  S   S848      1.0  0.94549  0.65263  0.85115  1.0000
  H   H2540     1.0  0.79545  0.50549  0.97874  1.0000
  C   C2542     1.0  0.83209  0.32566  0.88408  1.0000
  C   C2543     1.0  0.78043  0.45258  0.49532  1.0000
  C   C2544     1.0  0.80507  0.65595  0.58520  1.0000
  H   H2541     1.0  0.80794  0.43301  0.49203  1.0000
  Fe  Fe421     1.0  0.75037  0.45850  0.97664  1.0000
  H   H2542     1.0  0.79706  0.39348  0.95854  1.0000
  H   H2543     1.0  0.79595  0.37325  0.96326  1.0000
  N   N213      1.0  0.79340  0.44824  0.48449  1.0000
  H   H2544     1.0  0.77709  0.46199  0.48276  1.0000
  C   C2545     1.0  0.98348  0.49989  0.60666  1.0000
  C   C2546     1.0  0.75160  0.55847  0.48130  1.0000
  Fe  Fe422     1.0  0.76050  0.98589  0.21810  1.0000
  S   S849      1.0  0.94970  0.67430  0.07011  1.0000
  H   H2545     1.0  0.76225  0.66140  0.28778  1.0000
  C   C2547     1.0  0.90012  0.75329  0.34939  1.0000
  C   C2548     1.0  0.73771  0.81517  0.27512  1.0000
  C   C2549     1.0  0.77993  0.70545  0.32220  1.0000
  C   C2550     1.0  0.76632  0.69916  0.28768  1.0000
  Fe  Fe423     1.0  0.96345  0.68373  0.09829  1.0000
  S   S850      1.0  0.95614  0.70190  0.11938  1.0000
  H   H2546     1.0  0.86714  0.72512  0.36624  1.0000
  H   H2547     1.0  0.76085  0.89155  0.29144  1.0000
  C   C2551     1.0  0.94665  0.78967  0.12036  1.0000
  C   C2552     1.0  0.87924  0.73118  0.35727  1.0000
  H   H2548     1.0  0.81881  0.93644  0.98892  1.0000
  H   H2549     1.0  0.81666  0.80310  0.19605  1.0000
  H   H2550     1.0  0.81213  0.92351  0.02402  1.0000
  S   S851      1.0  0.97159  0.78201  0.16809  1.0000
  N   N214      1.0  0.81263  0.77018  0.17368  1.0000
  H   H2551     1.0  0.96629  0.74456  0.16455  1.0000
  C   C2553     1.0  0.93084  0.77303  0.16558  1.0000
  Fe  Fe424     1.0  0.96871  0.78365  0.21320  1.0000
  S   S852      1.0  0.94499  0.78059  0.24268  1.0000
  H   H2552     1.0  0.83210  0.92779  0.00408  1.0000
  H   H2553     1.0  0.92377  0.76172  0.17873  1.0000
  C   C2554     1.0  0.82686  0.78432  0.20939  1.0000
  H   H2554     1.0  0.82045  0.89656  0.02517  1.0000
  C   C2555     1.0  0.83740  0.72639  0.45604  1.0000
  Fe  Fe425     1.0  0.74508  0.78744  0.18696  1.0000
  H   H2555     1.0  0.74423  0.93624  0.30094  1.0000
  C   C2556     1.0  0.90453  0.73186  0.33014  1.0000
  C   C2557     1.0  0.75348  0.88919  0.27752  1.0000
  S   S853      1.0  0.98004  0.82874  0.99851  1.0000
  C   C2558     1.0  0.77185  0.70979  0.30225  1.0000
  S   S854      1.0  0.75344  0.96431  0.25582  1.0000
  H   H2556     1.0  0.80323  0.77103  0.13771  1.0000
  C   C2559     1.0  0.81106  0.78454  0.17607  1.0000
  H   H2557     1.0  0.81103  0.75470  0.14693  1.0000
  Fe  Fe426     1.0  0.98310  0.66058  0.09535  1.0000
  C   C2560     1.0  0.88898  0.72410  0.34192  1.0000
  H   H2558     1.0  0.79290  0.75531  0.16867  1.0000
  H   H2559     1.0  0.83474  0.76355  0.21950  1.0000
  Fe  Fe427     1.0  0.75971  0.75995  0.19206  1.0000
  S   S855      1.0  0.76923  0.78544  0.18786  1.0000
  S   S856      1.0  0.76735  0.74010  0.21679  1.0000
  H   H2560     1.0  0.82716  0.73059  0.45574  1.0000
  H   H2561     1.0  0.80421  0.79040  0.16426  1.0000
  Fe  Fe428     1.0  0.77321  0.78781  0.14090  1.0000
  S   S857      1.0  0.79671  0.79963  0.11030  1.0000
  H   H2562     1.0  0.97596  0.91071  0.99598  1.0000
  S   S858      1.0  0.76510  0.76227  0.14508  1.0000
  Fe  Fe429     1.0  0.82890  0.69733  0.32154  1.0000
  S   S859      1.0  0.81788  0.71345  0.34250  1.0000
  C   C2561     1.0  0.86390  0.71595  0.45704  1.0000
  Fe  Fe430     1.0  0.86030  0.72146  0.29953  1.0000
  S   S860      1.0  0.85140  0.73927  0.31856  1.0000
  S   S861      1.0  0.88495  0.72386  0.27460  1.0000
  Fe  Fe431     1.0  0.83945  0.71948  0.35765  1.0000
  S   S862      1.0  0.83634  0.72339  0.40247  1.0000
  Fe  Fe432     1.0  0.83053  0.73182  0.30218  1.0000
  S   S863      1.0  0.81963  0.75044  0.28286  1.0000
  S   S864      1.0  0.84962  0.70198  0.33962  1.0000
  S   S865      1.0  0.84029  0.71541  0.28017  1.0000
  C   C2562     1.0  0.74625  0.98146  0.10092  1.0000
  C   C2563     1.0  0.80090  0.83234  0.02394  1.0000
  C   C2564     1.0  0.78723  0.82848  0.04567  1.0000
  C   C2565     1.0  0.78583  0.81854  0.07228  1.0000
  C   C2566     1.0  0.79824  0.81266  0.07756  1.0000
  C   C2567     1.0  0.81209  0.81690  0.05611  1.0000
  C   C2568     1.0  0.81339  0.82662  0.02929  1.0000
  H   H2563     1.0  0.77754  0.83292  0.04172  1.0000
  H   H2564     1.0  0.77515  0.81546  0.08868  1.0000
  H   H2565     1.0  0.82178  0.81246  0.06009  1.0000
  H   H2566     1.0  0.82400  0.82956  0.01272  1.0000
  C   C2569     1.0  0.78226  0.74342  0.23418  1.0000
  C   C2570     1.0  0.78561  0.75673  0.24397  1.0000
  C   C2571     1.0  0.79685  0.75851  0.25940  1.0000
  C   C2572     1.0  0.80496  0.74712  0.26492  1.0000
  C   C2573     1.0  0.80184  0.73394  0.25464  1.0000
  C   C2574     1.0  0.79051  0.73211  0.23934  1.0000
  H   H2567     1.0  0.77929  0.76548  0.24025  1.0000
  H   H2568     1.0  0.79928  0.76879  0.26713  1.0000
  H   H2569     1.0  0.80816  0.72519  0.25844  1.0000
  H   H2570     1.0  0.78806  0.72183  0.23163  1.0000
  H   H2571     1.0  0.74680  0.80118  0.24894  1.0000
  N   N215      1.0  0.76836  0.68442  0.29354  1.0000
  H   H2572     1.0  0.80037  0.67143  0.23863  1.0000
  H   H2573     1.0  0.87863  0.76562  0.37124  1.0000
  C   C2575     1.0  0.93348  0.78568  0.17742  1.0000
  C   C2576     1.0  0.75397  0.80200  0.03095  1.0000
  H   H2574     1.0  0.87322  0.74814  0.40009  1.0000
  S   S866      1.0  0.81504  0.67226  0.32846  1.0000
  H   H2575     1.0  0.95194  0.79141  0.09800  1.0000
  H   H2576     1.0  0.77034  0.72152  0.29737  1.0000
  H   H2577     1.0  0.78475  0.71378  0.33289  1.0000
  H   H2578     1.0  0.92820  0.78406  0.19968  1.0000
  C   C2577     1.0  0.78198  0.69042  0.32798  1.0000
  C   C2578     1.0  0.73755  0.93430  0.28583  1.0000
  C   C2579     1.0  0.94910  0.80203  0.13298  1.0000
  H   H2579     1.0  0.75563  0.91343  0.25861  1.0000
  H   H2580     1.0  0.78534  0.76779  0.05069  1.0000
  H   H2581     1.0  0.81398  0.87347  0.00640  1.0000
  C   C2580     1.0  0.76892  0.80558  0.01354  1.0000
  H   H2582     1.0  0.95754  0.82092  0.16326  1.0000
  H   H2583     1.0  0.83210  0.78960  0.22393  1.0000
  H   H2584     1.0  0.86269  0.74998  0.37322  1.0000
  H   H2585     1.0  0.90460  0.76473  0.35211  1.0000
  Fe  Fe433     1.0  0.97241  0.67348  0.04397  1.0000
  H   H2586     1.0  0.88443  0.71285  0.33844  1.0000
  C   C2581     1.0  0.91019  0.74654  0.33391  1.0000
  C   C2582     1.0  0.81813  0.79182  0.19394  1.0000
  S   S867      1.0  0.75956  0.98790  0.17269  1.0000
  H   H2587     1.0  0.87420  0.71186  0.45729  1.0000
  C   C2583     1.0  0.79975  0.66478  0.25970  1.0000
  C   C2584     1.0  0.81692  0.89787  0.00551  1.0000
  C   C2585     1.0  0.94606  0.81271  0.17448  1.0000
  C   C2586     1.0  0.98254  0.81440  0.05101  1.0000
  C   C2587     1.0  0.73677  0.87103  0.26078  1.0000
  C   C2588     1.0  0.93760  0.77503  0.13689  1.0000
  C   C2589     1.0  0.92833  0.76489  0.25037  1.0000
  C   C2590     1.0  0.91406  0.76626  0.26527  1.0000
  C   C2591     1.0  0.90055  0.75402  0.27210  1.0000
  C   C2592     1.0  0.90123  0.74019  0.26435  1.0000
  C   C2593     1.0  0.91545  0.73894  0.24905  1.0000
  C   C2594     1.0  0.92892  0.75125  0.24194  1.0000
  H   H2588     1.0  0.91346  0.77682  0.27169  1.0000
  H   H2589     1.0  0.88968  0.75515  0.28382  1.0000
  H   H2590     1.0  0.91609  0.72829  0.24296  1.0000
  H   H2591     1.0  0.93980  0.75005  0.23038  1.0000
  C   C2595     1.0  0.81990  0.92558  0.00264  1.0000
  C   C2596     1.0  0.87440  0.75274  0.37708  1.0000
  C   C2597     1.0  0.80740  0.67201  0.27726  1.0000
  H   H2592     1.0  0.77245  0.81459  0.99368  1.0000
  C   C2598     1.0  0.85759  0.71625  0.43336  1.0000
  C   C2599     1.0  0.84440  0.72171  0.43247  1.0000
  H   H2593     1.0  0.82166  0.75097  0.18822  1.0000
  H   H2594     1.0  0.92221  0.75280  0.32422  1.0000
  H   H2595     1.0  0.93601  0.67074  0.01548  1.0000
  H   H2596     1.0  0.86298  0.71225  0.41588  1.0000
  H   H2597     1.0  0.91205  0.72670  0.31734  1.0000
  H   H2598     1.0  0.75227  0.99050  0.27983  1.0000
  C   C2600     1.0  0.96858  0.71739  0.12661  1.0000
  C   C2601     1.0  0.96205  0.72639  0.14303  1.0000
  C   C2602     1.0  0.97148  0.73807  0.15115  1.0000
  H   H2599     1.0  0.94643  0.80836  0.19685  1.0000
  H   H2600     1.0  0.76059  0.70288  0.27138  1.0000
  C   C2603     1.0  0.98316  0.82864  0.03250  1.0000
  H   H2601     1.0  0.94961  0.72404  0.15008  1.0000
  C   C2604     1.0  0.73970  0.94630  0.26130  1.0000
  N   N216      1.0  0.94293  0.79980  0.16135  1.0000
  H   H2602     1.0  0.95623  0.81334  0.12008  1.0000
  H   H2603     1.0  0.81373  0.68416  0.26980  1.0000
  C   C2605     1.0  0.82841  0.76970  0.20680  1.0000
  S   S868      1.0  0.75006  0.79185  0.13943  1.0000
  S   S869      1.0  0.80144  0.84345  0.99002  1.0000
  C   C2606     1.0  0.80667  0.66356  0.30458  1.0000
  C   C2607     1.0  0.80457  0.76241  0.15587  1.0000
  H   H2604     1.0  0.79871  0.78622  0.04738  1.0000
  C   C2608     1.0  0.74656  0.87386  0.27836  1.0000
  H   H2605     1.0  0.75152  0.67433  0.27411  1.0000
  C   C2609     1.0  0.82098  0.76265  0.18908  1.0000
  C   C2610     1.0  0.77596  0.67996  0.31356  1.0000
  N   N217      1.0  0.88481  0.74567  0.36053  1.0000
  H   H2606     1.0  0.98053  0.80384  0.04400  1.0000
  H   H2607     1.0  0.74847  0.86417  0.29291  1.0000
  H   H2608     1.0  0.93587  0.76526  0.12752  1.0000
  H   H2609     1.0  0.93696  0.81912  0.17400  1.0000
  C   C2611     1.0  0.76074  0.78324  0.06493  1.0000
  H   H2610     1.0  0.78841  0.68691  0.34322  1.0000
  H   H2611     1.0  0.73817  0.90776  0.22818  1.0000
  H   H2612     1.0  0.77147  0.67673  0.25596  1.0000
  C   C2612     1.0  0.81332  0.88480  0.99505  1.0000
  H   H2613     1.0  0.79125  0.80095  0.00895  1.0000
  C   C2613     1.0  0.74078  0.89817  0.24173  1.0000
  H   H2614     1.0  0.74453  0.81279  0.29011  1.0000
  H   H2615     1.0  0.96646  0.67734  0.16987  1.0000
  C   C2614     1.0  0.73905  0.80860  0.25178  1.0000
  C   C2615     1.0  0.93005  0.65954  0.01348  1.0000
  C   C2616     1.0  0.75062  0.90145  0.25904  1.0000
  C   C2617     1.0  0.78667  0.77892  0.05693  1.0000
  C   C2618     1.0  0.74980  0.79071  0.05676  1.0000
  C   C2619     1.0  0.97710  0.68481  0.17097  1.0000
  C   C2620     1.0  0.77956  0.79784  0.02236  1.0000
  S   S870      1.0  0.97897  0.68251  0.99619  1.0000
  N   N218      1.0  0.77546  0.78702  0.04801  1.0000
  H   H2616     1.0  0.78493  0.77645  0.08031  1.0000
  H   H2617     1.0  0.77760  0.66831  0.31825  1.0000
  N   N219      1.0  0.81608  0.91211  0.99109  1.0000
  H   H2618     1.0  0.74968  0.97137  0.11088  1.0000
  H   H2619     1.0  0.75739  0.77446  0.08501  1.0000
  C   C2621     1.0  0.76312  0.67371  0.27708  1.0000
  C   C2622     1.0  0.97658  0.69730  0.18301  1.0000
  H   H2620     1.0  0.96557  0.69962  0.19105  1.0000
  H   H2621     1.0  0.77634  0.98193  0.27931  1.0000
  S   S871      1.0  0.96103  0.65992  0.12563  1.0000
  Fe  Fe434     1.0  0.74141  0.76592  0.14728  1.0000
  H   H2622     1.0  0.82183  0.98988  0.08447  1.0000
  H   H2623     1.0  0.74564  0.80801  0.02452  1.0000
  S   S872      1.0  0.73507  0.76159  0.19477  1.0000
  H   H2624     1.0  0.73818  0.78771  0.07049  1.0000
  N   N220      1.0  0.73406  0.88311  0.24267  1.0000
  C   C2623     1.0  0.84356  0.72584  0.47993  1.0000
  H   H2625     1.0  0.74715  0.95770  0.64757  1.0000
  Fe  Fe435     1.0  0.78055  0.98112  0.75292  1.0000
  H   H2626     1.0  0.89022  0.81329  0.90845  1.0000
  C   C2624     1.0  0.80305  0.84797  0.74486  1.0000
  Fe  Fe436     1.0  0.98329  0.85002  0.96203  1.0000
  H   H2627     1.0  0.94867  0.70431  0.72160  1.0000
  H   H2628     1.0  0.76432  0.93414  0.58388  1.0000
  H   H2629     1.0  0.86243  0.68771  0.54099  1.0000
  H   H2630     1.0  0.83804  0.72957  0.49771  1.0000
  H   H2631     1.0  0.75321  0.82292  0.80317  1.0000
  C   C2625     1.0  0.79503  0.70730  0.63026  1.0000
  Fe  Fe437     1.0  0.96120  0.76670  0.75983  1.0000
  S   S873      1.0  0.94156  0.77801  0.76449  1.0000
  H   H2632     1.0  0.86121  0.66879  0.56224  1.0000
  H   H2633     1.0  0.85306  0.91050  0.94023  1.0000
  S   S874      1.0  0.96004  0.80355  0.70607  1.0000
  Fe  Fe438     1.0  0.95987  0.80058  0.75247  1.0000
  S   S875      1.0  0.95718  0.81936  0.77647  1.0000
  Fe  Fe439     1.0  0.94342  0.77957  0.71809  1.0000
  S   S876      1.0  0.91998  0.77148  0.70739  1.0000
  S   S877      1.0  0.96234  0.76713  0.71428  1.0000
  Fe  Fe440     1.0  0.84168  0.69983  0.61332  1.0000
  S   S878      1.0  0.83248  0.71325  0.58057  1.0000
  S   S879      1.0  0.83049  0.67407  0.63487  1.0000
  Fe  Fe441     1.0  0.86889  0.72808  0.60839  1.0000
  S   S880      1.0  0.86174  0.74303  0.57366  1.0000
  S   S881      1.0  0.89150  0.73768  0.62060  1.0000
  Fe  Fe442     1.0  0.83761  0.73259  0.60199  1.0000
  S   S882      1.0  0.82086  0.74759  0.60903  1.0000
  Fe  Fe443     1.0  0.85721  0.72235  0.55511  1.0000
  S   S883      1.0  0.84477  0.71839  0.63721  1.0000
  S   S884      1.0  0.86637  0.70813  0.58751  1.0000
  Fe  Fe444     1.0  0.96838  0.87260  0.92998  1.0000
  S   S885      1.0  0.94861  0.88423  0.92755  1.0000
  S   S886      1.0  0.96751  0.84743  0.93286  1.0000
  S   S887      1.0  0.84344  0.87104  0.95243  1.0000
  C   C2626     1.0  0.79889  0.84848  0.77308  1.0000
  S   S888      1.0  0.78830  0.97435  0.79400  1.0000
  Fe  Fe445     1.0  0.76478  0.96726  0.70938  1.0000
  H   H2634     1.0  0.80638  0.87643  0.96105  1.0000
  S   S889      1.0  0.75321  0.94360  0.70215  1.0000
  C   C2627     1.0  0.85422  0.67674  0.55504  1.0000
  C   C2628     1.0  0.73512  0.80052  0.64484  1.0000
  H   H2635     1.0  0.81515  0.85066  0.73370  1.0000
  S   S890      1.0  0.78963  0.97615  0.71098  1.0000
  S   S891      1.0  0.75600  0.97011  0.75323  1.0000
  H   H2636     1.0  0.75026  0.90652  0.59412  1.0000
  N   N221      1.0  0.92723  0.72957  0.76005  1.0000
  N   N222      1.0  0.75527  0.90010  0.63426  1.0000
  Fe  Fe446     1.0  0.74886  0.77588  0.75961  1.0000
  S   S892      1.0  0.76407  0.78101  0.71544  1.0000
  H   H2637     1.0  0.96179  0.80245  0.89415  1.0000
  Fe  Fe447     1.0  0.77389  0.79661  0.77928  1.0000
  S   S893      1.0  0.79068  0.80331  0.73636  1.0000
  S   S894      1.0  0.77590  0.80656  0.81737  1.0000
  Fe  Fe448     1.0  0.77028  0.80572  0.71849  1.0000
  S   S895      1.0  0.77172  0.82645  0.68275  1.0000
  Fe  Fe449     1.0  0.78302  0.77797  0.73699  1.0000
  S   S896      1.0  0.80078  0.76435  0.72628  1.0000
  S   S897      1.0  0.75407  0.80091  0.76107  1.0000
  S   S898      1.0  0.76729  0.77100  0.78142  1.0000
  C   C2629     1.0  0.89430  0.86338  0.85902  1.0000
  H   H2638     1.0  0.79482  0.70311  0.70887  1.0000
  Fe  Fe450     1.0  0.85780  0.85811  0.92837  1.0000
  S   S899      1.0  0.85652  0.87100  0.88556  1.0000
  S   S900      1.0  0.87865  0.84961  0.93732  1.0000
  C   C2630     1.0  0.80902  0.88644  0.96954  1.0000
  S   S901      1.0  0.81937  0.86424  0.91214  1.0000
  Fe  Fe451     1.0  0.83524  0.85181  0.89118  1.0000
  S   S902      1.0  0.83422  0.84148  0.85316  1.0000
  Fe  Fe452     1.0  0.84064  0.88247  0.90978  1.0000
  S   S903      1.0  0.83913  0.90730  0.89322  1.0000
  S   S904      1.0  0.83740  0.83815  0.93267  1.0000
  C   C2631     1.0  0.79980  0.69515  0.64530  1.0000
  C   C2632     1.0  0.79238  0.81563  0.82743  1.0000
  C   C2633     1.0  0.80749  0.81796  0.81136  1.0000
  C   C2634     1.0  0.82013  0.82586  0.81959  1.0000
  C   C2635     1.0  0.81784  0.83151  0.84395  1.0000
  C   C2636     1.0  0.80272  0.82919  0.85999  1.0000
  C   C2637     1.0  0.79010  0.82130  0.85175  1.0000
  H   H2639     1.0  0.80945  0.81371  0.79259  1.0000
  H   H2640     1.0  0.83176  0.82757  0.80703  1.0000
  H   H2641     1.0  0.80075  0.83345  0.87875  1.0000
  H   H2642     1.0  0.77846  0.81958  0.86435  1.0000
  C   C2638     1.0  0.75439  0.83005  0.67574  1.0000
  C   C2639     1.0  0.94245  0.71129  0.73234  1.0000
  C   C2640     1.0  0.93093  0.73298  0.73106  1.0000
  C   C2641     1.0  0.80834  0.90101  0.95484  1.0000
  S   S905      1.0  0.84852  0.96087  0.95704  1.0000
  C   C2642     1.0  0.75493  0.84060  0.65033  1.0000
  H   H2643     1.0  0.76285  0.97423  0.84423  1.0000
  C   C2643     1.0  0.78967  0.71624  0.67258  1.0000
  C   C2644     1.0  0.97392  0.91034  0.95384  1.0000
  H   H2644     1.0  0.76597  0.84653  0.63538  1.0000
  C   C2645     1.0  0.84676  0.94659  0.93780  1.0000
  C   C2646     1.0  0.83988  0.94800  0.91512  1.0000
  C   C2647     1.0  0.83780  0.93592  0.90149  1.0000
  C   C2648     1.0  0.84250  0.92231  0.91048  1.0000
  C   C2649     1.0  0.84937  0.92090  0.93316  1.0000
  C   C2650     1.0  0.85155  0.93303  0.94665  1.0000
  H   H2645     1.0  0.83594  0.95829  0.90842  1.0000
  H   H2646     1.0  0.83226  0.93695  0.88425  1.0000
  S   S906      1.0  0.98246  0.87465  0.96215  1.0000
  C   C2651     1.0  0.93077  0.71709  0.77547  1.0000
  H   H2647     1.0  0.83258  0.97395  0.80074  1.0000
  C   C2652     1.0  0.80175  0.97854  0.83762  1.0000
  C   C2653     1.0  0.80500  0.68109  0.68842  1.0000
  H   H2648     1.0  0.80771  0.85139  0.78417  1.0000
  H   H2649     1.0  0.86711  0.84923  0.85223  1.0000
  H   H2650     1.0  0.79597  0.96638  0.84739  1.0000
  H   H2651     1.0  0.78013  0.84420  0.80978  1.0000
  H   H2652     1.0  0.74814  0.87628  0.65906  1.0000
  H   H2653     1.0  0.74168  0.85054  0.62338  1.0000
  H   H2654     1.0  0.74787  0.83557  0.77594  1.0000
  H   H2655     1.0  0.84761  0.67943  0.57385  1.0000
  C   C2654     1.0  0.76414  0.92599  0.60329  1.0000
  C   C2655     1.0  0.98171  0.91474  0.92507  1.0000
  C   C2656     1.0  0.91908  0.73900  0.77500  1.0000
  C   C2657     1.0  0.75461  0.97897  0.83353  1.0000
  H   H2656     1.0  0.94139  0.69799  0.77419  1.0000
  Fe  Fe453     1.0  0.96727  0.66198  0.81557  1.0000
  C   C2658     1.0  0.92927  0.87445  0.92971  1.0000
  C   C2659     1.0  0.92419  0.85820  0.93705  1.0000
  C   C2660     1.0  0.90865  0.85087  0.93944  1.0000
  C   C2661     1.0  0.89802  0.85965  0.93423  1.0000
  C   C2662     1.0  0.90313  0.87590  0.92647  1.0000
  C   C2663     1.0  0.91866  0.88324  0.92438  1.0000
  H   H2657     1.0  0.93217  0.85128  0.94139  1.0000
  S   S907      1.0  0.97667  0.68450  0.78090  1.0000
  H   H2658     1.0  0.89510  0.88282  0.92247  1.0000
  H   H2659     1.0  0.73559  0.91269  0.70626  1.0000
  H   H2660     1.0  0.90481  0.83829  0.94562  1.0000
  C   C2664     1.0  0.81472  0.75145  0.64222  1.0000
  C   C2665     1.0  0.82014  0.74561  0.66546  1.0000
  C   C2666     1.0  0.81537  0.74930  0.69132  1.0000
  C   C2667     1.0  0.80524  0.75894  0.69416  1.0000
  C   C2668     1.0  0.79962  0.76458  0.67108  1.0000
  C   C2669     1.0  0.80434  0.76082  0.64522  1.0000
  H   H2661     1.0  0.82815  0.73842  0.66345  1.0000
  H   H2662     1.0  0.81972  0.74484  0.70913  1.0000
  H   H2663     1.0  0.79183  0.77203  0.67301  1.0000
  H   H2664     1.0  0.80008  0.76537  0.62734  1.0000
  C   C2670     1.0  0.96732  0.82542  0.80105  1.0000
  C   C2671     1.0  0.96934  0.84013  0.83697  1.0000
  C   C2672     1.0  0.96138  0.83449  0.81813  1.0000
  H   H2665     1.0  0.96458  0.84709  0.84985  1.0000
  H   H2666     1.0  0.95053  0.83720  0.81673  1.0000
  C   C2673     1.0  0.91241  0.76166  0.68337  1.0000
  C   C2674     1.0  0.92188  0.75890  0.66009  1.0000
  C   C2675     1.0  0.91528  0.75150  0.64139  1.0000
  C   C2676     1.0  0.89911  0.74656  0.64565  1.0000
  C   C2677     1.0  0.88965  0.74895  0.66937  1.0000
  C   C2678     1.0  0.89624  0.75654  0.68786  1.0000
  H   H2667     1.0  0.93431  0.76273  0.65610  1.0000
  H   H2668     1.0  0.92279  0.74971  0.62325  1.0000
  H   H2669     1.0  0.87725  0.74486  0.67354  1.0000
  H   H2670     1.0  0.88875  0.75839  0.70593  1.0000
  Fe  Fe454     1.0  0.84527  0.98520  0.94235  1.0000
  H   H2671     1.0  0.92806  0.74280  0.71877  1.0000
  H   H2672     1.0  0.86003  0.96309  0.85907  1.0000
  H   H2673     1.0  0.75328  0.84263  0.80451  1.0000
  C   C2679     1.0  0.81886  0.66118  0.62052  1.0000
  H   H2674     1.0  0.96411  0.82183  0.89889  1.0000
  N   N223      1.0  0.88653  0.84671  0.86873  1.0000
  C   C2680     1.0  0.84554  0.96661  0.83041  1.0000
  H   H2675     1.0  0.77663  0.94345  0.61955  1.0000
  H   H2676     1.0  0.94180  0.72691  0.69376  1.0000
  C   C2681     1.0  0.97174  0.70163  0.78593  1.0000
  H   H2677     1.0  0.81774  0.68503  0.68495  1.0000
  C   C2682     1.0  0.97225  0.72871  0.76610  1.0000
  C   C2683     1.0  0.81396  0.66657  0.59635  1.0000
  H   H2678     1.0  0.73512  0.73769  0.76900  1.0000
  H   H2679     1.0  0.97242  0.66997  0.90761  1.0000
  H   H2680     1.0  0.97409  0.81530  0.95348  1.0000
  C   C2684     1.0  0.81073  0.98704  0.85206  1.0000
  H   H2681     1.0  0.85695  0.93188  0.96411  1.0000
  C   C2685     1.0  0.96288  0.70205  0.81197  1.0000
  S   S908      1.0  0.86555  0.72009  0.50973  1.0000
  C   C2686     1.0  0.97650  0.71501  0.76306  1.0000
  H   H2682     1.0  0.90390  0.84113  0.88881  1.0000
  H   H2683     1.0  0.96196  0.90350  0.96079  1.0000
  C   C2687     1.0  0.87083  0.81546  0.89089  1.0000
  H   H2684     1.0  0.92811  0.71458  0.79843  1.0000
  C   C2688     1.0  0.86437  0.82566  0.87498  1.0000
  H   H2685     1.0  0.81710  0.67887  0.58602  1.0000
  C   C2689     1.0  0.73939  0.79160  0.66684  1.0000
  C   C2690     1.0  0.79156  0.84364  0.73130  1.0000
  N   N224      1.0  0.84909  0.77811  0.66634  1.0000
  C   C2691     1.0  0.86144  0.77201  0.65961  1.0000
  C   C2692     1.0  0.84137  0.78246  0.64645  1.0000
  C   C2693     1.0  0.86617  0.76984  0.63252  1.0000
  C   C2694     1.0  0.84581  0.78048  0.61916  1.0000
  C   C2695     1.0  0.85824  0.77407  0.61226  1.0000
  C   C2696     1.0  0.84418  0.77984  0.69514  1.0000
  H   H2686     1.0  0.86764  0.76868  0.67530  1.0000
  H   H2687     1.0  0.83141  0.78704  0.65183  1.0000
  H   H2688     1.0  0.87583  0.76478  0.62728  1.0000
  H   H2689     1.0  0.83929  0.78334  0.60377  1.0000
  H   H2690     1.0  0.86160  0.77225  0.59132  1.0000
  H   H2691     1.0  0.83354  0.78412  0.69830  1.0000
  H   H2692     1.0  0.84137  0.76838  0.71090  1.0000
  H   H2693     1.0  0.85348  0.78816  0.69966  1.0000
  H   H2694     1.0  0.89105  0.86901  0.87632  1.0000
  H   H2695     1.0  0.92244  0.89582  0.91876  1.0000
  H   H2696     1.0  0.80558  0.90247  0.93445  1.0000
  C   C2697     1.0  0.75578  0.83512  0.79014  1.0000
  C   C2698     1.0  0.88524  0.82101  0.89553  1.0000
  H   H2697     1.0  0.84027  0.95428  0.83411  1.0000
  C   C2699     1.0  0.75623  0.91032  0.60919  1.0000
  H   H2698     1.0  0.95919  0.69179  0.82969  1.0000
  C   C2700     1.0  0.77602  0.83974  0.74632  1.0000
  H   H2699     1.0  0.74380  0.80746  0.62569  1.0000
  H   H2700     1.0  0.89097  0.86914  0.84009  1.0000
  H   H2701     1.0  0.97560  0.91123  0.90997  1.0000
  H   H2702     1.0  0.78611  0.72469  0.68324  1.0000
  C   C2701     1.0  0.74248  0.93609  0.67926  1.0000
  C   C2702     1.0  0.74610  0.88398  0.64049  1.0000
  H   H2703     1.0  0.86456  0.80333  0.89992  1.0000
  H   H2704     1.0  0.91839  0.74968  0.76021  1.0000
  C   C2703     1.0  0.78324  0.84449  0.78745  1.0000
  C   C2704     1.0  0.96445  0.80978  0.90868  1.0000
  N   N225      1.0  0.79941  0.69355  0.67334  1.0000
  S   S909      1.0  0.97949  0.78918  0.75051  1.0000
  C   C2705     1.0  0.87240  0.84135  0.86408  1.0000
  H   H2705     1.0  0.79460  0.84292  0.70948  1.0000
  C   C2706     1.0  0.93834  0.70771  0.76188  1.0000
  H   H2706     1.0  0.79940  0.67759  0.71153  1.0000
  H   H2707     1.0  0.98335  0.71473  0.74286  1.0000
  H   H2708     1.0  0.73948  0.81427  0.71453  1.0000
  H   H2709     1.0  0.92530  0.74281  0.79037  1.0000
  N   N226      1.0  0.77205  0.84021  0.77404  1.0000
  H   H2710     1.0  0.98091  0.68764  0.93661  1.0000
  H   H2711     1.0  0.90713  0.73214  0.78653  1.0000
  C   C2707     1.0  0.93868  0.72397  0.71676  1.0000
  C   C2708     1.0  0.82793  0.67282  0.50696  1.0000
  C   C2709     1.0  0.97106  0.66538  0.93006  1.0000
  C   C2710     1.0  0.79466  0.70404  0.68691  1.0000
  H   H2712     1.0  0.85306  0.82154  0.87153  1.0000
  H   H2713     1.0  0.78659  0.72760  0.63241  1.0000
  C   C2711     1.0  0.89299  0.83676  0.88419  1.0000
  C   C2712     1.0  0.98177  0.91440  0.97354  1.0000
  C   C2713     1.0  0.78987  0.71785  0.64407  1.0000
  C   C2714     1.0  0.76999  0.92072  0.64881  1.0000
  H   H2714     1.0  0.90707  0.86534  0.85331  1.0000
  C   C2715     1.0  0.96336  0.72911  0.79215  1.0000
  H   H2715     1.0  0.80246  0.67051  0.68048  1.0000
  C   C2716     1.0  0.73421  0.93854  0.63521  1.0000
  H   H2716     1.0  0.95190  0.71606  0.83529  1.0000
  S   S910      1.0  0.95701  0.74567  0.79657  1.0000
  H   H2717     1.0  0.76076  0.89719  0.67432  1.0000
  C   C2717     1.0  0.98145  0.82217  0.80297  1.0000
  C   C2718     1.0  0.83853  0.67919  0.52077  1.0000
  Fe  Fe455     1.0  0.82309  0.85204  0.95343  1.0000
  C   C2719     1.0  0.76200  0.90511  0.65400  1.0000
  H   H2718     1.0  0.97579  0.73893  0.74832  1.0000
  N   N227      1.0  0.97978  0.81002  0.91353  1.0000
  H   H2719     1.0  0.82400  0.68039  0.49164  1.0000
  N   N228      1.0  0.84353  0.66976  0.54014  1.0000
  H   H2720     1.0  0.77471  0.92484  0.66500  1.0000
  H   H2721     1.0  0.75142  0.79154  0.66480  1.0000
  H   H2722     1.0  0.97165  0.83327  0.71833  1.0000
  C   C2720     1.0  0.74121  0.84301  0.64360  1.0000
  C   C2721     1.0  0.85658  0.97154  0.84448  1.0000
  H   H2723     1.0  0.76720  0.83608  0.73573  1.0000
  H   H2724     1.0  0.84259  0.69172  0.51615  1.0000
  Fe  Fe456     1.0  0.97891  0.79093  0.70505  1.0000
  C   C2722     1.0  0.77102  0.93120  0.62330  1.0000
  C   C2723     1.0  0.95877  0.71579  0.81508  1.0000
  H   H2725     1.0  0.95528  0.80506  0.92891  1.0000
  C   C2724     1.0  0.74007  0.82238  0.69487  1.0000
  H   H2726     1.0  0.75289  0.97237  0.81749  1.0000
  C   C2725     1.0  0.74168  0.94535  0.65361  1.0000
  H   H2727     1.0  0.81189  0.98136  0.87257  1.0000
  C   C2726     1.0  0.80018  0.98561  0.81074  1.0000
  H   H2728     1.0  0.80395  0.68708  0.63433  1.0000
  S   S911      1.0  0.82265  0.99050  0.93852  1.0000
  H   H2729     1.0  0.80148  0.66022  0.56632  1.0000
  H   H2730     1.0  0.79565  0.70875  0.60787  1.0000
  H   H2731     1.0  0.74344  0.97685  0.84935  1.0000
  C   C2727     1.0  0.84130  0.97761  0.81158  1.0000
  H   H2732     1.0  0.93944  0.66513  0.96823  1.0000
  H   H2733     1.0  0.81153  0.92513  0.95421  1.0000
  C   C2728     1.0  0.81183  0.91379  0.96607  1.0000
  C   C2729     1.0  0.97352  0.66962  0.97589  1.0000
  H   H2734     1.0  0.73400  0.94583  0.61522  1.0000
  C   C2730     1.0  0.97579  0.67537  0.94655  1.0000
  H   H2735     1.0  0.74913  0.87909  0.62209  1.0000
  C   C2731     1.0  0.73521  0.92002  0.68645  1.0000
  C   C2732     1.0  0.86307  0.98748  0.83980  1.0000
  C   C2733     1.0  0.98298  0.81340  0.93752  1.0000
  S   S912      1.0  0.76336  0.99097  0.68707  1.0000
  C   C2734     1.0  0.85699  0.72081  0.48044  1.0000
  C   C2735     1.0  0.98357  0.83706  0.83857  1.0000
  H   H2736     1.0  0.98344  0.83592  0.66770  1.0000
  C   C2736     1.0  0.98296  0.84114  0.70786  1.0000
