data_image0
_chemical_formula_structural       FeS2FeS2FeCFeS3HS2CH5CH3C6H4C3H2CFeHCH6C2HCHCNC6HN2H2CH2SCH2C2FeS2FeSCFeSFeS3NCHCFeS2C6H6CH2C2H2SCH3SC3H3C3HCH2C2HCHCHNH4C3HCHCSCHS2HSHFeS2FeHSFeS2HC3HCSFeSHC3FeHCSCFeNC2H2C8HFeCHFeSHCHNC6H9CH2SCH2C2HFeCH2FeCH3SCH4FeS2H3SCHFeS2HCFeCSH2C4SCH3SCH2C3HSHC2SHSC2SCHCH2NH2CFeHC5H3FeCH3CH2NC2FeH2CH2CH3C2NH2C2HCSHCH4CNHSCFeC2HC4FeHCSFeS2H2SC3HCNCH2C2HCHC3H5NCHSNC3H2SFeHCSHFeS2H2CFeC4H3CH2CH3CNCH2SC3SCH2SCHCHFeS2FeS2FeSFeS3HFeSC2H2C7H4C4HC6H4C3HCH3CH3C2HNC2HCSH5SC2H2CH2CSCNCH2C4HNHCH5CSC2HC3HFeS2FeS2FeS2FeSFeS3C6H4CHC6H6NC2H3NH4C5H2CHSC2HNC6H10C3HCHNCH7C2SCH3CFeCSC3H3SHCHFeS3C2FeS2FeS2FeSFeS3FeS2FeS2FeSFeS3CHCHNC3HC2H2CHCHC8H4C2HC4HCHC7H5C4HCHFeH6FeCHC2NC6H9C2HC2HC3HC2HCHCH4SNH3NH6FeC2HCSCNCHC3NC2HCH3NCSCHC3HCH2FeS2FeS2FeS2FeSFeS3FeS2FeS2FeSFeS3C6HCH2C6H4C2H4C2H3SC4H2C8H4CH3CH2CHC3FeCSHSHCH2CNFeHC3HCNCNC5H7C2HNCH6CHCHNHSC3FeC2HCH3CH2C2HC3H2C3HCHCHC3HC2H5SFeCSFeS2HCH3SCSHCHC4HNCFeH2SCH2C2H4CH2CHSFeSHC2HSCH2C2HCNHC3HCH5SCHFeH2
_chemical_formula_sum              "Fe72 S144 C432 H432 N36"
_cell_length_a       55.0753
_cell_length_b       55.1104
_cell_length_c       33.8897
_cell_angle_alpha    89.2416
_cell_angle_beta     90.5501
_cell_angle_gamma    120.266

_space_group_name_H-M_alt    "P 1"
_space_group_IT_number       1

loop_
  _space_group_symop_operation_xyz
  'x, y, z'

loop_
  _atom_site_type_symbol
  _atom_site_label
  _atom_site_symmetry_multiplicity
  _atom_site_fract_x
  _atom_site_fract_y
  _atom_site_fract_z
  _atom_site_occupancy
  Fe  Fe1       1.0  0.39804  0.07680  0.36079  1.0000
  S   S1        1.0  0.42689  0.12337  0.36197  1.0000
  S   S2        1.0  0.39388  0.05223  0.41728  1.0000
  Fe  Fe2       1.0  0.38996  0.07586  0.27018  1.0000
  S   S3        1.0  0.41877  0.12293  0.26583  1.0000
  S   S4        1.0  0.37147  0.05524  0.21038  1.0000
  Fe  Fe3       1.0  0.44639  0.11645  0.30880  1.0000
  C   C1        1.0  0.37950  0.08261  0.46677  1.0000
  Fe  Fe4       1.0  0.39660  0.12567  0.31933  1.0000
  S   S5        1.0  0.37994  0.15541  0.33002  1.0000
  S   S6        1.0  0.41944  0.06953  0.30950  1.0000
  S   S7        1.0  0.36578  0.07893  0.32162  1.0000
  H   H1        1.0  0.36162  0.29333  0.21492  1.0000
  S   S8        1.0  0.37785  0.29612  0.32544  1.0000
  S   S9        1.0  0.43218  0.28184  0.26993  1.0000
  C   C2        1.0  0.35732  0.02023  0.14645  1.0000
  H   H2        1.0  0.42319  0.05129  0.21562  1.0000
  H   H3        1.0  0.37399  0.00541  0.23695  1.0000
  H   H4        1.0  0.32176  0.26750  0.26083  1.0000
  H   H5        1.0  0.37113  0.21042  0.18289  1.0000
  H   H6        1.0  0.33800  0.19892  0.26315  1.0000
  C   C3        1.0  0.38865  0.06321  0.46369  1.0000
  H   H7        1.0  0.37941  0.20459  0.23261  1.0000
  H   H8        1.0  0.37536  0.09116  0.44029  1.0000
  H   H9        1.0  0.42943  0.09582  0.18844  1.0000
  C   C4        1.0  0.39667  0.19129  0.31578  1.0000
  C   C5        1.0  0.38523  0.20759  0.32852  1.0000
  C   C6        1.0  0.39684  0.23578  0.31630  1.0000
  C   C7        1.0  0.41980  0.24790  0.29065  1.0000
  C   C8        1.0  0.43155  0.23176  0.27834  1.0000
  C   C9        1.0  0.42012  0.20359  0.29095  1.0000
  H   H10       1.0  0.36717  0.19826  0.34784  1.0000
  H   H11       1.0  0.38759  0.24789  0.32605  1.0000
  H   H12       1.0  0.44930  0.24092  0.25845  1.0000
  H   H13       1.0  0.42911  0.19127  0.28094  1.0000
  C   C10       1.0  0.36802  0.24665  0.48781  1.0000
  C   C11       1.0  0.36537  0.02402  0.18650  1.0000
  C   C12       1.0  0.35213  0.99585  0.12613  1.0000
  H   H14       1.0  0.35510  0.03631  0.13098  1.0000
  H   H15       1.0  0.45373  0.08452  0.40503  1.0000
  C   C13       1.0  0.47429  0.11857  0.19823  1.0000
  Fe  Fe5       1.0  0.41945  0.31151  0.29616  1.0000
  H   H16       1.0  0.36305  0.22493  0.49525  1.0000
  C   C14       1.0  0.45387  0.11963  0.46886  1.0000
  H   H17       1.0  0.44616  0.12793  0.44586  1.0000
  H   H18       1.0  0.31012  0.22005  0.28563  1.0000
  H   H19       1.0  0.34590  0.99328  0.09539  1.0000
  H   H20       1.0  0.45269  0.03942  0.27632  1.0000
  H   H21       1.0  0.40292  0.23645  0.20736  1.0000
  H   H22       1.0  0.44786  0.02350  0.22836  1.0000
  C   C15       1.0  0.36813  0.00301  0.20607  1.0000
  C   C16       1.0  0.38028  0.22065  0.21150  1.0000
  H   H23       1.0  0.34491  0.27910  0.48104  1.0000
  C   C17       1.0  0.33373  0.25791  0.25109  1.0000
  H   H24       1.0  0.38951  0.27187  0.19374  1.0000
  C   C18       1.0  0.44416  0.06949  0.21414  1.0000
  N   N1        1.0  0.36501  0.23398  0.22663  1.0000
  C   C19       1.0  0.34309  0.21955  0.25218  1.0000
  C   C20       1.0  0.37175  0.26019  0.21330  1.0000
  C   C21       1.0  0.32723  0.23135  0.26497  1.0000
  C   C22       1.0  0.35619  0.27250  0.22526  1.0000
  C   C23       1.0  0.46221  0.04187  0.24670  1.0000
  C   C24       1.0  0.47278  0.10275  0.41771  1.0000
  H   H25       1.0  0.47301  0.08257  0.33344  1.0000
  N   N2        1.0  0.46676  0.06802  0.22816  1.0000
  N   N3        1.0  0.46793  0.10595  0.45932  1.0000
  H   H26       1.0  0.47706  0.13853  0.18794  1.0000
  H   H27       1.0  0.48224  0.04178  0.25066  1.0000
  C   C25       1.0  0.44758  0.09469  0.19878  1.0000
  H   H28       1.0  0.39095  0.25999  0.48217  1.0000
  H   H29       1.0  0.47761  0.12189  0.40018  1.0000
  S   S10       1.0  0.39890  0.31230  0.43570  1.0000
  C   C26       1.0  0.39375  0.05213  0.49834  1.0000
  H   H30       1.0  0.40078  0.03707  0.49616  1.0000
  H   H31       1.0  0.35696  0.24583  0.45979  1.0000
  C   C27       1.0  0.47619  0.09406  0.48828  1.0000
  C   C28       1.0  0.37495  0.09041  0.50418  1.0000
  Fe  Fe6       1.0  0.42102  0.12333  0.71456  1.0000
  S   S11       1.0  0.37813  0.08642  0.70216  1.0000
  S   S12       1.0  0.42901  0.16282  0.74613  1.0000
  Fe  Fe7       1.0  0.45095  0.09668  0.67367  1.0000
  S   S13       1.0  0.41023  0.05806  0.65820  1.0000
  C   C29       1.0  0.33562  0.00627  0.63141  1.0000
  Fe  Fe8       1.0  0.39538  0.08783  0.64150  1.0000
  S   S14       1.0  0.37373  0.08951  0.58511  1.0000
  Fe  Fe9       1.0  0.39706  0.05987  0.72071  1.0000
  S   S15       1.0  0.37425  0.01696  0.75241  1.0000
  S   S16       1.0  0.43682  0.12641  0.65307  1.0000
  S   S17       1.0  0.43924  0.09690  0.73702  1.0000
  N   N4        1.0  0.31602  0.03613  0.64071  1.0000
  C   C30       1.0  0.47118  0.09648  0.52810  1.0000
  H   H32       1.0  0.36710  0.03211  0.89481  1.0000
  C   C31       1.0  0.30873  0.05664  0.62530  1.0000
  Fe  Fe10      1.0  0.40538  0.29089  0.69453  1.0000
  S   S18       1.0  0.39485  0.24816  0.67065  1.0000
  S   S19       1.0  0.37220  0.30323  0.68808  1.0000
  C   C32       1.0  0.40431  0.22467  0.69265  1.0000
  C   C33       1.0  0.39660  0.19924  0.67362  1.0000
  C   C34       1.0  0.40365  0.17993  0.68994  1.0000
  C   C35       1.0  0.41853  0.18589  0.72556  1.0000
  C   C36       1.0  0.42631  0.21133  0.74458  1.0000
  C   C37       1.0  0.41928  0.23068  0.72820  1.0000
  H   H33       1.0  0.38497  0.19437  0.64616  1.0000
  H   H34       1.0  0.39753  0.16044  0.67498  1.0000
  H   H35       1.0  0.43775  0.21610  0.77219  1.0000
  H   H36       1.0  0.42529  0.25013  0.74318  1.0000
  H   H37       1.0  0.36736  0.10503  0.50623  1.0000
  H   H38       1.0  0.43853  0.01377  0.96172  1.0000
  C   C38       1.0  0.35932  0.26733  0.58913  1.0000
  H   H39       1.0  0.42093  0.30760  0.51033  1.0000
  H   H40       1.0  0.30441  0.03906  0.69960  1.0000
  C   C39       1.0  0.38027  0.07952  0.53880  1.0000
  C   C40       1.0  0.38984  0.06044  0.53578  1.0000
  H   H41       1.0  0.34377  0.29490  0.60438  1.0000
  H   H42       1.0  0.39386  0.05178  0.56220  1.0000
  S   S20       1.0  0.36045  0.32134  0.79796  1.0000
  C   C41       1.0  0.37090  0.02616  0.83275  1.0000
  H   H43       1.0  0.36406  0.26440  0.61936  1.0000
  H   H44       1.0  0.28737  0.05123  0.63503  1.0000
  H   H45       1.0  0.38138  0.04835  0.82563  1.0000
  S   S21       1.0  0.41923  0.31076  0.75424  1.0000
  C   C42       1.0  0.34769  0.28421  0.58075  1.0000
  C   C43       1.0  0.36519  0.00672  0.80282  1.0000
  C   C44       1.0  0.31262  0.02947  0.68008  1.0000
  H   H46       1.0  0.32435  0.07796  0.63595  1.0000
  H   H47       1.0  0.33399  0.30198  0.53474  1.0000
  H   H48       1.0  0.47768  0.08706  0.55117  1.0000
  C   C45       1.0  0.45729  0.11081  0.53809  1.0000
  C   C46       1.0  0.32046  0.01088  0.69601  1.0000
  C   C47       1.0  0.34206  0.28807  0.54168  1.0000
  H   H49       1.0  0.30914  0.05756  0.59248  1.0000
  C   C48       1.0  0.36277  0.01685  0.87205  1.0000
  H   H50       1.0  0.31843  0.00615  0.72745  1.0000
  H   H51       1.0  0.45592  0.19264  0.65612  1.0000
  C   C49       1.0  0.34825  0.27501  0.51144  1.0000
  C   C50       1.0  0.32734  0.02477  0.61639  1.0000
  H   H52       1.0  0.32933  0.31732  0.86749  1.0000
  C   C51       1.0  0.36553  0.25482  0.55818  1.0000
  H   H53       1.0  0.45268  0.11223  0.56878  1.0000
  C   C52       1.0  0.43335  0.99316  0.95135  1.0000
  H   H54       1.0  0.37533  0.24242  0.56505  1.0000
  N   N5        1.0  0.35983  0.25862  0.51992  1.0000
  H   H55       1.0  0.34521  0.99787  0.61225  1.0000
  H   H56       1.0  0.47043  0.99483  0.97603  1.0000
  H   H57       1.0  0.47186  0.22416  0.68468  1.0000
  H   H58       1.0  0.43681  0.13276  0.51569  1.0000
  C   C53       1.0  0.41417  0.32280  0.51342  1.0000
  C   C54       1.0  0.44854  0.12246  0.50834  1.0000
  C   C55       1.0  0.47642  0.21047  0.66602  1.0000
  H   H59       1.0  0.33067  0.03050  0.58532  1.0000
  C   C56       1.0  0.33213  0.99932  0.67149  1.0000
  H   H60       1.0  0.38619  0.31790  0.89990  1.0000
  C   C57       1.0  0.15024  0.47525  0.07187  1.0000
  S   S22       1.0  0.41636  0.34414  0.25885  1.0000
  C   C58       1.0  0.40746  0.51845  0.03796  1.0000
  H   H61       1.0  0.44764  0.61911  0.02167  1.0000
  S   S23       1.0  0.07204  0.58825  0.06713  1.0000
  S   S24       1.0  0.38036  0.48942  0.06397  1.0000
  H   H62       1.0  0.12610  0.49273  0.04656  1.0000
  S   S25       1.0  0.99058  0.37924  0.08152  1.0000
  H   H63       1.0  0.21285  0.39612  0.06456  1.0000
  Fe  Fe11      1.0  0.32031  0.38747  0.04552  1.0000
  S   S26       1.0  0.32982  0.35713  0.07974  1.0000
  S   S27       1.0  0.30838  0.41894  0.06574  1.0000
  Fe  Fe12      1.0  0.03071  0.39576  0.04422  1.0000
  H   H64       1.0  0.00514  0.36448  0.22254  1.0000
  S   S28       1.0  0.07548  0.42910  0.05810  1.0000
  Fe  Fe13      1.0  0.43718  0.37296  0.30986  1.0000
  S   S29       1.0  0.39715  0.36133  0.34181  1.0000
  S   S30       1.0  0.46395  0.41984  0.30124  1.0000
  H   H65       1.0  0.16676  0.39087  0.08270  1.0000
  C   C59       1.0  0.99978  0.37198  0.16116  1.0000
  C   C60       1.0  0.46328  0.64323  0.07463  1.0000
  C   C61       1.0  0.17434  0.39677  0.05279  1.0000
  H   H66       1.0  0.38856  0.35731  0.45914  1.0000
  C   C62       1.0  0.33389  0.35315  0.13110  1.0000
  S   S31       1.0  0.33860  0.32880  0.26074  1.0000
  Fe  Fe14      1.0  0.28512  0.41137  0.00731  1.0000
  S   S32       1.0  0.12554  0.39902  0.04074  1.0000
  H   H67       1.0  0.06408  0.53531  0.09458  1.0000
  C   C63       1.0  0.07028  0.53766  0.06393  1.0000
  C   C64       1.0  0.13795  0.64723  0.07644  1.0000
  C   C65       1.0  0.14160  0.48649  0.04126  1.0000
  Fe  Fe15      1.0  0.40299  0.32807  0.37213  1.0000
  H   H68       1.0  0.15980  0.43420  0.10602  1.0000
  C   C66       1.0  0.35642  0.34984  0.14403  1.0000
  S   S33       1.0  0.35993  0.41960  0.01547  1.0000
  C   C67       1.0  0.39621  0.35097  0.48448  1.0000
  Fe  Fe16      1.0  0.37663  0.33113  0.29176  1.0000
  N   N6        1.0  0.16966  0.46726  0.06521  1.0000
  C   C68       1.0  0.07464  0.56154  0.04249  1.0000
  C   C69       1.0  0.31371  0.35010  0.15858  1.0000
  H   H69       1.0  0.18450  0.46904  0.12389  1.0000
  H   H70       1.0  0.37627  0.34112  0.19315  1.0000
  C   C70       1.0  0.99101  0.63561  0.13770  1.0000
  C   C71       1.0  0.35875  0.34346  0.18384  1.0000
  C   C72       1.0  0.07418  0.51691  0.04614  1.0000
  C   C73       1.0  0.33793  0.33922  0.21098  1.0000
  C   C74       1.0  0.45240  0.56276  0.03932  1.0000
  C   C75       1.0  0.43083  0.53904  0.05889  1.0000
  C   C76       1.0  0.40477  0.33119  0.48005  1.0000
  C   C77       1.0  0.46117  0.63991  0.03364  1.0000
  H   H71       1.0  0.43225  0.53662  0.09041  1.0000
  Fe  Fe17      1.0  0.34706  0.45051  0.03238  1.0000
  C   C78       1.0  0.13985  0.64045  0.03753  1.0000
  H   H72       1.0  0.19552  0.46283  0.02274  1.0000
  Fe  Fe18      1.0  0.06705  0.62240  0.03626  1.0000
  S   S34       1.0  0.02297  0.61319  0.02681  1.0000
  H   H73       1.0  0.19562  0.45198  0.08958  1.0000
  C   C79       1.0  0.17790  0.45512  0.09782  1.0000
  H   H74       1.0  0.98931  0.60369  0.37750  1.0000
  N   N7        1.0  0.38330  0.41912  0.16660  1.0000
  C   C80       1.0  0.40908  0.42127  0.17042  1.0000
  C   C81       1.0  0.36577  0.41179  0.19841  1.0000
  C   C82       1.0  0.41761  0.41533  0.20661  1.0000
  C   C83       1.0  0.37356  0.40556  0.23494  1.0000
  C   C84       1.0  0.39961  0.40729  0.23894  1.0000
  C   C85       1.0  0.37490  0.42557  0.12844  1.0000
  H   H75       1.0  0.42306  0.42734  0.14529  1.0000
  H   H76       1.0  0.34527  0.40991  0.19541  1.0000
  H   H77       1.0  0.43792  0.41673  0.20971  1.0000
  H   H78       1.0  0.35914  0.39858  0.25968  1.0000
  H   H79       1.0  0.40578  0.40218  0.26697  1.0000
  H   H80       1.0  0.35169  0.41586  0.12606  1.0000
  H   H81       1.0  0.38467  0.44868  0.12422  1.0000
  H   H82       1.0  0.38122  0.41683  0.10376  1.0000
  H   H83       1.0  0.07095  0.49873  0.06306  1.0000
  C   C86       1.0  0.08333  0.52039  0.00708  1.0000
  H   H84       1.0  0.02051  0.37642  0.15262  1.0000
  H   H85       1.0  0.14097  0.47253  0.10085  1.0000
  S   S35       1.0  0.44486  0.34216  0.34381  1.0000
  C   C87       1.0  0.15779  0.40130  0.02489  1.0000
  H   H86       1.0  0.01244  0.61227  0.13191  1.0000
  H   H87       1.0  0.12862  0.61867  0.02836  1.0000
  C   C88       1.0  0.99685  0.61444  0.14823  1.0000
  C   C89       1.0  0.18058  0.46973  0.02828  1.0000
  H   H88       1.0  0.12517  0.63073  0.09750  1.0000
  Fe  Fe19      1.0  0.03743  0.65501  0.05399  1.0000
  C   C90       1.0  0.20063  0.39975  0.04258  1.0000
  H   H89       1.0  0.45148  0.62522  0.09397  1.0000
  H   H90       1.0  0.29928  0.33951  0.21881  1.0000
  Fe  Fe20      1.0  0.08854  0.40465  0.01842  1.0000
  C   C91       1.0  0.31555  0.34281  0.19815  1.0000
  H   H91       1.0  0.37194  0.35179  0.12294  1.0000
  H   H92       1.0  0.29592  0.35195  0.14894  1.0000
  H   H93       1.0  0.47250  0.43228  0.39695  1.0000
  S   S36       1.0  0.04338  0.36984  0.00736  1.0000
  C   C92       1.0  0.99097  0.36518  0.20083  1.0000
  H   H94       1.0  0.99043  0.63174  0.44210  1.0000
  H   H95       1.0  0.47028  0.57843  0.05577  1.0000
  H   H96       1.0  0.98820  0.58055  0.18886  1.0000
  H   H97       1.0  0.99098  0.60969  0.30469  1.0000
  Fe  Fe21      1.0  0.33384  0.41164  0.96097  1.0000
  S   S37       1.0  0.35328  0.41410  0.90039  1.0000
  S   S38       1.0  0.32362  0.44534  0.97567  1.0000
  H   H98       1.0  0.08598  0.58262  0.98604  1.0000
  H   H99       1.0  0.20173  0.41709  0.94598  1.0000
  H   H100      1.0  0.99379  0.35087  0.63397  1.0000
  S   S39       1.0  0.02818  0.41952  0.99107  1.0000
  C   C93       1.0  0.01866  0.46989  0.94590  1.0000
  H   H101      1.0  0.46001  0.38592  0.62507  1.0000
  Fe  Fe22      1.0  0.04327  0.39602  0.95525  1.0000
  S   S40       1.0  0.02981  0.38845  0.89006  1.0000
  S   S41       1.0  0.08904  0.42857  0.96401  1.0000
  H   H102      1.0  0.44805  0.42189  0.58537  1.0000
  C   C94       1.0  0.43286  0.39634  0.87297  1.0000
  Fe  Fe23      1.0  0.44917  0.35003  0.72083  1.0000
  C   C95       1.0  0.99194  0.45437  0.96279  1.0000
  S   S42       1.0  0.41950  0.36661  0.71561  1.0000
  H   H103      1.0  0.45280  0.36705  0.80248  1.0000
  H   H104      1.0  0.41347  0.40452  0.92237  1.0000
  C   C96       1.0  0.35509  0.38792  0.87268  1.0000
  C   C97       1.0  0.37176  0.39602  0.83845  1.0000
  C   C98       1.0  0.37358  0.37598  0.81511  1.0000
  C   C99       1.0  0.35832  0.34748  0.82543  1.0000
  S   S43       1.0  0.47603  0.59686  0.97342  1.0000
  C   C100      1.0  0.33978  0.35942  0.88298  1.0000
  H   H105      1.0  0.38348  0.41799  0.83000  1.0000
  H   H106      1.0  0.38664  0.38255  0.78904  1.0000
  H   H107      1.0  0.32676  0.35284  0.90911  1.0000
  S   S44       1.0  0.01066  0.61076  0.91625  1.0000
  C   C101      1.0  0.98718  0.33802  0.70902  1.0000
  H   H108      1.0  0.98700  0.46159  0.98954  1.0000
  H   H109      1.0  0.46222  0.45433  0.61226  1.0000
  C   C102      1.0  0.41765  0.34844  0.86055  1.0000
  C   C103      1.0  0.40395  0.35170  0.55585  1.0000
  C   C104      1.0  0.34123  0.33933  0.85928  1.0000
  H   H110      1.0  0.03425  0.48910  0.96002  1.0000
  S   S45       1.0  0.08178  0.64300  0.97695  1.0000
  H   H111      1.0  0.47436  0.40059  0.82453  1.0000
  C   C105      1.0  0.45235  0.38502  0.81628  1.0000
  C   C106      1.0  0.41511  0.38868  0.90575  1.0000
  S   S46       1.0  0.40033  0.36262  0.60329  1.0000
  H   H112      1.0  0.99904  0.65546  0.89102  1.0000
  S   S47       1.0  0.09127  0.49647  0.98453  1.0000
  C   C107      1.0  0.08743  0.54412  0.98551  1.0000
  C   C108      1.0  0.45772  0.43229  0.61380  1.0000
  S   S48       1.0  0.29444  0.37723  0.98914  1.0000
  C   C109      1.0  0.40581  0.52183  0.99722  1.0000
  H   H113      1.0  0.01135  0.42820  0.86999  1.0000
  C   C110      1.0  0.45048  0.56635  0.99869  1.0000
  H   H114      1.0  0.38789  0.50621  0.98082  1.0000
  H   H115      1.0  0.32188  0.43047  0.84003  1.0000
  N   N8        1.0  0.02527  0.46052  0.91277  1.0000
  H   H116      1.0  0.44483  0.39453  0.79376  1.0000
  H   H117      1.0  0.27282  0.33411  0.86379  1.0000
  C   C111      1.0  0.42708  0.54584  0.97779  1.0000
  Fe  Fe24      1.0  0.03801  0.63630  0.96884  1.0000
  H   H118      1.0  0.09452  0.54697  0.95524  1.0000
  C   C112      1.0  0.39588  0.36123  0.52227  1.0000
  C   C113      1.0  0.16804  0.40867  0.98626  1.0000
  C   C114      1.0  0.39858  0.36035  0.91597  1.0000
  C   C115      1.0  0.27030  0.35135  0.87375  1.0000
  C   C116      1.0  0.05386  0.47578  0.89685  1.0000
  H   H119      1.0  0.06570  0.46546  0.90731  1.0000
  H   H120      1.0  0.30490  0.38230  0.83954  1.0000
  H   H121      1.0  0.38833  0.37580  0.52565  1.0000
  Fe  Fe25      1.0  0.38858  0.32624  0.74562  1.0000
  C   C117      1.0  0.48050  0.40480  0.62693  1.0000
  H   H122      1.0  0.42538  0.54851  0.94640  1.0000
  H   H123      1.0  0.29406  0.43854  0.84484  1.0000
  H   H124      1.0  0.26375  0.41367  0.91087  1.0000
  C   C118      1.0  0.24934  0.34654  0.90079  1.0000
  H   H125      1.0  0.31710  0.44278  0.88604  1.0000
  H   H126      1.0  0.38413  0.35410  0.94063  1.0000
  N   N9        1.0  0.28607  0.40074  0.87361  1.0000
  C   C119      1.0  0.26550  0.39619  0.89994  1.0000
  C   C120      1.0  0.28844  0.37872  0.86015  1.0000
  Fe  Fe26      1.0  0.40612  0.34241  0.65875  1.0000
  H   H127      1.0  0.99890  0.33728  0.77003  1.0000
  H   H128      1.0  0.23076  0.36566  0.93521  1.0000
  C   C121      1.0  0.30564  0.42953  0.86026  1.0000
  H   H129      1.0  0.44522  0.41835  0.86471  1.0000
  H   H130      1.0  0.00994  0.39331  0.81347  1.0000
  C   C122      1.0  0.39980  0.34006  0.89325  1.0000
  H   H131      1.0  0.44201  0.42122  0.63759  1.0000
  H   H132      1.0  0.05349  0.47587  0.86409  1.0000
  H   H133      1.0  0.15577  0.41221  0.96427  1.0000
  C   C123      1.0  0.99581  0.36971  0.86797  1.0000
  C   C124      1.0  0.99224  0.37646  0.82891  1.0000
  N   N10       1.0  0.43404  0.37631  0.85098  1.0000
  H   H134      1.0  0.06538  0.49799  0.90672  1.0000
  H   H135      1.0  0.41760  0.33240  0.84223  1.0000
  C   C125      1.0  0.24675  0.36904  0.91378  1.0000
  C   C126      1.0  0.19427  0.41148  0.97598  1.0000
  H   H136      1.0  0.47262  0.41364  0.72592  1.0000
  C   C127      1.0  0.00586  0.43584  0.89574  1.0000
  S   S49       1.0  0.24405  0.41110  0.98891  1.0000
  H   H137      1.0  0.23533  0.32550  0.91204  1.0000
  C   C128      1.0  0.98662  0.63715  0.87306  1.0000
  H   H138      1.0  0.45607  0.63873  0.95731  1.0000
  H   H139      1.0  0.00699  0.35674  0.70198  1.0000
  H   H140      1.0  0.42011  0.32550  0.57661  1.0000
  H   H141      1.0  0.18005  0.48150  0.96737  1.0000
  C   C129      1.0  0.17195  0.48033  0.99680  1.0000
  N   N11       1.0  0.48306  0.43063  0.62172  1.0000
  H   H142      1.0  0.14522  0.49683  0.97930  1.0000
  S   S50       1.0  0.43824  0.32899  0.66190  1.0000
  C   C130      1.0  0.41372  0.33293  0.55113  1.0000
  Fe  Fe27      1.0  0.07335  0.45066  0.00237  1.0000
  C   C131      1.0  0.98879  0.61311  0.87889  1.0000
  C   C132      1.0  0.08268  0.56441  0.00291  1.0000
  H   H143      1.0  0.15641  0.65686  0.97970  1.0000
  C   C133      1.0  0.21089  0.40711  0.00398  1.0000
  C   C134      1.0  0.15240  0.48884  0.00346  1.0000
  C   C135      1.0  0.16109  0.77463  0.02766  1.0000
  C   C136      1.0  0.28335  0.92950  0.14775  1.0000
  Fe  Fe28      1.0  0.28335  0.88163  0.01079  1.0000
  H   H144      1.0  0.36472  0.96234  0.20137  1.0000
  C   C137      1.0  0.15172  0.67543  0.08759  1.0000
  S   S51       1.0  0.23654  0.84930  0.02517  1.0000
  Fe  Fe29      1.0  0.33350  0.92791  0.05889  1.0000
  S   S52       1.0  0.31732  0.88180  0.04869  1.0000
  S   S53       1.0  0.34692  0.94284  0.12246  1.0000
  H   H145      1.0  0.18027  0.81528  0.05558  1.0000
  H   H146      1.0  0.23474  0.93266  0.06773  1.0000
  S   S54       1.0  0.29846  0.92748  0.02385  1.0000
  C   C138      1.0  0.35476  0.97480  0.14575  1.0000
  C   C139      1.0  0.18333  0.80240  0.03469  1.0000
  C   C140      1.0  0.16943  0.68979  0.02265  1.0000
  H   H147      1.0  0.29743  0.92888  0.16986  1.0000
  C   C141      1.0  0.27081  0.88198  0.12808  1.0000
  N   N12       1.0  0.26826  0.90709  0.12348  1.0000
  C   C142      1.0  0.25030  0.90776  0.09587  1.0000
  H   H148      1.0  0.19660  0.74010  0.05136  1.0000
  H   H149      1.0  0.25770  0.86891  0.15309  1.0000
  C   C143      1.0  0.28186  0.95399  0.14334  1.0000
  C   C144      1.0  0.18077  0.72566  0.07319  1.0000
  H   H150      1.0  0.26407  0.86907  0.10088  1.0000
  C   C145      1.0  0.26440  0.95525  0.11430  1.0000
  H   H151      1.0  0.23797  0.88985  0.07698  1.0000
  C   C146      1.0  0.48153  0.66966  0.09038  1.0000
  C   C147      1.0  0.20931  0.81373  0.01489  1.0000
  C   C148      1.0  0.24831  0.93193  0.09058  1.0000
  H   H152      1.0  0.16449  0.73182  0.07580  1.0000
  H   H153      1.0  0.29312  0.88801  0.13347  1.0000
  H   H154      1.0  0.29471  0.97206  0.16178  1.0000
  H   H155      1.0  0.19169  0.72871  0.10196  1.0000
  H   H156      1.0  0.26352  0.97434  0.11005  1.0000
  N   N13       1.0  0.16743  0.69626  0.06090  1.0000
  C   C149      1.0  0.46082  0.91002  0.01830  1.0000
  H   H157      1.0  0.14140  0.76653  0.04322  1.0000
  S   S55       1.0  0.00849  0.65938  0.09779  1.0000
  N   N14       1.0  0.47659  0.66238  0.00905  1.0000
  C   C150      1.0  0.41639  0.90992  0.02161  1.0000
  C   C151      1.0  0.44404  0.91971  0.03504  1.0000
  C   C152      1.0  0.36279  0.97856  0.18581  1.0000
  H   H158      1.0  0.45244  0.93488  0.05857  1.0000
  H   H159      1.0  0.40373  0.91762  0.03470  1.0000
  S   S56       1.0  0.36296  0.94178  0.00725  1.0000
  Fe  Fe30      1.0  0.09302  0.68405  0.00701  1.0000
  H   H160      1.0  0.14935  0.68057  0.11754  1.0000
  C   C153      1.0  0.15556  0.66183  0.01034  1.0000
  S   S57       1.0  0.08112  0.66338  0.06735  1.0000
  H   H161      1.0  0.48403  0.67240  0.12209  1.0000
  Fe  Fe31      1.0  0.32705  0.93861  0.97080  1.0000
  S   S58       1.0  0.37118  0.87874  0.97187  1.0000
  S   S59       1.0  0.30934  0.89307  0.95486  1.0000
  H   H162      1.0  0.19318  0.75610  0.95928  1.0000
  H   H163      1.0  0.37764  0.93862  0.86519  1.0000
  C   C154      1.0  0.21258  0.79655  0.98785  1.0000
  Fe  Fe32      1.0  0.34416  0.89604  0.99423  1.0000
  C   C155      1.0  0.44970  0.89039  0.98791  1.0000
  C   C156      1.0  0.42199  0.88055  0.97450  1.0000
  C   C157      1.0  0.37472  0.93329  0.89714  1.0000
  C   C158      1.0  0.44416  0.95603  0.94569  1.0000
  H   H164      1.0  0.36683  0.91044  0.90137  1.0000
  H   H165      1.0  0.39447  0.98500  0.92463  1.0000
  H   H166      1.0  0.46238  0.88274  0.97482  1.0000
  C   C159      1.0  0.41899  0.94017  0.92494  1.0000
  H   H167      1.0  0.34656  0.96264  0.78998  1.0000
  H   H168      1.0  0.35814  0.93714  0.90862  1.0000
  C   C160      1.0  0.19026  0.76884  0.98058  1.0000
  H   H169      1.0  0.45770  0.94740  0.95203  1.0000
  H   H170      1.0  0.33191  0.94640  0.85895  1.0000
  H   H171      1.0  0.41350  0.86536  0.95098  1.0000
  C   C161      1.0  0.35136  0.97793  0.81287  1.0000
  N   N15       1.0  0.40120  0.95035  0.91838  1.0000
  C   C162      1.0  0.34327  0.96863  0.85216  1.0000
  H   H172      1.0  0.41335  0.91929  0.91518  1.0000
  H   H173      1.0  0.23223  0.80471  0.97214  1.0000
  S   S60       1.0  0.33905  0.97777  0.93237  1.0000
  C   C163      1.0  0.40838  0.97675  0.93042  1.0000
  C   C164      1.0  0.34899  0.98807  0.88214  1.0000
  C   C165      1.0  0.40522  0.89027  0.99127  1.0000
  S   S61       1.0  0.13728  0.72172  0.99111  1.0000
  C   C166      1.0  0.16426  0.75756  0.00034  1.0000
  H   H174      1.0  0.98639  0.66556  0.98727  1.0000
  H   H175      1.0  0.47483  0.67627  0.95068  1.0000
  S   S62       1.0  0.04970  0.67832  0.99515  1.0000
  C   C167      1.0  0.47519  0.65857  0.96620  1.0000
  H   H176      1.0  0.33909  0.98557  0.68389  1.0000
  C   C168      1.0  0.45122  0.98258  0.95926  1.0000
  H   H177      1.0  0.18087  0.70635  0.00101  1.0000
  Fe  Fe33      1.0  0.63708  0.07162  0.26797  1.0000
  S   S63       1.0  0.62391  0.10431  0.26569  1.0000
  S   S64       1.0  0.63607  0.05586  0.20516  1.0000
  Fe  Fe34      1.0  0.64467  0.07746  0.35890  1.0000
  S   S65       1.0  0.63145  0.10968  0.36138  1.0000
  S   S66       1.0  0.65906  0.06636  0.41633  1.0000
  Fe  Fe35      1.0  0.59770  0.08205  0.31858  1.0000
  S   S67       1.0  0.55107  0.06513  0.32543  1.0000
  Fe  Fe36      1.0  0.65941  0.12892  0.30836  1.0000
  S   S68       1.0  0.68765  0.17665  0.30663  1.0000
  S   S69       1.0  0.60896  0.04808  0.31920  1.0000
  S   S70       1.0  0.67457  0.09804  0.30760  1.0000
  H   H178      1.0  0.61357  0.03461  0.12892  1.0000
  Fe  Fe37      1.0  0.84993  0.29166  0.30589  1.0000
  S   S71       1.0  0.82183  0.24451  0.29673  1.0000
  C   C169      1.0  0.67936  0.01159  0.13305  1.0000
  C   C170      1.0  0.66798  0.03788  0.08461  1.0000
  H   H179      1.0  0.71408  0.10724  0.38579  1.0000
  H   H180      1.0  0.84318  0.25260  0.21570  1.0000
  C   C171      1.0  0.54251  0.99885  0.15230  1.0000
  C   C172      1.0  0.53649  0.08704  0.32206  1.0000
  C   C173      1.0  0.55220  0.11505  0.30948  1.0000
  C   C174      1.0  0.53912  0.13125  0.30501  1.0000
  C   C175      1.0  0.51037  0.11949  0.31310  1.0000
  C   C176      1.0  0.93112  0.27886  0.26508  1.0000
  C   C177      1.0  0.50794  0.07554  0.33089  1.0000
  H   H181      1.0  0.57428  0.12407  0.30266  1.0000
  H   H182      1.0  0.55119  0.15278  0.29462  1.0000
  H   H183      1.0  0.73991  0.12198  0.42464  1.0000
  H   H184      1.0  0.94570  0.30183  0.19267  1.0000
  C   C178      1.0  0.64612  0.06940  0.46281  1.0000
  C   C179      1.0  0.49496  0.09172  0.32658  1.0000
  C   C180      1.0  0.62433  0.07534  0.46556  1.0000
  C   C181      1.0  0.65867  0.06682  0.49782  1.0000
  H   H185      1.0  0.61431  0.07719  0.43902  1.0000
  C   C182      1.0  0.72495  0.19516  0.30328  1.0000
  C   C183      1.0  0.74001  0.18132  0.29689  1.0000
  C   C184      1.0  0.76962  0.19673  0.29508  1.0000
  C   C185      1.0  0.78453  0.22608  0.29969  1.0000
  C   C186      1.0  0.76950  0.23989  0.30624  1.0000
  C   C187      1.0  0.73988  0.22448  0.30796  1.0000
  H   H186      1.0  0.72883  0.15881  0.29290  1.0000
  H   H187      1.0  0.78103  0.18586  0.28982  1.0000
  H   H188      1.0  0.78066  0.26245  0.30972  1.0000
  H   H189      1.0  0.72845  0.23539  0.31286  1.0000
  C   C188      1.0  0.62311  0.02204  0.18473  1.0000
  C   C189      1.0  0.61411  0.01783  0.14513  1.0000
  C   C190      1.0  0.65891  0.99225  0.06833  1.0000
  H   H190      1.0  0.66258  0.16163  0.46402  1.0000
  C   C191      1.0  0.62379  0.00023  0.20534  1.0000
  H   H191      1.0  0.49091  0.09940  0.41404  1.0000
  H   H192      1.0  0.51101  0.09034  0.23908  1.0000
  H   H193      1.0  0.95352  0.29435  0.25857  1.0000
  C   C192      1.0  0.68530  0.13978  0.47487  1.0000
  H   H194      1.0  0.67904  0.17383  0.39440  1.0000
  H   H195      1.0  0.67517  0.05492  0.10556  1.0000
  H   H196      1.0  0.74380  0.14248  0.38096  1.0000
  C   C193      1.0  0.90545  0.29025  0.16758  1.0000
  C   C194      1.0  0.88403  0.26420  0.23974  1.0000
  H   H197      1.0  0.87545  0.25423  0.26805  1.0000
  N   N16       1.0  0.71147  0.13764  0.41999  1.0000
  C   C195      1.0  0.70279  0.13104  0.45831  1.0000
  C   C196      1.0  0.72823  0.12686  0.40202  1.0000
  H   H198      1.0  0.70232  0.01991  0.13092  1.0000
  C   C197      1.0  0.65768  0.04049  0.04781  1.0000
  S   S72       1.0  0.49370  0.13908  0.30338  1.0000
  H   H199      1.0  0.67542  0.06203  0.49607  1.0000
  H   H200      1.0  0.49577  0.05392  0.34087  1.0000
  H   H201      1.0  0.92613  0.28576  0.29303  1.0000
  H   H202      1.0  0.56012  0.02294  0.20543  1.0000
  H   H203      1.0  0.70931  0.15728  0.36675  1.0000
  S   S73       1.0  0.89057  0.30574  0.33913  1.0000
  C   C198      1.0  0.61510  0.07847  0.50279  1.0000
  C   C199      1.0  0.92318  0.29066  0.19771  1.0000
  H   H204      1.0  0.67540  0.02350  0.15592  1.0000
  H   H205      1.0  0.92873  0.25778  0.26939  1.0000
  C   C200      1.0  0.68589  0.16217  0.41298  1.0000
  H   H206      1.0  0.70843  0.11800  0.47580  1.0000
  H   H207      1.0  0.54085  0.01534  0.13696  1.0000
  C   C201      1.0  0.67674  0.15536  0.45193  1.0000
  S   S74       1.0  0.87128  0.32146  0.25487  1.0000
  C   C202      1.0  0.86564  0.26314  0.21013  1.0000
  N   N17       1.0  0.91241  0.27809  0.23343  1.0000
  C   C203      1.0  0.55308  0.00303  0.19078  1.0000
  H   H208      1.0  0.83740  0.28278  0.47657  1.0000
  H   H209      1.0  0.86251  0.27637  0.15111  1.0000
  C   C204      1.0  0.49313  0.09121  0.22701  1.0000
  C   C205      1.0  0.87649  0.27648  0.17396  1.0000
  C   C206      1.0  0.70311  0.15282  0.39735  1.0000
  C   C207      1.0  0.49729  0.11682  0.21213  1.0000
  H   H210      1.0  0.91426  0.30106  0.13978  1.0000
  N   N18       1.0  0.66816  0.01382  0.09459  1.0000
  H   H211      1.0  0.65707  0.05937  0.04026  1.0000
  C   C208      1.0  0.64874  0.99430  0.03118  1.0000
  H   H212      1.0  0.48658  0.08249  0.48066  1.0000
  H   H213      1.0  0.51799  0.13548  0.21320  1.0000
  H   H214      1.0  0.63097  0.00328  0.23568  1.0000
  H   H215      1.0  0.90086  0.30954  0.45305  1.0000
  H   H216      1.0  0.81882  0.31504  0.48409  1.0000
  C   C209      1.0  0.64801  0.01850  0.02096  1.0000
  S   S75       1.0  0.83957  0.32087  0.33749  1.0000
  C   C210      1.0  0.89869  0.31880  0.47977  1.0000
  C   C211      1.0  0.60624  0.99232  0.12609  1.0000
  H   H217      1.0  0.91558  0.27375  0.73658  1.0000
  C   C212      1.0  0.82554  0.25850  0.60866  1.0000
  C   C213      1.0  0.81037  0.30606  0.54639  1.0000
  C   C214      1.0  0.63187  0.02109  0.83007  1.0000
  H   H218      1.0  0.64979  0.03915  0.81689  1.0000
  Fe  Fe38      1.0  0.83911  0.30635  0.70119  1.0000
  S   S76       1.0  0.79190  0.27800  0.69266  1.0000
  S   S77       1.0  0.86925  0.29031  0.70225  1.0000
  Fe  Fe39      1.0  0.63337  0.08771  0.64582  1.0000
  S   S78       1.0  0.65527  0.13173  0.66966  1.0000
  S   S79       1.0  0.61456  0.07968  0.58364  1.0000
  Fe  Fe40      1.0  0.62849  0.06076  0.72945  1.0000
  S   S80       1.0  0.65056  0.10297  0.75840  1.0000
  S   S81       1.0  0.60255  0.01791  0.76068  1.0000
  Fe  Fe41      1.0  0.62445  0.11416  0.71938  1.0000
  S   S82       1.0  0.60038  0.13359  0.74381  1.0000
  Fe  Fe42      1.0  0.67996  0.11736  0.70624  1.0000
  S   S83       1.0  0.72692  0.14530  0.71721  1.0000
  S   S84       1.0  0.60072  0.07163  0.69351  1.0000
  S   S85       1.0  0.65992  0.07385  0.67948  1.0000
  C   C215      1.0  0.56912  0.12327  0.71708  1.0000
  C   C216      1.0  0.54560  0.12139  0.73584  1.0000
  C   C217      1.0  0.52078  0.11373  0.71438  1.0000
  C   C218      1.0  0.51978  0.10885  0.67384  1.0000
  C   C219      1.0  0.54331  0.11085  0.65515  1.0000
  C   C220      1.0  0.56774  0.11755  0.67678  1.0000
  H   H219      1.0  0.54651  0.12556  0.76709  1.0000
  H   H220      1.0  0.50263  0.11202  0.72908  1.0000
  H   H221      1.0  0.54281  0.10763  0.62368  1.0000
  H   H222      1.0  0.58587  0.11922  0.66202  1.0000
  C   C221      1.0  0.60635  0.00749  0.80943  1.0000
  H   H223      1.0  0.82574  0.26870  0.63679  1.0000
  C   C222      1.0  0.74547  0.18187  0.70686  1.0000
  C   C223      1.0  0.73275  0.19515  0.68738  1.0000
  C   C224      1.0  0.74765  0.22452  0.68184  1.0000
  C   C225      1.0  0.77526  0.24093  0.69609  1.0000
  C   C226      1.0  0.78826  0.22761  0.71462  1.0000
  C   C227      1.0  0.77342  0.19821  0.71991  1.0000
  H   H224      1.0  0.71134  0.18288  0.67699  1.0000
  H   H225      1.0  0.73745  0.23462  0.66733  1.0000
  H   H226      1.0  0.80947  0.23998  0.72588  1.0000
  H   H227      1.0  0.78348  0.18811  0.73489  1.0000
  H   H228      1.0  0.52541  0.16313  0.67151  1.0000
  H   H229      1.0  0.95294  0.29567  0.78744  1.0000
  N   N19       1.0  0.49218  0.19963  0.68770  1.0000
  C   C228      1.0  0.64982  0.07054  0.53510  1.0000
  C   C229      1.0  0.62782  0.07623  0.53775  1.0000
  H   H230      1.0  0.84116  0.25732  0.53496  1.0000
  H   H231      1.0  0.65962  0.06846  0.56175  1.0000
  H   H232      1.0  0.80216  0.32010  0.55004  1.0000
  N   N20       1.0  0.54283  0.03622  0.63484  1.0000
  H   H233      1.0  0.67760  0.13357  0.50482  1.0000
  H   H234      1.0  0.90902  0.29387  0.51869  1.0000
  H   H235      1.0  0.52446  0.05511  0.59944  1.0000
  H   H236      1.0  0.65462  0.02103  0.88231  1.0000
  C   C230      1.0  0.51718  0.17432  0.68758  1.0000
  C   C231      1.0  0.54426  0.05448  0.60204  1.0000
  C   C232      1.0  0.55659  0.00496  0.66415  1.0000
  C   C233      1.0  0.55620  0.02102  0.63206  1.0000
  C   C234      1.0  0.50901  0.19079  0.74883  1.0000
  H   H237      1.0  0.52052  0.02107  0.72947  1.0000
  H   H238      1.0  0.80726  0.23675  0.60912  1.0000
  C   C235      1.0  0.93604  0.29133  0.72866  1.0000
  H   H239      1.0  0.56211  0.07611  0.60705  1.0000
  S   S86       1.0  0.49014  0.10161  0.64499  1.0000
  C   C236      1.0  0.52019  0.17683  0.72848  1.0000
  C   C237      1.0  0.54345  0.00473  0.69928  1.0000
  H   H240      1.0  0.53084  0.16764  0.74443  1.0000
  N   N21       1.0  0.70895  0.19187  0.78235  1.0000
  C   C238      1.0  0.72895  0.21948  0.77662  1.0000
  C   C239      1.0  0.68179  0.18211  0.77035  1.0000
  C   C240      1.0  0.72218  0.23791  0.75731  1.0000
  C   C241      1.0  0.67432  0.19987  0.75069  1.0000
  C   C242      1.0  0.69472  0.22792  0.74400  1.0000
  C   C243      1.0  0.71642  0.17302  0.80310  1.0000
  H   H241      1.0  0.75054  0.22725  0.78589  1.0000
  H   H242      1.0  0.66569  0.16044  0.77567  1.0000
  H   H243      1.0  0.73843  0.25954  0.75157  1.0000
  H   H244      1.0  0.65281  0.19173  0.74061  1.0000
  H   H245      1.0  0.68932  0.24185  0.72833  1.0000
  H   H246      1.0  0.71386  0.17388  0.83539  1.0000
  H   H247      1.0  0.70310  0.15101  0.79303  1.0000
  H   H248      1.0  0.73845  0.17876  0.79656  1.0000
  H   H249      1.0  0.54470  0.99333  0.72489  1.0000
  H   H250      1.0  0.56760  0.02216  0.60547  1.0000
  C   C244      1.0  0.83206  0.27063  0.53829  1.0000
  C   C245      1.0  0.50289  0.18577  0.66757  1.0000
  C   C246      1.0  0.63454  0.01070  0.86724  1.0000
  H   H251      1.0  0.56812  0.99381  0.66247  1.0000
  C   C247      1.0  0.52999  0.02038  0.70189  1.0000
  H   H252      1.0  0.52041  0.04917  0.67197  1.0000
  N   N22       1.0  0.82358  0.27408  0.57456  1.0000
  C   C248      1.0  0.95705  0.30364  0.75728  1.0000
  H   H253      1.0  0.96174  0.32062  0.61852  1.0000
  H   H254      1.0  0.92465  0.29309  0.66836  1.0000
  H   H255      1.0  0.92935  0.31474  0.88248  1.0000
  H   H256      1.0  0.51050  0.19220  0.78075  1.0000
  H   H257      1.0  0.54795  0.04719  0.57346  1.0000
  H   H258      1.0  0.84542  0.25792  0.60783  1.0000
  H   H259      1.0  0.80504  0.29336  0.60744  1.0000
  C   C249      1.0  0.53000  0.03622  0.66925  1.0000
  C   C250      1.0  0.81229  0.29105  0.57878  1.0000
  S   S87       1.0  0.91108  0.31665  0.80329  1.0000
  C   C251      1.0  0.49513  0.20227  0.72782  1.0000
  H   H260      1.0  0.48844  0.22305  0.63995  1.0000
  H   H261      1.0  0.63984  0.02006  0.99229  1.0000
  H   H262      1.0  0.49998  0.18305  0.63591  1.0000
  C   C252      1.0  0.90326  0.30994  0.51702  1.0000
  Fe  Fe43      1.0  0.89180  0.32238  0.65420  1.0000
  C   C253      1.0  0.94122  0.30255  0.69035  1.0000
  S   S88       1.0  0.90448  0.30902  0.59852  1.0000
  C   C254      1.0  0.81943  0.30303  0.50941  1.0000
  C   C255      1.0  0.82996  0.28491  0.50517  1.0000
  C   C256      1.0  0.90006  0.32153  0.55200  1.0000
  H   H263      1.0  0.48578  0.21236  0.74404  1.0000
  H   H264      1.0  0.59797  0.08269  0.50443  1.0000
  H   H265      1.0  0.54533  0.41577  0.36604  1.0000
  S   S89       1.0  0.55793  0.61784  0.12953  1.0000
  H   H266      1.0  0.53893  0.52874  0.14983  1.0000
  C   C257      1.0  0.56780  0.48294  0.39303  1.0000
  H   H267      1.0  0.63769  0.56005  0.18449  1.0000
  Fe  Fe44      1.0  0.86456  0.35199  0.28969  1.0000
  S   S90       1.0  0.85442  0.38184  0.25734  1.0000
  S   S91       1.0  0.90557  0.37019  0.32200  1.0000
  S   S92       1.0  0.88307  0.35041  0.43197  1.0000
  C   C258      1.0  0.92417  0.42874  0.23370  1.0000
  C   C259      1.0  0.58477  0.61810  0.15942  1.0000
  Fe  Fe45      1.0  0.87097  0.51952  0.33719  1.0000
  S   S93       1.0  0.91378  0.55678  0.34699  1.0000
  S   S94       1.0  0.86112  0.47808  0.36439  1.0000
  Fe  Fe46      1.0  0.84952  0.55445  0.29592  1.0000
  S   S95       1.0  0.89113  0.59464  0.30195  1.0000
  S   S96       1.0  0.81095  0.54983  0.26431  1.0000
  Fe  Fe47      1.0  0.91048  0.56877  0.28396  1.0000
  S   S97       1.0  0.94718  0.57648  0.24420  1.0000
  Fe  Fe48      1.0  0.89066  0.57879  0.36412  1.0000
  S   S98       1.0  0.89980  0.60558  0.41866  1.0000
  S   S99       1.0  0.86877  0.52959  0.27358  1.0000
  S   S100      1.0  0.84797  0.54067  0.35872  1.0000
  Fe  Fe49      1.0  0.64546  0.58281  0.28584  1.0000
  S   S101      1.0  0.66105  0.55308  0.27239  1.0000
  S   S102      1.0  0.65235  0.61380  0.23588  1.0000
  Fe  Fe50      1.0  0.62833  0.55917  0.37052  1.0000
  S   S103      1.0  0.64219  0.52771  0.36214  1.0000
  S   S104      1.0  0.60552  0.55690  0.42731  1.0000
  Fe  Fe51      1.0  0.68030  0.56293  0.33292  1.0000
  S   S105      1.0  0.72372  0.57296  0.35359  1.0000
  Fe  Fe52      1.0  0.62152  0.52080  0.30275  1.0000
  S   S106      1.0  0.59532  0.47701  0.27853  1.0000
  S   S107      1.0  0.66772  0.59523  0.34486  1.0000
  S   S108      1.0  0.60479  0.54982  0.31257  1.0000
  C   C260      1.0  0.62315  0.56408  0.47354  1.0000
  H   H268      1.0  0.58687  0.50286  0.39772  1.0000
  C   C261      1.0  0.74349  0.62648  0.28306  1.0000
  H   H269      1.0  0.66425  0.57861  0.44932  1.0000
  N   N23       1.0  0.96103  0.62479  0.01237  1.0000
  C   C262      1.0  0.55851  0.46123  0.28135  1.0000
  C   C263      1.0  0.54593  0.47741  0.28764  1.0000
  C   C264      1.0  0.51672  0.46445  0.29189  1.0000
  H   H270      1.0  0.70953  0.62009  0.24383  1.0000
  C   C265      1.0  0.51225  0.41884  0.28340  1.0000
  C   C266      1.0  0.54154  0.43195  0.27828  1.0000
  H   H271      1.0  0.55861  0.49991  0.28933  1.0000
  H   H272      1.0  0.50724  0.47717  0.29713  1.0000
  C   C267      1.0  0.92474  0.45074  0.29673  1.0000
  H   H273      1.0  0.55114  0.41932  0.27306  1.0000
  C   C268      1.0  0.89835  0.59098  0.46620  1.0000
  H   H274      1.0  0.54088  0.49946  0.40539  1.0000
  C   C269      1.0  0.59738  0.59957  0.21741  1.0000
  C   C270      1.0  0.51854  0.43245  0.38090  1.0000
  C   C271      1.0  0.78614  0.55506  0.28990  1.0000
  C   C272      1.0  0.79060  0.56386  0.32912  1.0000
  C   C273      1.0  0.77077  0.56837  0.34853  1.0000
  C   C274      1.0  0.74629  0.56405  0.32903  1.0000
  C   C275      1.0  0.74159  0.55485  0.28997  1.0000
  C   C276      1.0  0.76151  0.55042  0.27048  1.0000
  H   H275      1.0  0.80951  0.56761  0.34437  1.0000
  H   H276      1.0  0.77460  0.57557  0.37872  1.0000
  H   H277      1.0  0.72284  0.55148  0.27464  1.0000
  H   H278      1.0  0.75789  0.54355  0.24013  1.0000
  C   C277      1.0  0.95637  0.61963  0.19125  1.0000
  C   C278      1.0  0.96059  0.64788  0.32891  1.0000
  H   H279      1.0  0.94077  0.62180  0.20753  1.0000
  C   C279      1.0  0.96277  0.59893  0.20241  1.0000
  C   C280      1.0  0.62586  0.61540  0.20750  1.0000
  C   C281      1.0  0.63365  0.63258  0.17348  1.0000
  C   C282      1.0  0.61324  0.63384  0.14943  1.0000
  H   H280      1.0  0.92194  0.43221  0.31242  1.0000
  C   C283      1.0  0.97058  0.63798  0.15929  1.0000
  H   H281      1.0  0.92894  0.51328  0.31490  1.0000
  C   C284      1.0  0.71662  0.64984  0.28938  1.0000
  C   C285      1.0  0.85549  0.40816  0.28711  1.0000
  C   C286      1.0  0.85641  0.40629  0.32820  1.0000
  C   C287      1.0  0.85786  0.42780  0.35159  1.0000
  C   C288      1.0  0.85902  0.45152  0.33401  1.0000
  C   C289      1.0  0.85835  0.45352  0.29287  1.0000
  C   C290      1.0  0.85626  0.43170  0.26947  1.0000
  H   H282      1.0  0.85585  0.38818  0.34200  1.0000
  H   H283      1.0  0.85839  0.42615  0.38341  1.0000
  H   H284      1.0  0.85923  0.47173  0.27910  1.0000
  H   H285      1.0  0.85565  0.43321  0.23764  1.0000
  H   H286      1.0  0.94026  0.36673  0.12249  1.0000
  C   C291      1.0  0.97201  0.63557  0.30539  1.0000
  C   C292      1.0  0.92864  0.49635  0.29852  1.0000
  C   C293      1.0  0.98152  0.61643  0.36406  1.0000
  C   C294      1.0  0.95458  0.36645  0.14433  1.0000
  H   H287      1.0  0.59907  0.52334  0.22541  1.0000
  C   C295      1.0  0.60938  0.56385  0.14361  1.0000
  H   H288      1.0  0.92504  0.35526  0.19244  1.0000
  Fe  Fe53      1.0  0.56053  0.63788  0.06883  1.0000
  H   H289      1.0  0.55506  0.58886  0.20165  1.0000
  H   H290      1.0  0.65562  0.64497  0.16556  1.0000
  H   H291      1.0  0.91920  0.41023  0.25275  1.0000
  H   H292      1.0  0.57359  0.55362  0.07288  1.0000
  H   H293      1.0  0.89640  0.62410  0.49653  1.0000
  H   H294      1.0  0.95129  0.62271  0.07353  1.0000
  Fe  Fe54      1.0  0.88141  0.33682  0.36808  1.0000
  C   C296      1.0  0.57549  0.56651  0.09885  1.0000
  H   H295      1.0  0.90060  0.55543  0.44534  1.0000
  C   C297      1.0  0.98154  0.37247  0.13253  1.0000
  C   C298      1.0  0.92869  0.47517  0.23669  1.0000
  N   N24       1.0  0.79060  0.46749  0.34035  1.0000
  C   C299      1.0  0.79355  0.44519  0.33009  1.0000
  C   C300      1.0  0.78714  0.48336  0.31186  1.0000
  C   C301      1.0  0.79297  0.43817  0.29044  1.0000
  C   C302      1.0  0.78667  0.47705  0.27191  1.0000
  C   C303      1.0  0.78965  0.45433  0.26120  1.0000
  C   C304      1.0  0.79134  0.47422  0.38222  1.0000
  H   H296      1.0  0.79709  0.43310  0.35263  1.0000
  H   H297      1.0  0.78504  0.50124  0.31975  1.0000
  H   H298      1.0  0.79576  0.42069  0.28250  1.0000
  H   H299      1.0  0.78433  0.48999  0.24945  1.0000
  H   H300      1.0  0.78963  0.44942  0.23030  1.0000
  H   H301      1.0  0.81201  0.47940  0.39526  1.0000
  H   H302      1.0  0.78851  0.49261  0.38666  1.0000
  H   H303      1.0  0.77439  0.45600  0.39844  1.0000
  H   H304      1.0  0.61954  0.64709  0.12329  1.0000
  C   C305      1.0  0.94590  0.36000  0.18405  1.0000
  C   C306      1.0  0.89990  0.56654  0.47100  1.0000
  H   H305      1.0  0.55559  0.56683  0.10240  1.0000
  C   C307      1.0  0.93009  0.49766  0.25742  1.0000
  C   C308      1.0  0.57701  0.60106  0.19360  1.0000
  H   H306      1.0  0.59105  0.58633  0.24353  1.0000
  C   C309      1.0  0.72211  0.63116  0.26939  1.0000
  C   C310      1.0  0.96398  0.35908  0.21255  1.0000
  C   C311      1.0  0.94629  0.58374  0.05319  1.0000
  H   H307      1.0  0.49939  0.41280  0.37470  1.0000
  C   C312      1.0  0.56642  0.52359  0.19010  1.0000
  C   C313      1.0  0.95252  0.61154  0.04823  1.0000
  H   H308      1.0  0.48958  0.46594  0.42057  1.0000
  C   C314      1.0  0.49991  0.43514  0.29069  1.0000
  H   H309      1.0  0.96581  0.65421  0.15135  1.0000
  C   C315      1.0  0.59427  0.53225  0.19979  1.0000
  H   H310      1.0  0.62637  0.57998  0.12608  1.0000
  H   H311      1.0  0.77709  0.62592  0.35878  1.0000
  H   H312      1.0  0.90692  0.42139  0.21153  1.0000
  H   H313      1.0  0.92410  0.47127  0.35028  1.0000
  S   S109      1.0  0.52882  0.65120  0.05485  1.0000
  N   N25       1.0  0.51737  0.45571  0.39157  1.0000
  H   H314      1.0  0.95045  0.65335  0.38789  1.0000
  H   H315      1.0  0.74724  0.61148  0.26785  1.0000
  H   H316      1.0  0.95989  0.63550  0.44508  1.0000
  N   N26       1.0  0.58200  0.55533  0.13439  1.0000
  H   H317      1.0  0.49936  0.39618  0.28223  1.0000
  H   H318      1.0  0.54949  0.50792  0.20823  1.0000
  H   H319      1.0  0.94079  0.57382  0.08215  1.0000
  H   H320      1.0  0.94368  0.54785  0.02429  1.0000
  H   H321      1.0  0.69991  0.65345  0.27931  1.0000
  H   H322      1.0  0.78559  0.62239  0.30904  1.0000
  Fe  Fe55      1.0  0.91106  0.33785  0.28989  1.0000
  C   C316      1.0  0.96907  0.62422  0.42984  1.0000
  C   C317      1.0  0.56923  0.45947  0.38175  1.0000
  H   H323      1.0  0.94441  0.43540  0.21859  1.0000
  C   C318      1.0  0.65216  0.57479  0.47600  1.0000
  S   S110      1.0  0.95315  0.34849  0.26232  1.0000
  C   C319      1.0  0.89107  0.33949  0.47730  1.0000
  N   N27       1.0  0.92586  0.45204  0.25637  1.0000
  C   C320      1.0  0.54159  0.48079  0.39754  1.0000
  H   H324      1.0  0.92958  0.47618  0.20471  1.0000
  C   C321      1.0  0.49015  0.45434  0.39437  1.0000
  C   C322      1.0  0.92607  0.47284  0.31838  1.0000
  C   C323      1.0  0.56062  0.53540  0.15705  1.0000
  N   N28       1.0  0.97030  0.62858  0.38695  1.0000
  C   C324      1.0  0.61593  0.55258  0.17654  1.0000
  C   C325      1.0  0.54446  0.43396  0.37591  1.0000
  H   H325      1.0  0.93198  0.51588  0.24176  1.0000
  C   C326      1.0  0.95993  0.64419  0.36990  1.0000
  H   H326      1.0  0.95537  0.60152  0.43692  1.0000
  H   H327      1.0  0.59209  0.58866  0.09294  1.0000
  H   H328      1.0  0.58950  0.46124  0.37659  1.0000
  N   N29       1.0  0.75912  0.64029  0.31553  1.0000
  C   C327      1.0  0.94791  0.56922  0.02082  1.0000
  S   S111      1.0  0.54794  0.60967  0.01628  1.0000
  C   C328      1.0  0.78216  0.63616  0.32914  1.0000
  H   H329      1.0  0.97226  0.63782  0.27349  1.0000
  C   C329      1.0  0.98260  0.61979  0.32299  1.0000
  C   C330      1.0  0.98300  0.59643  0.18058  1.0000
  C   C331      1.0  0.89749  0.60512  0.49992  1.0000
  H   H330      1.0  0.48647  0.46362  0.36727  1.0000
  C   C332      1.0  0.96829  0.65418  0.00769  1.0000
  H   H331      1.0  0.80209  0.65661  0.33086  1.0000
  H   H332      1.0  0.63473  0.59569  0.83709  1.0000
  Fe  Fe56      1.0  0.88701  0.36768  0.69768  1.0000
  S   S112      1.0  0.90478  0.41451  0.69213  1.0000
  S   S113      1.0  0.92038  0.35545  0.69729  1.0000
  Fe  Fe57      1.0  0.84500  0.57051  0.69624  1.0000
  S   S114      1.0  0.89044  0.60094  0.68185  1.0000
  S   S115      1.0  0.81510  0.58732  0.68620  1.0000
  Fe  Fe58      1.0  0.85788  0.52358  0.71462  1.0000
  S   S116      1.0  0.90399  0.55112  0.70272  1.0000
  S   S117      1.0  0.83688  0.47678  0.72697  1.0000
  Fe  Fe59      1.0  0.90047  0.58393  0.73698  1.0000
  S   S118      1.0  0.93041  0.61628  0.78203  1.0000
  Fe  Fe60      1.0  0.88958  0.56523  0.64903  1.0000
  S   S119      1.0  0.90551  0.55950  0.58994  1.0000
  S   S120      1.0  0.85482  0.55526  0.75268  1.0000
  S   S121      1.0  0.84361  0.53622  0.65980  1.0000
  Fe  Fe61      1.0  0.64115  0.59463  0.73722  1.0000
  S   S122      1.0  0.62717  0.55253  0.76525  1.0000
  S   S123      1.0  0.63797  0.62966  0.76786  1.0000
  Fe  Fe62      1.0  0.64913  0.57465  0.65507  1.0000
  S   S124      1.0  0.63402  0.53092  0.67804  1.0000
  S   S125      1.0  0.66879  0.58585  0.59374  1.0000
  Fe  Fe63      1.0  0.60112  0.53537  0.71041  1.0000
  S   S126      1.0  0.55388  0.50744  0.71227  1.0000
  Fe  Fe64      1.0  0.66207  0.55275  0.73003  1.0000
  S   S127      1.0  0.69068  0.53663  0.75196  1.0000
  S   S128      1.0  0.61389  0.57746  0.68313  1.0000
  S   S129      1.0  0.67827  0.59641  0.70633  1.0000
  C   C333      1.0  0.51093  0.41294  0.73528  1.0000
  C   C334      1.0  0.55729  0.59762  0.82024  1.0000
  C   C335      1.0  0.50866  0.45516  0.72253  1.0000
  C   C336      1.0  0.53805  0.47150  0.72383  1.0000
  C   C337      1.0  0.55393  0.45867  0.73195  1.0000
  C   C338      1.0  0.54032  0.42941  0.73800  1.0000
  H   H333      1.0  0.55327  0.47193  0.63518  1.0000
  C   C339      1.0  0.97206  0.42904  0.94572  1.0000
  H   H334      1.0  0.57664  0.47121  0.73308  1.0000
  H   H335      1.0  0.55264  0.41946  0.74391  1.0000
  C   C340      1.0  0.78126  0.57362  0.70699  1.0000
  C   C341      1.0  0.76911  0.54959  0.73105  1.0000
  C   C342      1.0  0.74157  0.53885  0.74544  1.0000
  C   C343      1.0  0.72591  0.55186  0.73561  1.0000
  C   C344      1.0  0.73836  0.57618  0.71212  1.0000
  C   C345      1.0  0.76595  0.58711  0.69818  1.0000
  H   H336      1.0  0.78073  0.53906  0.73816  1.0000
  H   H337      1.0  0.73213  0.52006  0.76368  1.0000
  H   H338      1.0  0.72662  0.58645  0.70441  1.0000
  H   H339      1.0  0.77522  0.60582  0.67979  1.0000
  C   C346      1.0  0.74566  0.53987  0.62955  1.0000
  C   C347      1.0  0.65041  0.57657  0.54806  1.0000
  H   H340      1.0  0.71974  0.57807  0.58841  1.0000
  H   H341      1.0  0.96083  0.35040  0.63787  1.0000
  H   H342      1.0  0.60931  0.56187  0.57239  1.0000
  H   H343      1.0  0.78975  0.58691  0.60663  1.0000
  C   C348      1.0  0.89831  0.59503  0.53813  1.0000
  C   C349      1.0  0.90079  0.57111  0.54289  1.0000
  H   H344      1.0  0.80851  0.61786  0.76275  1.0000
  H   H345      1.0  0.89800  0.60631  0.56384  1.0000
  H   H346      1.0  0.77200  0.57647  0.55932  1.0000
  S   S130      1.0  0.60684  0.63231  0.94859  1.0000
  C   C350      1.0  0.95265  0.61426  0.81907  1.0000
  C   C351      1.0  0.62231  0.61217  0.88570  1.0000
  C   C352      1.0  0.98281  0.32712  0.74749  1.0000
  C   C353      1.0  0.62922  0.63002  0.81818  1.0000
  H   H347      1.0  0.77089  0.60325  0.58839  1.0000
  H   H348      1.0  0.55336  0.60892  0.89378  1.0000
  C   C354      1.0  0.50410  0.40238  0.63549  1.0000
  C   C355      1.0  0.89282  0.34243  0.54937  1.0000
  C   C356      1.0  0.88573  0.43096  0.70565  1.0000
  C   C357      1.0  0.89987  0.46038  0.70683  1.0000
  C   C358      1.0  0.88517  0.47454  0.71410  1.0000
  C   C359      1.0  0.85613  0.45942  0.72011  1.0000
  C   C360      1.0  0.84199  0.42991  0.71957  1.0000
  C   C361      1.0  0.85673  0.41567  0.71234  1.0000
  H   H349      1.0  0.92231  0.47233  0.70180  1.0000
  H   H350      1.0  0.89642  0.49715  0.71517  1.0000
  H   H351      1.0  0.81953  0.41804  0.72444  1.0000
  H   H352      1.0  0.84564  0.39296  0.71144  1.0000
  C   C362      1.0  0.72163  0.51927  0.64904  1.0000
  H   H353      1.0  0.96367  0.36695  0.77947  1.0000
  H   H354      1.0  0.67829  0.50502  0.66278  1.0000
  H   H355      1.0  0.87192  0.64508  0.70965  1.0000
  C   C363      1.0  0.56711  0.56862  0.77821  1.0000
  H   H356      1.0  0.57288  0.56435  0.74970  1.0000
  H   H357      1.0  0.56840  0.60652  0.75852  1.0000
  C   C364      1.0  0.87219  0.62663  0.78366  1.0000
  H   H358      1.0  0.49633  0.46506  0.71630  1.0000
  C   C365      1.0  0.86522  0.60764  0.81518  1.0000
  C   C366      1.0  0.81680  0.59570  0.80846  1.0000
  C   C367      1.0  0.83728  0.59187  0.82732  1.0000
  Fe  Fe65      1.0  0.51911  0.62559  0.00005  1.0000
  C   C368      1.0  0.94676  0.33227  0.86756  1.0000
  S   S131      1.0  0.86254  0.33897  0.74797  1.0000
  H   H359      1.0  0.88135  0.60463  0.82920  1.0000
  S   S132      1.0  0.49451  0.37614  0.73982  1.0000
  H   H360      1.0  0.83148  0.57649  0.85096  1.0000
  C   C369      1.0  0.53298  0.45287  0.63196  1.0000
  H   H361      1.0  0.97415  0.57096  0.85882  1.0000
  H   H362      1.0  0.96826  0.62083  0.95177  1.0000
  C   C370      1.0  0.92528  0.48186  0.60531  1.0000
  N   N30       1.0  0.96663  0.32548  0.68089  1.0000
  Fe  Fe66      1.0  0.89475  0.32521  0.74548  1.0000
  H   H363      1.0  0.89386  0.63834  0.77375  1.0000
  C   C371      1.0  0.61493  0.63190  0.89797  1.0000
  C   C372      1.0  0.90154  0.55694  0.50912  1.0000
  C   C373      1.0  0.49516  0.42597  0.72789  1.0000
  H   H364      1.0  0.54882  0.42511  0.64590  1.0000
  C   C374      1.0  0.97272  0.34785  0.88747  1.0000
  N   N31       1.0  0.85194  0.62996  0.76497  1.0000
  C   C375      1.0  0.95469  0.59018  0.82508  1.0000
  N   N32       1.0  0.87956  0.47584  0.61656  1.0000
  C   C376      1.0  0.90781  0.49312  0.61103  1.0000
  C   C377      1.0  0.86782  0.44728  0.61554  1.0000
  C   C378      1.0  0.88464  0.43532  0.60950  1.0000
  C   C379      1.0  0.96868  0.63767  0.84336  1.0000
  C   C380      1.0  0.86197  0.48827  0.62348  1.0000
  H   H365      1.0  0.84555  0.43359  0.62093  1.0000
  H   H366      1.0  0.87557  0.41269  0.61068  1.0000
  H   H367      1.0  0.84092  0.47269  0.63525  1.0000
  H   H368      1.0  0.87202  0.50491  0.64601  1.0000
  H   H369      1.0  0.85951  0.49786  0.59578  1.0000
  H   H370      1.0  0.72256  0.50339  0.66719  1.0000
  H   H371      1.0  0.50182  0.38191  0.64130  1.0000
  C   C381      1.0  0.72054  0.56157  0.60524  1.0000
  C   C382      1.0  0.91357  0.45275  0.60481  1.0000
  H   H372      1.0  0.94260  0.57201  0.80669  1.0000
  N   N33       1.0  0.74507  0.56110  0.60895  1.0000
  C   C383      1.0  0.54612  0.58621  0.89046  1.0000
  H   H373      1.0  0.89073  0.35189  0.57587  1.0000
  H   H374      1.0  0.76513  0.53952  0.63257  1.0000
  H   H375      1.0  0.51102  0.47514  0.62078  1.0000
  H   H376      1.0  0.96396  0.39978  0.89871  1.0000
  H   H377      1.0  0.92692  0.44363  0.60201  1.0000
  H   H378      1.0  0.62293  0.59775  0.90711  1.0000
  C   C384      1.0  0.55645  0.55722  0.84720  1.0000
  H   H379      1.0  0.67688  0.54185  0.62125  1.0000
  C   C385      1.0  0.62905  0.61096  0.84600  1.0000
  H   H380      1.0  0.55567  0.61627  0.82392  1.0000
  N   N34       1.0  0.55382  0.58043  0.85181  1.0000
  H   H381      1.0  0.95149  0.41643  0.95901  1.0000
  S   S133      1.0  0.86058  0.33685  0.65110  1.0000
  C   C386      1.0  0.66571  0.58117  0.51305  1.0000
  C   C387      1.0  0.94326  0.33887  0.82841  1.0000
  C   C388      1.0  0.56313  0.55096  0.81035  1.0000
  Fe  Fe67      1.0  0.58097  0.64713  0.98266  1.0000
  C   C389      1.0  0.50888  0.45454  0.62402  1.0000
  C   C390      1.0  0.96602  0.36154  0.80951  1.0000
  H   H382      1.0  0.94778  0.49562  0.60215  1.0000
  C   C391      1.0  0.69679  0.52015  0.64655  1.0000
  H   H383      1.0  0.90358  0.53850  0.51246  1.0000
  H   H384      1.0  0.52298  0.57392  0.89448  1.0000
  H   H385      1.0  0.56560  0.53279  0.80661  1.0000
  C   C392      1.0  0.69609  0.54109  0.62389  1.0000
  H   H386      1.0  0.95727  0.57173  0.95859  1.0000
  H   H387      1.0  0.91703  0.51578  0.61192  1.0000
  C   C393      1.0  0.53048  0.42662  0.63802  1.0000
  C   C394      1.0  0.62129  0.56532  0.54570  1.0000
  H   H388      1.0  0.79491  0.58333  0.81721  1.0000
  C   C395      1.0  0.77067  0.58297  0.58972  1.0000
  C   C396      1.0  0.97266  0.58967  0.85472  1.0000
  C   C397      1.0  0.56422  0.59212  0.78309  1.0000
  H   H389      1.0  0.55380  0.54365  0.87221  1.0000
  H   H390      1.0  0.55652  0.58095  0.91470  1.0000
  C   C398      1.0  0.62198  0.64987  0.83046  1.0000
  C   C399      1.0  0.82462  0.61522  0.77748  1.0000
  C   C400      1.0  0.61448  0.65058  0.87000  1.0000
  H   H391      1.0  0.68822  0.58993  0.51453  1.0000
  C   C401      1.0  0.97110  0.33752  0.64095  1.0000
  H   H392      1.0  0.97511  0.34228  0.91742  1.0000
  C   C402      1.0  0.85991  0.64968  0.73159  1.0000
  H   H393      1.0  0.88275  0.36751  0.51067  1.0000
  C   C403      1.0  0.88848  0.35140  0.51228  1.0000
  C   C404      1.0  0.96191  0.61047  0.98030  1.0000
  C   C405      1.0  0.97900  0.41970  0.91190  1.0000
  H   H394      1.0  0.84117  0.64760  0.71577  1.0000
  C   C406      1.0  0.95548  0.58255  0.98400  1.0000
  C   C407      1.0  0.60778  0.55928  0.50856  1.0000
  H   H395      1.0  0.96746  0.65650  0.83887  1.0000
  H   H396      1.0  0.94998  0.65523  0.99590  1.0000
  H   H397      1.0  0.58536  0.55113  0.50695  1.0000
  H   H398      1.0  0.76513  0.66825  0.36238  1.0000
  H   H399      1.0  0.54963  0.94037  0.20537  1.0000
  S   S134      1.0  0.49565  0.92371  0.03593  1.0000
  Fe  Fe68      1.0  0.56269  0.68697  0.01914  1.0000
  C   C408      1.0  0.60813  0.97099  0.14612  1.0000
  S   S135      1.0  0.60026  0.91514  0.00914  1.0000
  Fe  Fe69      1.0  0.58228  0.92622  0.06091  1.0000
  S   S136      1.0  0.53996  0.88693  0.05576  1.0000
  S   S137      1.0  0.60245  0.94025  0.12170  1.0000
  H   H400      1.0  0.61817  0.95858  0.20174  1.0000
  C   C409      1.0  0.55521  0.98169  0.21016  1.0000
  H   H401      1.0  0.57332  0.82246  0.05176  1.0000
  H   H402      1.0  0.53992  0.91566  0.14475  1.0000
  H   H403      1.0  0.59983  0.98967  0.09547  1.0000
  S   S138      1.0  0.59540  0.67495  0.03676  1.0000
  C   C410      1.0  0.49468  0.68827  0.02426  1.0000
  S   S139      1.0  0.56817  0.73109  0.03103  1.0000
  H   H404      1.0  0.52639  0.97018  0.10354  1.0000
  C   C411      1.0  0.56710  0.80537  0.03137  1.0000
  H   H405      1.0  0.51252  0.71281  0.07679  1.0000
  C   C412      1.0  0.52937  0.92666  0.13191  1.0000
  C   C413      1.0  0.61657  0.97494  0.18597  1.0000
  C   C414      1.0  0.57103  0.78251  0.04163  1.0000
  C   C415      1.0  0.53456  0.97340  0.13353  1.0000
  H   H406      1.0  0.58028  0.78245  0.06992  1.0000
  N   N35       1.0  0.53749  0.95292  0.15242  1.0000
  C   C416      1.0  0.73208  0.66316  0.32312  1.0000
  Fe  Fe70      1.0  0.52897  0.91342  0.01660  1.0000
  H   H407      1.0  0.53580  0.93100  0.10048  1.0000
  H   H408      1.0  0.50620  0.91254  0.13297  1.0000
  S   S140      1.0  0.57082  0.95286  0.02437  1.0000
  C   C417      1.0  0.54723  0.95658  0.19044  1.0000
  H   H409      1.0  0.95178  0.65973  0.31545  1.0000
  H   H410      1.0  0.97493  0.66547  0.03627  1.0000
  C   C418      1.0  0.56317  0.75980  0.01582  1.0000
  C   C419      1.0  0.75335  0.65805  0.33591  1.0000
  H   H411      1.0  0.65874  0.97303  0.07636  1.0000
  H   H412      1.0  0.64124  0.97715  0.01046  1.0000
  H   H413      1.0  0.72734  0.67705  0.33946  1.0000
  H   H414      1.0  0.66887  0.98936  0.14351  1.0000
  C   C420      1.0  0.49739  0.69235  0.06506  1.0000
  H   H415      1.0  0.56384  0.98498  0.23984  1.0000
  H   H416      1.0  0.50773  0.70584  0.00489  1.0000
  C   C421      1.0  0.55703  0.88149  0.85887  1.0000
  H   H417      1.0  0.64628  0.94202  0.91712  1.0000
  S   S141      1.0  0.54934  0.83424  0.97991  1.0000
  Fe  Fe71      1.0  0.58511  0.93925  0.97174  1.0000
  S   S142      1.0  0.54248  0.90141  0.96073  1.0000
  H   H418      1.0  0.56802  0.95569  0.87773  1.0000
  C   C422      1.0  0.57781  0.90859  0.84796  1.0000
  C   C423      1.0  0.61164  0.98699  0.88476  1.0000
  H   H419      1.0  0.54534  0.74356  0.95877  1.0000
  S   S143      1.0  0.55104  0.66165  0.96278  1.0000
  C   C424      1.0  0.58341  0.98380  0.82703  1.0000
  H   H420      1.0  0.60914  0.66607  0.87903  1.0000
  H   H421      1.0  0.53801  0.78332  0.94086  1.0000
  C   C425      1.0  0.54724  0.78327  0.96914  1.0000
  C   C426      1.0  0.56301  0.86668  0.88727  1.0000
  H   H422      1.0  0.62020  0.94186  0.85780  1.0000
  C   C427      1.0  0.63765  0.91911  0.91290  1.0000
  N   N36       1.0  0.60970  0.90621  0.89463  1.0000
  H   H423      1.0  0.56357  0.97308  0.81143  1.0000
  C   C428      1.0  0.60424  0.92064  0.86612  1.0000
  C   C429      1.0  0.58968  0.87937  0.90478  1.0000
  C   C430      1.0  0.58589  0.97384  0.86465  1.0000
  H   H424      1.0  0.57346  0.92040  0.82593  1.0000
  C   C431      1.0  0.55127  0.76049  0.97934  1.0000
  H   H425      1.0  0.54702  0.84562  0.89622  1.0000
  H   H426      1.0  0.59408  0.86765  0.92691  1.0000
  H   H427      1.0  0.65214  0.91599  0.89388  1.0000
  H   H428      1.0  0.53630  0.87200  0.84549  1.0000
  H   H429      1.0  0.63681  0.90985  0.94256  1.0000
  S   S144      1.0  0.61697  0.97351  0.93021  1.0000
  C   C432      1.0  0.55509  0.80598  0.99497  1.0000
  H   H430      1.0  0.49377  0.65746  0.95628  1.0000
  Fe  Fe72      1.0  0.55687  0.87749  0.00113  1.0000
  H   H431      1.0  0.62220  0.66481  0.80923  1.0000
  H   H432      1.0  0.87299  0.67160  0.74200  1.0000
