data_image0
_chemical_formula_structural       FeHSFeS2FeSFeHS2FeS2FeS2FeSFeS3H2C3H2CHNHC2H2C2H3C6H4C3H2SHC2H2CNC3HCH3CH3CH2CHC3HCHCSC4NHC2H2CHC2HCHS2C2SH5CH2NHFeCH3C2HC4HC3H3SC4H4C2NCH3C3S2CHCHSCH4C2H2CHSHCH4NC2HC3H5CSCSCHC2HC2NCHSC2SH3CH2C2HCH3C2FeS2FeS2FeSFeS3FeS2FeS2FeSFeNS2CHC2HCH2CH3C3HC7H6C3HC2H2C3HC2HCHCH2CH3NHC3H2CHCNCH2CHC3H2CHCH2C2H4C4HCHCNC2HCHC2HCHCHCH2C2HCH2C2NFeS2HCHS2FeS2FeCHSHFeS2HCSCFeS2C2S2CHC2H2C6H2SH4C6H3CHNH3FeHFeSHFeHCHFeHSH2CNC5H3SC2FeH2FeHCSCSCHCHNC2H2NCHCHCH2C2FeCHFeS2FeH2S2FeSC3FeS2FeS2C3SHSCSFeS2H3C2FeC6H3C3HC6H4C2H3CSHCHCSH3NH2SHFeSCHCH2CHFeH4N2C5HC2SHCFeC2Fe3C2SH2CH2CSCH4CH2C3H4NC2HFeS2FeS2FeSFeHSHFeS2FeS2FeSFeS3CHC3HCH3C6H5CH2CH2C2HC3H2C3NCH2C3H4C2HSH2C3H4CH3CH3CHSC3N2C2H2NC3H3CNH3S2CH2SNCSCHSHFeH2CH4NC2HCH2C3HCHC3FeCFeCHCH4CHC6H6C2HSHC2H3S2C3NHFeH3CH2CHCHSCHSCSH2CFeCHCH2CFeC5H2CH3CHCHSCH3CFeS2FeS2FeHFeS3FeS2FeSHFeSFeS3HSC2H2N2C7H4CH2C3HC4HC3H3NC5H3CH3CH2C2H2CHCH2C2HC3NHCHCH3SCH5C3
_chemical_formula_sum              "Fe64 H384 S128 C384 N32"
_cell_length_a       44.5052
_cell_length_b       40.6198
_cell_length_c       39.1581
_cell_angle_alpha    90.0935
_cell_angle_beta     89.9535
_cell_angle_gamma    89.89

_space_group_name_H-M_alt    "P 1"
_space_group_IT_number       1

loop_
  _space_group_symop_operation_xyz
  'x, y, z'

loop_
  _atom_site_type_symbol
  _atom_site_label
  _atom_site_symmetry_multiplicity
  _atom_site_fract_x
  _atom_site_fract_y
  _atom_site_fract_z
  _atom_site_occupancy
  Fe  Fe1       1.0  0.17453  0.39948  0.44473  1.0000
  H   H1        1.0  0.14099  0.42518  0.19090  1.0000
  S   S1        1.0  0.19137  0.45220  0.45166  1.0000
  Fe  Fe2       1.0  0.15773  0.34983  0.38897  1.0000
  S   S2        1.0  0.14017  0.31406  0.42828  1.0000
  S   S3        1.0  0.14945  0.33345  0.33358  1.0000
  Fe  Fe3       1.0  0.11847  0.35757  0.45340  1.0000
  S   S4        1.0  0.07236  0.36082  0.47879  1.0000
  Fe  Fe4       1.0  0.18181  0.32543  0.45922  1.0000
  H   H2        1.0  0.32402  0.06344  0.02027  1.0000
  S   S5        1.0  0.13307  0.39269  0.41253  1.0000
  S   S6        1.0  0.20076  0.35869  0.41815  1.0000
  Fe  Fe5       1.0  0.17603  0.37252  0.13876  1.0000
  S   S7        1.0  0.15421  0.32359  0.13152  1.0000
  S   S8        1.0  0.19743  0.38613  0.18981  1.0000
  Fe  Fe6       1.0  0.15932  0.39539  0.06643  1.0000
  S   S9        1.0  0.13556  0.34734  0.05518  1.0000
  S   S10       1.0  0.15823  0.43184  0.02186  1.0000
  Fe  Fe7       1.0  0.11621  0.35233  0.10800  1.0000
  S   S11       1.0  0.06991  0.34365  0.13120  1.0000
  Fe  Fe8       1.0  0.17595  0.32295  0.07936  1.0000
  S   S12       1.0  0.19506  0.27330  0.06061  1.0000
  S   S13       1.0  0.13720  0.40170  0.11774  1.0000
  S   S14       1.0  0.20067  0.37057  0.08809  1.0000
  H   H3        1.0  0.00918  0.34177  0.15547  1.0000
  H   H4        1.0  0.06618  0.33488  0.26878  1.0000
  C   C1        1.0  0.03531  0.35060  0.11001  1.0000
  C   C2        1.0  0.03397  0.35827  0.07524  1.0000
  C   C3        1.0  0.21703  0.27013  0.15242  1.0000
  H   H5        1.0  0.05454  0.36042  0.06065  1.0000
  H   H6        1.0  0.18796  0.23468  0.17668  1.0000
  C   C4        1.0  0.09478  0.37631  0.27969  1.0000
  H   H7        1.0  0.09464  0.37243  0.30715  1.0000
  N   N1        1.0  0.23374  0.29812  0.15640  1.0000
  H   H8        1.0  0.22365  0.31108  0.24107  1.0000
  C   C5        1.0  0.23661  0.26678  0.50399  1.0000
  C   C6        1.0  0.22904  0.26035  0.04005  1.0000
  H   H9        1.0  0.11846  0.45474  0.21428  1.0000
  H   H10       1.0  0.23699  0.30837  0.10324  1.0000
  C   C7        1.0  0.03738  0.34797  0.46179  1.0000
  C   C8        1.0  0.03549  0.32749  0.43312  1.0000
  H   H11       1.0  0.24947  0.33491  0.19106  1.0000
  H   H12       1.0  0.05580  0.32014  0.41991  1.0000
  H   H13       1.0  0.27199  0.29884  0.12412  1.0000
  C   C9        1.0  0.16455  0.34765  0.29423  1.0000
  C   C10       1.0  0.15446  0.33306  0.26371  1.0000
  C   C11       1.0  0.16391  0.34491  0.23166  1.0000
  C   C12       1.0  0.18443  0.37088  0.22970  1.0000
  C   C13       1.0  0.19513  0.38496  0.26020  1.0000
  C   C14       1.0  0.18504  0.37366  0.29231  1.0000
  H   H14       1.0  0.13863  0.31289  0.26488  1.0000
  H   H15       1.0  0.15549  0.33372  0.20851  1.0000
  H   H16       1.0  0.21115  0.40495  0.25904  1.0000
  H   H17       1.0  0.19310  0.38507  0.31556  1.0000
  C   C15       1.0  0.20414  0.27117  0.21230  1.0000
  C   C16       1.0  0.25009  0.31166  0.12714  1.0000
  C   C17       1.0  0.32559  0.01590  0.04522  1.0000
  H   H18       1.0  0.14293  0.25246  0.48650  1.0000
  H   H19       1.0  0.11385  0.21944  0.44524  1.0000
  S   S15       1.0  0.15853  0.36691  0.48729  1.0000
  H   H20       1.0  0.32135  0.02596  0.07037  1.0000
  C   C18       1.0  0.18013  0.47746  0.48647  1.0000
  C   C19       1.0  0.16732  0.47434  0.02009  1.0000
  H   H21       1.0  0.21520  0.25842  0.12756  1.0000
  H   H22       1.0  0.19219  0.26108  0.23407  1.0000
  C   C20       1.0  0.20170  0.25646  0.18018  1.0000
  N   N2        1.0  0.11392  0.40531  0.23085  1.0000
  C   C21       1.0  0.09798  0.38507  0.20957  1.0000
  C   C22       1.0  0.11215  0.40152  0.26552  1.0000
  C   C23       1.0  0.00733  0.31561  0.42225  1.0000
  H   H23       1.0  0.10081  0.47396  0.01449  1.0000
  C   C24       1.0  0.07904  0.35508  0.25815  1.0000
  H   H24       1.0  0.00613  0.29923  0.40047  1.0000
  H   H25       1.0  0.25062  0.30770  0.03998  1.0000
  H   H26       1.0  0.15218  0.43689  0.23267  1.0000
  C   C25       1.0  0.05704  0.26409  0.48053  1.0000
  H   H27       1.0  0.21426  0.20997  0.03574  1.0000
  H   H28       1.0  0.09908  0.38815  0.18207  1.0000
  H   H29       1.0  0.29777  0.28718  0.01331  1.0000
  C   C26       1.0  0.23646  0.31254  0.18786  1.0000
  H   H30       1.0  0.12507  0.41723  0.28245  1.0000
  H   H31       1.0  0.25397  0.33854  0.13017  1.0000
  C   C27       1.0  0.25279  0.28195  0.03336  1.0000
  H   H32       1.0  0.17329  0.48114  0.07414  1.0000
  C   C28       1.0  0.22186  0.29919  0.21628  1.0000
  C   C29       1.0  0.13212  0.43198  0.21652  1.0000
  C   C30       1.0  0.00837  0.34774  0.12858  1.0000
  H   H33       1.0  0.06846  0.34315  0.20573  1.0000
  C   C31       1.0  0.08048  0.35955  0.22286  1.0000
  H   H34       1.0  0.05838  0.22722  0.44095  1.0000
  C   C32       1.0  0.07133  0.24129  0.45933  1.0000
  S   S16       1.0  0.20123  0.27937  0.48623  1.0000
  C   C33       1.0  0.23241  0.22699  0.03074  1.0000
  C   C34       1.0  0.01079  0.35714  0.47878  1.0000
  C   C35       1.0  0.07415  0.28268  0.50344  1.0000
  C   C36       1.0  0.28294  0.23683  0.00883  1.0000
  N   N3        1.0  0.10467  0.27886  0.50499  1.0000
  H   H35       1.0  0.31939  0.01696  0.48529  1.0000
  C   C37       1.0  0.11876  0.25580  0.48507  1.0000
  C   C38       1.0  0.10238  0.23693  0.46170  1.0000
  H   H36       1.0  0.01204  0.37288  0.50107  1.0000
  H   H37       1.0  0.03295  0.26806  0.47867  1.0000
  C   C39       1.0  0.25904  0.21532  0.01505  1.0000
  H   H38       1.0  0.25775  0.31432  0.50262  1.0000
  C   C40       1.0  0.27954  0.27021  0.01805  1.0000
  C   C41       1.0  0.32722  0.03723  0.01687  1.0000
  H   H39       1.0  0.26115  0.18962  0.00814  1.0000
  C   C42       1.0  0.00592  0.36257  0.05916  1.0000
  H   H40       1.0  0.33165  0.29194  0.90117  1.0000
  S   S17       1.0  0.31379  0.14103  0.59273  1.0000
  S   S18       1.0  0.32017  0.12834  0.69273  1.0000
  C   C43       1.0  0.12205  0.29892  0.52901  1.0000
  C   C44       1.0  0.33150  0.13879  0.79547  1.0000
  S   S19       1.0  0.31797  0.14629  0.92141  1.0000
  H   H41       1.0  0.23579  0.21746  0.91924  1.0000
  H   H42       1.0  0.22261  0.21623  0.50926  1.0000
  H   H43       1.0  0.30223  0.19086  0.84413  1.0000
  H   H44       1.0  0.30519  0.29514  0.52976  1.0000
  H   H45       1.0  0.16226  0.47369  0.57103  1.0000
  C   C45       1.0  0.26646  0.20164  0.87969  1.0000
  H   H46       1.0  0.31703  0.28516  0.94363  1.0000
  H   H47       1.0  0.22969  0.18012  0.62219  1.0000
  N   N4        1.0  0.29780  0.23598  0.64162  1.0000
  H   H48       1.0  0.25160  0.18276  0.86979  1.0000
  Fe  Fe9       1.0  0.33759  0.17756  0.96377  1.0000
  C   C46       1.0  0.29497  0.20637  0.65794  1.0000
  H   H49       1.0  0.31211  0.19794  0.67557  1.0000
  H   H50       1.0  0.27030  0.25951  0.94197  1.0000
  H   H51       1.0  0.11374  0.32480  0.52897  1.0000
  C   C47       1.0  0.29122  0.24458  0.53489  1.0000
  C   C48       1.0  0.27728  0.24484  0.92018  1.0000
  H   H52       1.0  0.23518  0.23409  0.59273  1.0000
  C   C49       1.0  0.27646  0.24607  0.61877  1.0000
  C   C50       1.0  0.33309  0.14267  0.73297  1.0000
  C   C51       1.0  0.28723  0.27775  0.52527  1.0000
  C   C52       1.0  0.09148  0.48158  0.98933  1.0000
  H   H53       1.0  0.06833  0.47162  0.98738  1.0000
  C   C53       1.0  0.33182  0.02443  0.98409  1.0000
  C   C54       1.0  0.27024  0.18607  0.65156  1.0000
  C   C55       1.0  0.25757  0.22108  0.90735  1.0000
  H   H54       1.0  0.16303  0.47592  0.96527  1.0000
  H   H55       1.0  0.32249  0.12752  0.81830  1.0000
  H   H56       1.0  0.14622  0.29979  0.52179  1.0000
  S   S20       1.0  0.33240  0.06700  0.53472  1.0000
  C   C56       1.0  0.25149  0.22636  0.61172  1.0000
  C   C57       1.0  0.24850  0.19608  0.62812  1.0000
  C   C58       1.0  0.17220  0.46391  0.51802  1.0000
  C   C59       1.0  0.32120  0.12880  0.76300  1.0000
  H   H57       1.0  0.12014  0.28869  0.55516  1.0000
  H   H58       1.0  0.30423  0.10983  0.76111  1.0000
  H   H59       1.0  0.26845  0.16230  0.66406  1.0000
  H   H60       1.0  0.06298  0.30101  0.51920  1.0000
  C   C60       1.0  0.32630  0.27287  0.92049  1.0000
  C   C61       1.0  0.32456  0.25634  0.64701  1.0000
  N   N5        1.0  0.30531  0.24865  0.90633  1.0000
  C   C62       1.0  0.31418  0.22976  0.87918  1.0000
  H   H61       1.0  0.17086  0.43747  0.52081  1.0000
  H   H62       1.0  0.27026  0.19694  0.53586  1.0000
  H   H63       1.0  0.27935  0.26889  0.60474  1.0000
  C   C63       1.0  0.24058  0.23361  0.51369  1.0000
  C   C64       1.0  0.26767  0.22252  0.52877  1.0000
  C   C65       1.0  0.16740  0.48453  0.54650  1.0000
  S   S21       1.0  0.32513  0.23277  0.55648  1.0000
  S   S22       1.0  0.31712  0.22402  0.98871  1.0000
  C   C66       1.0  0.29484  0.20615  0.86530  1.0000
  H   H64       1.0  0.24427  0.46604  0.53023  1.0000
  C   C67       1.0  0.16709  0.49019  0.98816  1.0000
  H   H65       1.0  0.31825  0.28270  0.64953  1.0000
  S   S23       1.0  0.33213  0.04992  0.94725  1.0000
  C   C68       1.0  0.26027  0.28876  0.50981  1.0000
  H   H66       1.0  0.10587  0.46996  0.96945  1.0000
  H   H67       1.0  0.33698  0.24906  0.67042  1.0000
  H   H68       1.0  0.33654  0.23250  0.86847  1.0000
  H   H69       1.0  0.11316  0.58730  0.02529  1.0000
  C   C69       1.0  0.22799  0.72364  0.06540  1.0000
  C   C70       1.0  0.31143  0.78700  0.34026  1.0000
  H   H70       1.0  0.27794  0.87793  0.33693  1.0000
  H   H71       1.0  0.19529  0.65628  0.02962  1.0000
  C   C71       1.0  0.26271  0.79474  0.01560  1.0000
  H   H72       1.0  0.11262  0.52695  0.03299  1.0000
  S   S24       1.0  0.32111  0.85910  0.10532  1.0000
  H   H73       1.0  0.28772  0.77004  0.42092  1.0000
  C   C72       1.0  0.30101  0.81946  0.33822  1.0000
  H   H74       1.0  0.25803  0.55753  0.47816  1.0000
  H   H75       1.0  0.28388  0.66819  0.07082  1.0000
  H   H76       1.0  0.26472  0.81901  0.02683  1.0000
  H   H77       1.0  0.29074  0.88352  0.37981  1.0000
  N   N6        1.0  0.25571  0.71070  0.07252  1.0000
  C   C73       1.0  0.20587  0.70431  0.04984  1.0000
  C   C74       1.0  0.17822  0.52716  0.04675  1.0000
  H   H78       1.0  0.18254  0.54140  0.06959  1.0000
  C   C75       1.0  0.29123  0.78355  0.39733  1.0000
  C   C76       1.0  0.30640  0.76895  0.37002  1.0000
  C   C77       1.0  0.28751  0.77351  0.01567  1.0000
  H   H79       1.0  0.33295  0.91112  0.27047  1.0000
  H   H80       1.0  0.27029  0.82759  0.41623  1.0000
  H   H81       1.0  0.24519  0.63287  0.04338  1.0000
  H   H82       1.0  0.18802  0.52262  0.45911  1.0000
  H   H83       1.0  0.22313  0.74933  0.07071  1.0000
  C   C78       1.0  0.28438  0.77690  0.49781  1.0000
  S   S25       1.0  0.32237  0.78385  0.03565  1.0000
  C   C79       1.0  0.17741  0.54306  0.01485  1.0000
  S   S26       1.0  0.32752  0.95598  0.07791  1.0000
  C   C80       1.0  0.24029  0.65841  0.04960  1.0000
  H   H84       1.0  0.29734  0.69435  0.50563  1.0000
  C   C81       1.0  0.21213  0.67152  0.04191  1.0000
  C   C82       1.0  0.33473  0.96900  0.00860  1.0000
  H   H85       1.0  0.18431  0.71500  0.04300  1.0000
  C   C83       1.0  0.17303  0.49300  0.04942  1.0000
  C   C84       1.0  0.28139  0.81617  0.39452  1.0000
  N   N7        1.0  0.28616  0.83360  0.36515  1.0000
  C   C85       1.0  0.27860  0.73097  0.08934  1.0000
  H   H86       1.0  0.25247  0.87035  0.37175  1.0000
  S   S27       1.0  0.29994  0.81447  0.48159  1.0000
  C   C86       1.0  0.26195  0.67847  0.06506  1.0000
  C   C87       1.0  0.18192  0.51192  0.48341  1.0000
  S   S28       1.0  0.18225  0.58637  0.01303  1.0000
  H   H87       1.0  0.04936  0.60765  0.50600  1.0000
  H   H88       1.0  0.27393  0.75775  0.08630  1.0000
  H   H89       1.0  0.27964  0.72518  0.11699  1.0000
  C   C88       1.0  0.27619  0.86798  0.36332  1.0000
  H   H90       1.0  0.30108  0.72673  0.07761  1.0000
  H   H91       1.0  0.30539  0.83344  0.31517  1.0000
  C   C89       1.0  0.10277  0.53743  0.01011  1.0000
  C   C90       1.0  0.29915  0.74655  0.49504  1.0000
  H   H92       1.0  0.32378  0.77625  0.31909  1.0000
  C   C91       1.0  0.32937  0.98169  0.04128  1.0000
  H   H93       1.0  0.31474  0.74392  0.37222  1.0000
  H   H94       1.0  0.32108  0.74533  0.48317  1.0000
  H   H95       1.0  0.25580  0.49655  0.47709  1.0000
  C   C92       1.0  0.25403  0.54429  0.50174  1.0000
  C   C93       1.0  0.25305  0.50984  0.50099  1.0000
  Fe  Fe10      1.0  0.12885  0.65939  0.57237  1.0000
  S   S29       1.0  0.13066  0.62282  0.61484  1.0000
  S   S30       1.0  0.08411  0.67548  0.54940  1.0000
  Fe  Fe11      1.0  0.19806  0.66525  0.56798  1.0000
  S   S31       1.0  0.20401  0.62861  0.61120  1.0000
  S   S32       1.0  0.24120  0.68070  0.53927  1.0000
  Fe  Fe12      1.0  0.16792  0.59915  0.58468  1.0000
  S   S33       1.0  0.16790  0.54317  0.58139  1.0000
  Fe  Fe13      1.0  0.16615  0.65534  0.63787  1.0000
  S   S34       1.0  0.15768  0.67311  0.69278  1.0000
  S   S35       1.0  0.16393  0.63367  0.54038  1.0000
  S   S36       1.0  0.16239  0.69397  0.59636  1.0000
  Fe  Fe14      1.0  0.12144  0.65307  0.92842  1.0000
  S   S37       1.0  0.14788  0.60684  0.91772  1.0000
  S   S38       1.0  0.07225  0.65042  0.91213  1.0000
  Fe  Fe15      1.0  0.17885  0.69135  0.95003  1.0000
  S   S39       1.0  0.20843  0.64773  0.93998  1.0000
  S   S40       1.0  0.19600  0.74101  0.97025  1.0000
  Fe  Fe16      1.0  0.18085  0.64066  0.89186  1.0000
  S   S41       1.0  0.20308  0.62830  0.84073  1.0000
  Fe  Fe17      1.0  0.17244  0.61820  0.96645  1.0000
  N   N8        1.0  0.24898  0.56107  0.53156  1.0000
  S   S42       1.0  0.15354  0.68636  0.90019  1.0000
  S   S43       1.0  0.14382  0.66245  0.97895  1.0000
  C   C94       1.0  0.03722  0.65071  0.93396  1.0000
  H   H96       1.0  0.03840  0.68326  0.71250  1.0000
  C   C95       1.0  0.03488  0.65487  0.96936  1.0000
  C   C96       1.0  0.17005  0.51891  0.54371  1.0000
  H   H97       1.0  0.05492  0.65857  0.98445  1.0000
  C   C97       1.0  0.02002  0.64726  0.61744  1.0000
  H   H98       1.0  0.03091  0.73845  0.58619  1.0000
  H   H99       1.0  0.27659  0.69513  0.88636  1.0000
  C   C98       1.0  0.23515  0.78456  0.00109  1.0000
  H   H100      1.0  0.21618  0.80129  0.00130  1.0000
  H   H101      1.0  0.18698  0.73016  0.79890  1.0000
  H   H102      1.0  0.17141  0.53621  0.96079  1.0000
  C   C99       1.0  0.04930  0.66654  0.56910  1.0000
  C   C100      1.0  0.04789  0.65165  0.60120  1.0000
  C   C101      1.0  0.07889  0.69251  0.68389  1.0000
  H   H103      1.0  0.06831  0.64444  0.61406  1.0000
  C   C102      1.0  0.24655  0.49264  0.53089  1.0000
  C   C103      1.0  0.16949  0.65816  0.73340  1.0000
  C   C104      1.0  0.19367  0.63640  0.73725  1.0000
  C   C105      1.0  0.20327  0.62697  0.77021  1.0000
  C   C106      1.0  0.18855  0.63865  0.79970  1.0000
  C   C107      1.0  0.16401  0.65990  0.79581  1.0000
  C   C108      1.0  0.15478  0.66982  0.76291  1.0000
  H   H104      1.0  0.20535  0.62735  0.71487  1.0000
  H   H105      1.0  0.22235  0.61062  0.77286  1.0000
  H   H106      1.0  0.15242  0.66912  0.81817  1.0000
  H   H107      1.0  0.13609  0.68668  0.76033  1.0000
  H   H108      1.0  0.23708  0.72951  0.91150  1.0000
  H   H109      1.0  0.01929  0.63672  0.64279  1.0000
  C   C109      1.0  0.25587  0.77770  0.51354  1.0000
  C   C110      1.0  0.25969  0.68495  0.86835  1.0000
  C   C111      1.0  0.22196  0.70903  0.83013  1.0000
  H   H110      1.0  0.24409  0.80090  0.51587  1.0000
  C   C112      1.0  0.29364  0.93011  0.52890  1.0000
  C   C113      1.0  0.25711  0.71837  0.52375  1.0000
  H   H111      1.0  0.00550  0.71117  0.67051  1.0000
  H   H112      1.0  0.02330  0.68716  0.52787  1.0000
  C   C114      1.0  0.32937  0.88580  0.53535  1.0000
  C   C115      1.0  0.03154  0.57005  0.58067  1.0000
  C   C116      1.0  0.09094  0.70664  0.65450  1.0000
  H   H113      1.0  0.02026  0.76717  0.61950  1.0000
  C   C117      1.0  0.24236  0.54439  0.56093  1.0000
  C   C118      1.0  0.17191  0.52437  0.98551  1.0000
  H   H114      1.0  0.23664  0.55767  0.58413  1.0000
  C   C119      1.0  0.02201  0.74071  0.61265  1.0000
  H   H115      1.0  0.33572  0.86045  0.53020  1.0000
  C   C120      1.0  0.28558  0.71759  0.50787  1.0000
  H   H116      1.0  0.22049  0.74994  0.53850  1.0000
  H   H117      1.0  0.09123  0.61186  0.97272  1.0000
  C   C121      1.0  0.23181  0.75296  0.98672  1.0000
  H   H118      1.0  0.22869  0.69166  0.81045  1.0000
  H   H119      1.0  0.24967  0.66238  0.87957  1.0000
  H   H120      1.0  0.27166  0.67769  0.84457  1.0000
  N   N9        1.0  0.23589  0.70899  0.86127  1.0000
  H   H121      1.0  0.33755  0.94276  0.00514  1.0000
  C   C122      1.0  0.02241  0.67568  0.55277  1.0000
  C   C123      1.0  0.19826  0.73076  0.82347  1.0000
  C   C124      1.0  0.17671  0.53261  0.51182  1.0000
  H   H122      1.0  0.07367  0.58134  0.55601  1.0000
  H   H123      1.0  0.01235  0.64339  0.88735  1.0000
  C   C125      1.0  0.18880  0.75249  0.84896  1.0000
  H   H124      1.0  0.30628  0.97586  0.55305  1.0000
  C   C126      1.0  0.22659  0.73002  0.88650  1.0000
  N   N10       1.0  0.04159  0.72369  0.63702  1.0000
  C   C127      1.0  0.20310  0.75224  0.88066  1.0000
  H   H125      1.0  0.17014  0.76911  0.84437  1.0000
  H   H126      1.0  0.07044  0.57571  0.92776  1.0000
  C   C128      1.0  0.07190  0.72227  0.63120  1.0000
  H   H127      1.0  0.25410  0.60754  0.55683  1.0000
  C   C129      1.0  0.03562  0.59693  0.52602  1.0000
  C   C130      1.0  0.24831  0.59715  0.53138  1.0000
  C   C131      1.0  0.30208  0.89757  0.52251  1.0000
  H   H128      1.0  0.04205  0.55935  0.60305  1.0000
  H   H129      1.0  0.19562  0.76859  0.90095  1.0000
  C   C132      1.0  0.02958  0.71036  0.66607  1.0000
  H   H130      1.0  0.26472  0.60749  0.51291  1.0000
  C   C133      1.0  0.04801  0.69438  0.68982  1.0000
  H   H131      1.0  0.25451  0.70728  0.97596  1.0000
  H   H132      1.0  0.17881  0.55900  0.50928  1.0000
  C   C134      1.0  0.04931  0.58232  0.55423  1.0000
  C   C135      1.0  0.24235  0.74875  0.52646  1.0000
  H   H133      1.0  0.08147  0.73244  0.60799  1.0000
  H   H134      1.0  0.23467  0.49698  0.58411  1.0000
  H   H135      1.0  0.11490  0.70516  0.64965  1.0000
  H   H136      1.0  0.09352  0.67999  0.70191  1.0000
  C   C136      1.0  0.09105  0.58541  0.97639  1.0000
  C   C137      1.0  0.24127  0.50996  0.56111  1.0000
  C   C138      1.0  0.31229  0.95029  0.54841  1.0000
  C   C139      1.0  0.01081  0.64650  0.91475  1.0000
  H   H137      1.0  0.27281  0.93977  0.51857  1.0000
  C   C140      1.0  0.07937  0.56496  0.95107  1.0000
  H   H138      1.0  0.22550  0.60597  0.52439  1.0000
  C   C141      1.0  0.25662  0.73172  0.98667  1.0000
  N   N11       1.0  0.09129  0.51747  0.98514  1.0000
  C   C142      1.0  0.07982  0.53080  0.95581  1.0000
  C   C143      1.0  0.33555  0.99023  0.98014  1.0000
  H   H139      1.0  0.07111  0.51500  0.93580  1.0000
  C   C144      1.0  0.28423  0.74199  0.00096  1.0000
  H   H140      1.0  0.30319  0.72528  0.00091  1.0000
  C   C145      1.0  0.00636  0.65483  0.98522  1.0000
  C   C146      1.0  0.10303  0.57164  0.00600  1.0000
  H   H141      1.0  0.28776  0.88150  0.50749  1.0000
  C   C147      1.0  0.56652  0.18905  0.03992  1.0000
  H   H142      1.0  0.60244  0.17999  0.07566  1.0000
  C   C148      1.0  0.61480  0.21599  0.03765  1.0000
  H   H143      1.0  0.63739  0.21882  0.04769  1.0000
  C   C149      1.0  0.63451  0.00395  0.03186  1.0000
  H   H144      1.0  0.61706  0.01406  0.04803  1.0000
  H   H145      1.0  0.55125  0.17146  0.05145  1.0000
  C   C150      1.0  0.40001  0.01994  0.03653  1.0000
  C   C151      1.0  0.59515  0.19391  0.05355  1.0000
  H   H146      1.0  0.39238  0.04265  0.04831  1.0000
  C   C152      1.0  0.66286  0.99524  0.12730  1.0000
  H   H147      1.0  0.64455  0.26428  0.00935  1.0000
  H   H148      1.0  0.64380  0.00818  0.13823  1.0000
  C   C153      1.0  0.34039  0.01035  0.49739  1.0000
  C   C154      1.0  0.55787  0.20630  0.01078  1.0000
  N   N12       1.0  0.60614  0.23269  0.00895  1.0000
  Fe  Fe18      1.0  0.40081  0.14722  0.60213  1.0000
  S   S44       1.0  0.37434  0.10256  0.61823  1.0000
  S   S45       1.0  0.44912  0.14425  0.62197  1.0000
  H   H149      1.0  0.39013  0.06719  0.99274  1.0000
  C   C155      1.0  0.57969  0.08658  0.52682  1.0000
  H   H150      1.0  0.62244  0.06348  0.53637  1.0000
  S   S46       1.0  0.36878  0.18303  0.62718  1.0000
  S   S47       1.0  0.37787  0.15101  0.55071  1.0000
  Fe  Fe19      1.0  0.40055  0.14520  0.95567  1.0000
  S   S48       1.0  0.38509  0.11281  0.91294  1.0000
  S   S49       1.0  0.63632  0.06562  0.00366  1.0000
  Fe  Fe20      1.0  0.36063  0.15680  0.89233  1.0000
  C   C156      1.0  0.35340  0.16329  0.79819  1.0000
  H   H151      1.0  0.38958  0.03855  0.55697  1.0000
  S   S50       1.0  0.37913  0.19020  0.93319  1.0000
  H   H152      1.0  0.40074  0.04468  0.95575  1.0000
  Fe  Fe21      1.0  0.62095  0.15318  0.57917  1.0000
  S   S51       1.0  0.62179  0.11196  0.61682  1.0000
  S   S52       1.0  0.57728  0.16688  0.55224  1.0000
  H   H153      1.0  0.57040  0.20113  0.76642  1.0000
  C   C157      1.0  0.35495  0.16720  0.73573  1.0000
  S   S53       1.0  0.64821  0.18739  0.61224  1.0000
  C   C158      1.0  0.54958  0.08856  0.53687  1.0000
  Fe  Fe22      1.0  0.61525  0.16343  0.93225  1.0000
  S   S54       1.0  0.62953  0.11385  0.91277  1.0000
  S   S55       1.0  0.57109  0.18807  0.91791  1.0000
  C   C159      1.0  0.62762  0.25408  0.99132  1.0000
  C   C160      1.0  0.63676  0.13395  0.77280  1.0000
  S   S56       1.0  0.63160  0.15413  0.98517  1.0000
  S   S57       1.0  0.65795  0.18952  0.91770  1.0000
  C   C161      1.0  0.61446  0.20148  0.83720  1.0000
  H   H154      1.0  0.51693  0.17710  0.52765  1.0000
  C   C162      1.0  0.57822  0.22781  0.99526  1.0000
  C   C163      1.0  0.58853  0.19901  0.81747  1.0000
  H   H155      1.0  0.66219  0.20897  0.83691  1.0000
  H   H156      1.0  0.55682  0.13476  0.96499  1.0000
  C   C164      1.0  0.48110  0.14871  0.95855  1.0000
  C   C165      1.0  0.48173  0.17389  0.93421  1.0000
  C   C166      1.0  0.50944  0.18537  0.92151  1.0000
  C   C167      1.0  0.53667  0.17142  0.93255  1.0000
  C   C168      1.0  0.53601  0.14575  0.95629  1.0000
  C   C169      1.0  0.50836  0.13473  0.96949  1.0000
  H   H157      1.0  0.46090  0.18497  0.92578  1.0000
  H   H158      1.0  0.50975  0.20534  0.90328  1.0000
  S   S58       1.0  0.36762  0.17673  0.83818  1.0000
  H   H159      1.0  0.56727  0.19309  0.82963  1.0000
  H   H160      1.0  0.50913  0.13732  0.64674  1.0000
  H   H161      1.0  0.44476  0.14835  0.73851  1.0000
  H   H162      1.0  0.49573  0.04856  0.56773  1.0000
  C   C170      1.0  0.48426  0.15207  0.60204  1.0000
  C   C171      1.0  0.48668  0.16328  0.56838  1.0000
  C   C172      1.0  0.51528  0.16831  0.55365  1.0000
  C   C173      1.0  0.54171  0.16195  0.57227  1.0000
  C   C174      1.0  0.53923  0.15064  0.60586  1.0000
  C   C175      1.0  0.51070  0.14594  0.62067  1.0000
  H   H163      1.0  0.46655  0.16817  0.55374  1.0000
  H   H164      1.0  0.61609  0.27514  0.97888  1.0000
  H   H165      1.0  0.50810  0.11523  0.98827  1.0000
  C   C176      1.0  0.36480  0.17765  0.76819  1.0000
  H   H166      1.0  0.38207  0.08236  0.69139  1.0000
  N   N13       1.0  0.53910  0.06986  0.56335  1.0000
  H   H167      1.0  0.45469  0.12805  0.80565  1.0000
  H   H168      1.0  0.50578  0.07703  0.60158  1.0000
  H   H169      1.0  0.38167  0.19672  0.77003  1.0000
  Fe  Fe23      1.0  0.65141  0.14453  0.64880  1.0000
  H   H170      1.0  0.34732  0.26028  0.92865  1.0000
  Fe  Fe24      1.0  0.34162  0.13862  0.64077  1.0000
  S   S59       1.0  0.63637  0.14947  0.70459  1.0000
  H   H171      1.0  0.36434  0.17807  0.71290  1.0000
  Fe  Fe25      1.0  0.64915  0.10576  0.96540  1.0000
  H   H172      1.0  0.55930  0.14570  0.62056  1.0000
  C   C177      1.0  0.41508  0.11608  0.71129  1.0000
  H   H173      1.0  0.41870  0.12773  0.82681  1.0000
  Fe  Fe26      1.0  0.34315  0.18323  0.57705  1.0000
  H   H174      1.0  0.63586  0.12865  0.82781  1.0000
  S   S60       1.0  0.36085  0.13478  0.98974  1.0000
  H   H175      1.0  0.61257  0.13319  0.77039  1.0000
  H   H176      1.0  0.61945  0.21307  0.73965  1.0000
  C   C178      1.0  0.55789  0.04858  0.58004  1.0000
  N   N14       1.0  0.41762  0.12006  0.77251  1.0000
  C   C179      1.0  0.39576  0.09657  0.77550  1.0000
  C   C180      1.0  0.42750  0.12968  0.74095  1.0000
  C   C181      1.0  0.38290  0.08244  0.74638  1.0000
  C   C182      1.0  0.39255  0.09242  0.71413  1.0000
  C   C183      1.0  0.43071  0.13520  0.80310  1.0000
  H   H177      1.0  0.38750  0.08932  0.80046  1.0000
  H   H178      1.0  0.36483  0.06470  0.74875  1.0000
  H   H179      1.0  0.42881  0.16246  0.80163  1.0000
  S   S61       1.0  0.66132  0.13465  0.54936  1.0000
  C   C184      1.0  0.58809  0.04574  0.57039  1.0000
  C   C185      1.0  0.37991  0.02263  0.53773  1.0000
  Fe  Fe27      1.0  0.34425  0.10437  0.94566  1.0000
  H   H180      1.0  0.42252  0.12421  0.68625  1.0000
  H   H181      1.0  0.57172  0.23993  0.97171  1.0000
  Fe  Fe28      1.0  0.66379  0.09561  0.58986  1.0000
  H   H182      1.0  0.54965  0.03383  0.60110  1.0000
  C   C186      1.0  0.65453  0.13870  0.74348  1.0000
  S   S62       1.0  0.44708  0.13503  0.97723  1.0000
  C   C187      1.0  0.64990  0.13149  0.80545  1.0000
  S   S63       1.0  0.66997  0.04023  0.58370  1.0000
  C   C188      1.0  0.39445  0.99307  0.52850  1.0000
  H   H183      1.0  0.61331  0.19738  0.86447  1.0000
  C   C189      1.0  0.59027  0.20363  0.78221  1.0000
  H   H184      1.0  0.49543  0.09228  0.56051  1.0000
  N   N15       1.0  0.64356  0.21223  0.78677  1.0000
  C   C190      1.0  0.64197  0.20825  0.82142  1.0000
  C   C191      1.0  0.50748  0.07195  0.57374  1.0000
  H   H185      1.0  0.53495  0.10588  0.52392  1.0000
  H   H186      1.0  0.60316  0.02919  0.58388  1.0000
  N   N16       1.0  0.40783  0.01925  0.00273  1.0000
  C   C192      1.0  0.59898  0.06496  0.54365  1.0000
  H   H187      1.0  0.63990  0.23963  0.97164  1.0000
  C   C193      1.0  0.61812  0.21052  0.76721  1.0000
  H   H188      1.0  0.53583  0.20231  0.99964  1.0000
  C   C194      1.0  0.66967  0.01034  0.98526  1.0000
  H   H189      1.0  0.42956  0.06189  0.98328  1.0000
  H   H190      1.0  0.33997  0.25368  0.62477  1.0000
  C   C195      1.0  0.35269  0.03132  0.52236  1.0000
  C   C196      1.0  0.40722  0.04970  0.98267  1.0000
  Fe  Fe29      1.0  0.34938  0.10854  0.56893  1.0000
  C   C197      1.0  0.64737  0.02376  0.00629  1.0000
  H   H191      1.0  0.58813  0.10247  0.50674  1.0000
  Fe  Fe30      1.0  0.40938  0.82975  0.43053  1.0000
  S   S64       1.0  0.40853  0.88156  0.41100  1.0000
  S   S65       1.0  0.45257  0.80087  0.42253  1.0000
  Fe  Fe31      1.0  0.38380  0.89322  0.45966  1.0000
  H   H192      1.0  0.56909  0.89952  0.41128  1.0000
  H   H193      1.0  0.55094  0.82221  0.33958  1.0000
  S   S66       1.0  0.38756  0.84185  0.48084  1.0000
  S   S67       1.0  0.36553  0.81485  0.40552  1.0000
  Fe  Fe32      1.0  0.36469  0.85156  0.13392  1.0000
  S   S68       1.0  0.38481  0.81974  0.09250  1.0000
  C   C198      1.0  0.66750  0.95839  0.01694  1.0000
  C   C199      1.0  0.35498  0.98083  0.48806  1.0000
  C   C200      1.0  0.45072  0.80937  0.18478  1.0000
  Fe  Fe33      1.0  0.40320  0.86628  0.07016  1.0000
  S   S69       1.0  0.44991  0.88130  0.05221  1.0000
  S   S70       1.0  0.38573  0.89742  0.11306  1.0000
  Fe  Fe34      1.0  0.62124  0.85253  0.46051  1.0000
  S   S71       1.0  0.63466  0.88793  0.41940  1.0000
  S   S72       1.0  0.57417  0.85941  0.48232  1.0000
  C   C201      1.0  0.40948  0.96160  0.04087  1.0000
  C   C202      1.0  0.35613  0.87144  0.29585  1.0000
  C   C203      1.0  0.64446  0.97140  0.03715  1.0000
  S   S73       1.0  0.64216  0.80918  0.43419  1.0000
  H   H194      1.0  0.57920  0.78188  0.02502  1.0000
  S   S74       1.0  0.65301  0.81166  0.12911  1.0000
  C   C204      1.0  0.51236  0.91497  0.42564  1.0000
  S   S75       1.0  0.65205  0.83175  0.04814  1.0000
  Fe  Fe35      1.0  0.62025  0.83561  0.09291  1.0000
  S   S76       1.0  0.57328  0.81317  0.09529  1.0000
  S   S77       1.0  0.63374  0.88733  0.10694  1.0000
  H   H195      1.0  0.48964  0.90912  0.43585  1.0000
  H   H196      1.0  0.52761  0.91668  0.44811  1.0000
  H   H197      1.0  0.63483  0.95670  0.05738  1.0000
  C   C205      1.0  0.55301  0.88506  0.39687  1.0000
  C   C206      1.0  0.50248  0.87084  0.38422  1.0000
  Fe  Fe36      1.0  0.34434  0.90296  0.08075  1.0000
  C   C207      1.0  0.48398  0.86142  0.06336  1.0000
  C   C208      1.0  0.48443  0.83031  0.07860  1.0000
  C   C209      1.0  0.51204  0.81559  0.08747  1.0000
  C   C210      1.0  0.53938  0.83207  0.08186  1.0000
  C   C211      1.0  0.53894  0.86317  0.06662  1.0000
  C   C212      1.0  0.51136  0.87761  0.05716  1.0000
  H   H198      1.0  0.46353  0.81752  0.08330  1.0000
  H   H199      1.0  0.51218  0.79146  0.09912  1.0000
  H   H200      1.0  0.55980  0.87608  0.06205  1.0000
  C   C213      1.0  0.64892  0.82747  0.26982  1.0000
  C   C214      1.0  0.65663  0.84535  0.29935  1.0000
  C   C215      1.0  0.36731  0.84760  0.22873  1.0000
  H   H201      1.0  0.43846  0.81735  0.20815  1.0000
  C   C216      1.0  0.48621  0.81508  0.44163  1.0000
  C   C217      1.0  0.51395  0.80177  0.43123  1.0000
  C   C218      1.0  0.54120  0.81467  0.44379  1.0000
  C   C219      1.0  0.54082  0.84041  0.46758  1.0000
  C   C220      1.0  0.51303  0.85263  0.47909  1.0000
  C   C221      1.0  0.48587  0.84045  0.46579  1.0000
  H   H202      1.0  0.51440  0.78198  0.41272  1.0000
  H   H203      1.0  0.56245  0.80484  0.43499  1.0000
  H   H204      1.0  0.47854  0.87385  0.38862  1.0000
  H   H205      1.0  0.46466  0.85073  0.47421  1.0000
  C   C222      1.0  0.37778  0.83039  0.25760  1.0000
  C   C223      1.0  0.37232  0.84224  0.29096  1.0000
  H   H206      1.0  0.39011  0.80766  0.25415  1.0000
  H   H207      1.0  0.38043  0.82867  0.31285  1.0000
  H   H208      1.0  0.51021  0.91026  0.13038  1.0000
  C   C224      1.0  0.56355  0.86100  0.37418  1.0000
  S   S78       1.0  0.64856  0.82792  0.34000  1.0000
  H   H209      1.0  0.51122  0.90162  0.04522  1.0000
  C   C225      1.0  0.35127  0.87687  0.23364  1.0000
  H   H210      1.0  0.51152  0.93915  0.41252  1.0000
  C   C226      1.0  0.51222  0.84643  0.36150  1.0000
  S   S79       1.0  0.39989  0.93378  0.49544  1.0000
  H   H211      1.0  0.64947  0.82563  0.21452  1.0000
  H   H212      1.0  0.51069  0.81582  0.17898  1.0000
  H   H213      1.0  0.63775  0.80397  0.27232  1.0000
  N   N17       1.0  0.63958  0.73814  0.05162  1.0000
  H   H214      1.0  0.45437  0.91061  0.13257  1.0000
  H   H215      1.0  0.65509  0.73872  0.10269  1.0000
  S   S80       1.0  0.66221  0.86178  0.49315  1.0000
  H   H216      1.0  0.42743  0.86375  0.15890  1.0000
  Fe  Fe37      1.0  0.65818  0.84532  0.39458  1.0000
  S   S81       1.0  0.37466  0.83111  0.18737  1.0000
  C   C227      1.0  0.60107  0.76996  0.02398  1.0000
  H   H217      1.0  0.40939  0.93894  0.05545  1.0000
  C   C228      1.0  0.51406  0.86340  0.15575  1.0000
  H   H218      1.0  0.53842  0.86257  0.15400  1.0000
  H   H219      1.0  0.46558  0.78836  0.19140  1.0000
  C   C229      1.0  0.54298  0.84148  0.35655  1.0000
  H   H220      1.0  0.59768  0.75062  0.07481  1.0000
  Fe  Fe38      1.0  0.36361  0.86778  0.38902  1.0000
  H   H221      1.0  0.43382  0.80044  0.16598  1.0000
  H   H222      1.0  0.58753  0.85699  0.37084  1.0000
  H   H223      1.0  0.39276  0.99132  0.08233  1.0000
  H   H224      1.0  0.63322  0.70281  0.09104  1.0000
  N   N18       1.0  0.52283  0.88944  0.40191  1.0000
  N   N19       1.0  0.46742  0.83719  0.17046  1.0000
  C   C230      1.0  0.45179  0.86358  0.15806  1.0000
  C   C231      1.0  0.49819  0.83687  0.16963  1.0000
  C   C232      1.0  0.46691  0.89034  0.14365  1.0000
  C   C233      1.0  0.49825  0.89017  0.14250  1.0000
  C   C234      1.0  0.65556  0.83968  0.23695  1.0000
  H   H225      1.0  0.49594  0.83077  0.34881  1.0000
  C   C235      1.0  0.65030  0.72068  0.08202  1.0000
  C   C236      1.0  0.61169  0.75232  0.05218  1.0000
  S   S82       1.0  0.36279  0.87417  0.03642  1.0000
  H   H226      1.0  0.51253  0.87227  0.49780  1.0000
  C   C237      1.0  0.65767  0.74131  0.02353  1.0000
  Fe  Fe39      1.0  0.34225  0.82973  0.06243  1.0000
  C   C238      1.0  0.40048  0.99109  0.05602  1.0000
  C   C239      1.0  0.38197  0.97194  0.50381  1.0000
  Fe  Fe40      1.0  0.66807  0.88195  0.06498  1.0000
  Fe  Fe41      1.0  0.34342  0.83142  0.45472  1.0000
  Fe  Fe42      1.0  0.66835  0.86299  0.14064  1.0000
  C   C240      1.0  0.67008  0.86997  0.23322  1.0000
  C   C241      1.0  0.34559  0.88857  0.26702  1.0000
  S   S83       1.0  0.34684  0.88638  0.33732  1.0000
  H   H227      1.0  0.34516  0.96481  0.46902  1.0000
  H   H228      1.0  0.65952  0.95356  0.16144  1.0000
  C   C242      1.0  0.67113  0.87566  0.29567  1.0000
  H   H229      1.0  0.34302  0.89038  0.21177  1.0000
  H   H230      1.0  0.67151  0.70698  0.07690  1.0000
  C   C243      1.0  0.67156  0.96467  0.14022  1.0000
  S   S84       1.0  0.33859  0.88392  0.43645  1.0000
  C   C244      1.0  0.41813  0.96123  0.00666  1.0000
  H   H231      1.0  0.38632  0.87486  0.54928  1.0000
  H   H232      1.0  0.33892  0.98004  0.95488  1.0000
  H   H233      1.0  0.39337  0.91329  0.56921  1.0000
  H   H234      1.0  0.41534  0.98639  0.54078  1.0000
  C   C245      1.0  0.64782  0.75883  0.99490  1.0000
  H   H235      1.0  0.66251  0.76181  0.97299  1.0000
  H   H236      1.0  0.61159  0.78749  0.97347  1.0000
  C   C246      1.0  0.67060  0.98114  0.54992  1.0000
  C   C247      1.0  0.61929  0.77320  0.99517  1.0000
  C   C248      1.0  0.37641  0.89329  0.56704  1.0000
  H   H237      1.0  0.42519  0.93825  0.99488  1.0000
  H   H238      1.0  0.37284  0.88179  0.59240  1.0000
  H   H239      1.0  0.66616  0.97054  0.57476  1.0000
  H   H240      1.0  0.35418  0.95389  0.57514  1.0000
  N   N20       1.0  0.34791  0.90603  0.55369  1.0000
  C   C249      1.0  0.41720  0.99050  0.98783  1.0000
  C   C250      1.0  0.33944  0.93772  0.56081  1.0000
  H   H241      1.0  0.42365  0.99002  0.96113  1.0000
  Fe  Fe43      1.0  0.89960  0.33032  0.43690  1.0000
  S   S85       1.0  0.89108  0.38412  0.42820  1.0000
  S   S86       1.0  0.94590  0.30923  0.42442  1.0000
  Fe  Fe44      1.0  0.83184  0.31478  0.44715  1.0000
  S   S87       1.0  0.81955  0.36776  0.43728  1.0000
  S   S88       1.0  0.79080  0.28061  0.45282  1.0000
  Fe  Fe45      1.0  0.85337  0.36666  0.39448  1.0000
  S   S89       1.0  0.84617  0.39171  0.34296  1.0000
  Fe  Fe46      1.0  0.85827  0.38034  0.47167  1.0000
  H   H242      1.0  0.79528  0.34814  0.36300  1.0000
  S   S90       1.0  0.86285  0.31306  0.40133  1.0000
  H   H243      1.0  0.74752  0.09427  0.47698  1.0000
  Fe  Fe47      1.0  0.83343  0.33521  0.06832  1.0000
  S   S91       1.0  0.81446  0.36666  0.11093  1.0000
  S   S92       1.0  0.81152  0.30190  0.02772  1.0000
  Fe  Fe48      1.0  0.89833  0.36102  0.08128  1.0000
  S   S93       1.0  0.88396  0.39330  0.12477  1.0000
  S   S94       1.0  0.94429  0.36320  0.05585  1.0000
  Fe  Fe49      1.0  0.85519  0.35068  0.14136  1.0000
  S   S95       1.0  0.85426  0.32743  0.19466  1.0000
  Fe  Fe50      1.0  0.84495  0.40691  0.09086  1.0000
  S   S96       1.0  0.83534  0.46188  0.08670  1.0000
  S   S97       1.0  0.87256  0.31693  0.09964  1.0000
  S   S98       1.0  0.86091  0.37686  0.04658  1.0000
  C   C251      1.0  0.83639  0.46732  0.01598  1.0000
  H   H244      1.0  0.96787  0.25717  0.07302  1.0000
  C   C252      1.0  0.90937  0.44914  0.03877  1.0000
  C   C253      1.0  0.67884  0.00894  0.09998  1.0000
  C   C254      1.0  0.78853  0.30338  0.29184  1.0000
  H   H245      1.0  0.92017  0.22826  0.08606  1.0000
  C   C255      1.0  0.92641  0.36216  0.33486  1.0000
  H   H246      1.0  0.80281  0.30543  0.35704  1.0000
  H   H247      1.0  0.97286  0.35849  0.37757  1.0000
  H   H248      1.0  0.90410  0.42273  0.34190  1.0000
  C   C256      1.0  0.85198  0.37403  0.30195  1.0000
  C   C257      1.0  0.85755  0.34039  0.29765  1.0000
  C   C258      1.0  0.85948  0.32685  0.26454  1.0000
  C   C259      1.0  0.85593  0.34670  0.23538  1.0000
  C   C260      1.0  0.85142  0.38054  0.23970  1.0000
  C   C261      1.0  0.84941  0.39409  0.27284  1.0000
  H   H249      1.0  0.85951  0.32459  0.31973  1.0000
  H   H250      1.0  0.86297  0.30064  0.26146  1.0000
  H   H251      1.0  0.84856  0.39611  0.21752  1.0000
  H   H252      1.0  0.84511  0.42017  0.27586  1.0000
  H   H253      1.0  0.79284  0.27912  0.30228  1.0000
  C   C262      1.0  0.77981  0.36059  0.29983  1.0000
  H   H254      1.0  0.94969  0.29390  0.08937  1.0000
  H   H255      1.0  0.75947  0.28932  0.07272  1.0000
  C   C263      1.0  0.78690  0.32549  0.35018  1.0000
  H   H256      1.0  0.90800  0.34907  0.34834  1.0000
  H   H257      1.0  0.87470  0.46067  0.46638  1.0000
  C   C264      1.0  0.73095  0.25529  0.04493  1.0000
  C   C265      1.0  0.77846  0.36533  0.26446  1.0000
  H   H258      1.0  0.78299  0.34205  0.21513  1.0000
  C   C266      1.0  0.78255  0.33851  0.24263  1.0000
  C   C267      1.0  0.97900  0.35959  0.07771  1.0000
  C   C268      1.0  0.98033  0.35239  0.11259  1.0000
  H   H259      1.0  0.96229  0.35319  0.48074  1.0000
  H   H260      1.0  0.95978  0.35002  0.12717  1.0000
  C   C269      1.0  0.97180  0.40625  0.40101  1.0000
  C   C270      1.0  0.98073  0.32478  0.43929  1.0000
  C   C271      1.0  0.98256  0.34596  0.46737  1.0000
  N   N21       1.0  0.78530  0.32998  0.31305  1.0000
  C   C272      1.0  0.83545  0.48363  0.04745  1.0000
  H   H261      1.0  0.76435  0.31943  0.36055  1.0000
  H   H262      1.0  0.70579  0.02562  0.04345  1.0000
  C   C273      1.0  0.86914  0.25026  0.02604  1.0000
  C   C274      1.0  0.68368  0.00783  0.48613  1.0000
  C   C275      1.0  0.86994  0.47416  0.48959  1.0000
  H   H263      1.0  0.87050  0.21148  0.06335  1.0000
  H   H264      1.0  0.68914  0.01823  0.46148  1.0000
  H   H265      1.0  0.77770  0.38178  0.31660  1.0000
  H   H266      1.0  0.89865  0.43511  0.01768  1.0000
  C   C276      1.0  0.95378  0.27876  0.06616  1.0000
  C   C277      1.0  0.96182  0.38230  0.37798  1.0000
  H   H267      1.0  0.99041  0.40097  0.41811  1.0000
  S   S99       1.0  0.69337  0.21254  0.01049  1.0000
  H   H268      1.0  0.91754  0.37231  0.31051  1.0000
  H   H269      1.0  0.83591  0.44072  0.01519  1.0000
  C   C278      1.0  0.74779  0.23994  0.48135  1.0000
  C   C279      1.0  0.78745  0.30729  0.25633  1.0000
  C   C280      1.0  0.72673  0.23671  0.01486  1.0000
  H   H270      1.0  0.74528  0.33134  0.49341  1.0000
  H   H271      1.0  0.89592  0.44397  0.06209  1.0000
  H   H272      1.0  0.93255  0.43965  0.04269  1.0000
  H   H273      1.0  0.96419  0.45510  0.42078  1.0000
  C   C281      1.0  0.92351  0.41818  0.35800  1.0000
  H   H274      1.0  0.71417  0.25430  0.06489  1.0000
  H   H275      1.0  0.92084  0.46595  0.38216  1.0000
  H   H276      1.0  0.73613  0.24314  0.45735  1.0000
  C   C282      1.0  0.71953  0.00723  0.05760  1.0000
  H   H277      1.0  0.94417  0.34393  0.32835  1.0000
  H   H278      1.0  0.77543  0.38983  0.25401  1.0000
  H   H279      1.0  0.79146  0.28653  0.23943  1.0000
  C   C283      1.0  0.77858  0.27699  0.02389  1.0000
  H   H280      1.0  0.96695  0.29385  0.04780  1.0000
  S   S100      1.0  0.86954  0.32717  0.48341  1.0000
  C   C284      1.0  0.91034  0.24191  0.06506  1.0000
  C   C285      1.0  0.77592  0.25522  0.48614  1.0000
  C   C286      1.0  0.93285  0.44271  0.38077  1.0000
  N   N22       1.0  0.92496  0.26851  0.05156  1.0000
  N   N23       1.0  0.93800  0.38844  0.35686  1.0000
  C   C287      1.0  0.75669  0.27520  0.04951  1.0000
  C   C288      1.0  0.95709  0.43659  0.40248  1.0000
  H   H281      1.0  0.74653  0.03601  0.49559  1.0000
  H   H282      1.0  0.92286  0.30857  0.01636  1.0000
  N   N24       1.0  0.90992  0.48453  0.03140  1.0000
  C   C289      1.0  0.91191  0.28668  0.02615  1.0000
  C   C290      1.0  0.88230  0.23228  0.05240  1.0000
  C   C291      1.0  0.88388  0.27777  0.01294  1.0000
  H   H283      1.0  0.84706  0.24357  0.01647  1.0000
  H   H284      1.0  0.71248  0.20994  0.50344  1.0000
  H   H285      1.0  0.73979  0.01962  0.06789  1.0000
  C   C292      1.0  0.74736  0.08831  0.50398  1.0000
  N   N25       1.0  0.70235  0.99222  0.08546  1.0000
  H   H286      1.0  0.00511  0.36798  0.03214  1.0000
  H   H287      1.0  0.67184  0.03261  0.08985  1.0000
  H   H288      1.0  0.70365  0.29635  0.51433  1.0000
  S   S101      1.0  0.69374  0.12508  0.62479  1.0000
  S   S102      1.0  0.73240  0.19479  0.57374  1.0000
  C   C293      1.0  0.72214  0.30259  0.53116  1.0000
  H   H289      1.0  0.67922  0.05528  0.51104  1.0000
  H   H290      1.0  0.69981  0.14280  0.72470  1.0000
  S   S103      1.0  0.69452  0.12736  0.95260  1.0000
  N   N26       1.0  0.74573  0.04783  0.54871  1.0000
  C   C294      1.0  0.74872  0.23834  0.98936  1.0000
  S   S104      1.0  0.69832  0.13560  0.85011  1.0000
  C   C295      1.0  0.74609  0.07231  0.57276  1.0000
  H   H291      1.0  0.72314  0.13819  0.78228  1.0000
  S   S105      1.0  0.85029  0.41467  0.51691  1.0000
  H   H292      1.0  0.91167  0.47769  0.97741  1.0000
  Fe  Fe51      1.0  0.67335  0.13916  0.90107  1.0000
  H   H293      1.0  0.81006  0.35753  0.54706  1.0000
  H   H294      1.0  0.70596  0.27275  0.57281  1.0000
  C   C296      1.0  0.79466  0.34868  0.52665  1.0000
  H   H295      1.0  0.74794  0.12483  0.58200  1.0000
  H   H296      1.0  0.78890  0.22839  0.56741  1.0000
  H   H297      1.0  0.69121  0.20703  0.78465  1.0000
  H   H298      1.0  0.83812  0.47261  0.96117  1.0000
  N   N27       1.0  0.76963  0.32930  0.54023  1.0000
  C   C297      1.0  0.68106  0.13385  0.80919  1.0000
  C   C298      1.0  0.74886  0.21680  0.53885  1.0000
  H   H299      1.0  0.67965  0.02526  0.96540  1.0000
  C   C299      1.0  0.69898  0.13675  0.77969  1.0000
  H   H300      1.0  0.74964  0.28514  0.60993  1.0000
  H   H301      1.0  0.78634  0.37090  0.51303  1.0000
  C   C300      1.0  0.74588  0.01331  0.55964  1.0000
  C   C301      1.0  0.72342  0.28938  0.56400  1.0000
  C   C302      1.0  0.85186  0.47571  0.54777  1.0000
  H   H302      1.0  0.74589  0.22433  0.96606  1.0000
  C   C303      1.0  0.68582  0.13916  0.74696  1.0000
  H   H303      1.0  0.74506  0.06633  0.59974  1.0000
  C   C304      1.0  0.85799  0.45766  0.51783  1.0000
  C   C305      1.0  0.74804  0.29626  0.58482  1.0000
  C   C306      1.0  0.74569  0.32243  0.51953  1.0000
  Fe  Fe52      1.0  0.67587  0.17640  0.96966  1.0000
  C   C307      1.0  0.77438  0.25837  0.99385  1.0000
  Fe  Fe53      1.0  0.68887  0.16582  0.58549  1.0000
  C   C308      1.0  0.77115  0.31632  0.57242  1.0000
  H   H304      1.0  0.84262  0.46321  0.56976  1.0000
  C   C309      1.0  0.73429  0.22099  0.50748  1.0000
  H   H305      1.0  0.76907  0.00549  0.56619  1.0000
  H   H306      1.0  0.79102  0.25958  0.97376  1.0000
  H   H307      1.0  0.81233  0.26200  0.52152  1.0000
  H   H308      1.0  0.79059  0.32085  0.58843  1.0000
  C   C310      1.0  0.77727  0.23150  0.54337  1.0000
  H   H309      1.0  0.87307  0.29268  0.99349  1.0000
  C   C311      1.0  0.74678  0.05543  0.51468  1.0000
  C   C312      1.0  0.74737  0.10540  0.56294  1.0000
  C   C313      1.0  0.79065  0.25069  0.51736  1.0000
  C   C314      1.0  0.83756  0.48547  0.98538  1.0000
  C   C315      1.0  0.67798  0.02886  0.51414  1.0000
  C   C316      1.0  0.74768  0.11342  0.52835  1.0000
  H   H310      1.0  0.73108  0.00987  0.58229  1.0000
  H   H311      1.0  0.74812  0.13911  0.52061  1.0000
  H   H312      1.0  0.73698  0.99677  0.53935  1.0000
  H   H313      1.0  0.80779  0.33336  0.50851  1.0000
  H   H314      1.0  0.67652  0.24627  0.77026  1.0000
  H   H315      1.0  0.67326  0.20962  0.74404  1.0000
  C   C317      1.0  0.67216  0.01551  0.54639  1.0000
  C   C318      1.0  0.67257  0.21933  0.77064  1.0000
  H   H316      1.0  0.71734  0.84202  0.33678  1.0000
  S   S106      1.0  0.70210  0.85430  0.42181  1.0000
  H   H317      1.0  0.71508  0.81183  0.30329  1.0000
  C   C319      1.0  0.75440  0.72072  0.04872  1.0000
  C   C320      1.0  0.70130  0.77086  0.35178  1.0000
  H   H318      1.0  0.72649  0.98822  0.03867  1.0000
  H   H319      1.0  0.00474  0.65826  0.01255  1.0000
  H   H320      1.0  0.68537  0.77147  0.33082  1.0000
  S   S107      1.0  0.71459  0.76469  0.07800  1.0000
  S   S108      1.0  0.70392  0.86137  0.09955  1.0000
  C   C321      1.0  0.73929  0.75103  0.04489  1.0000
  C   C322      1.0  0.68269  0.97338  0.48985  1.0000
  C   C323      1.0  0.90952  0.50670  0.05774  1.0000
  N   N28       1.0  0.72433  0.79309  0.35332  1.0000
  H   H321      1.0  0.76131  0.81136  0.38232  1.0000
  Fe  Fe54      1.0  0.68476  0.82071  0.46343  1.0000
  H   H322      1.0  0.90731  0.49823  0.08390  1.0000
  H   H323      1.0  0.71388  0.73000  0.42615  1.0000
  H   H324      1.0  0.75546  0.77040  0.42861  1.0000
  C   C324      1.0  0.83704  0.53642  0.01735  1.0000
  H   H325      1.0  0.88469  0.52084  0.46931  1.0000
  H   H326      1.0  0.85785  0.70433  0.05829  1.0000
  C   C325      1.0  0.87560  0.50829  0.49134  1.0000
  H   H327      1.0  0.78529  0.68527  0.02650  1.0000
  C   C326      1.0  0.86655  0.71805  0.03672  1.0000
  H   H328      1.0  0.82772  0.74919  0.03298  1.0000
  S   S109      1.0  0.70834  0.77436  0.48516  1.0000
  C   C327      1.0  0.72720  0.81862  0.32711  1.0000
  H   H329      1.0  0.75112  0.82272  0.32029  1.0000
  S   S110      1.0  0.69326  0.94775  0.45509  1.0000
  C   C328      1.0  0.83546  0.51825  0.04795  1.0000
  S   S111      1.0  0.68384  0.91947  0.02569  1.0000
  H   H330      1.0  0.72920  0.94863  0.08603  1.0000
  H   H331      1.0  0.83451  0.53108  0.07215  1.0000
  C   C329      1.0  0.69584  0.94814  0.12560  1.0000
  Fe  Fe55      1.0  0.67683  0.89472  0.45010  1.0000
  C   C330      1.0  0.74345  0.76247  0.50379  1.0000
  H   H332      1.0  0.73222  0.79217  0.01132  1.0000
  C   C331      1.0  0.74371  0.76891  0.01480  1.0000
  H   H333      1.0  0.75108  0.70655  0.07178  1.0000
  H   H334      1.0  0.99381  0.61111  0.50298  1.0000
  C   C332      1.0  0.89446  0.71005  0.02271  1.0000
  Fe  Fe56      1.0  0.68601  0.81156  0.08514  1.0000
  C   C333      1.0  0.74056  0.76996  0.40666  1.0000
  C   C334      1.0  0.74371  0.79303  0.38043  1.0000
  C   C335      1.0  0.69728  0.74770  0.37778  1.0000
  C   C336      1.0  0.84960  0.74348  0.02224  1.0000
  C   C337      1.0  0.71091  0.96217  0.09788  1.0000
  H   H335      1.0  0.73198  0.71091  0.50340  1.0000
  H   H336      1.0  0.68010  0.73078  0.02334  1.0000
  C   C338      1.0  0.71714  0.74724  0.40529  1.0000
  H   H337      1.0  0.67845  0.73081  0.37702  1.0000
  H   H338      1.0  0.83724  0.56303  0.01812  1.0000
  H   H339      1.0  0.90777  0.69013  0.03337  1.0000
  C   C339      1.0  0.77381  0.70853  0.02303  1.0000
  H   H340      1.0  0.90985  0.55810  0.07214  1.0000
  C   C340      1.0  0.67783  0.88784  0.26278  1.0000
  H   H341      1.0  0.68905  0.91132  0.26021  1.0000
  S   S112      1.0  0.67914  0.88641  0.19236  1.0000
  C   C341      1.0  0.91086  0.54058  0.05125  1.0000
  H   H342      1.0  0.67716  0.88976  0.31809  1.0000
  H   H343      1.0  0.70279  0.92446  0.13564  1.0000
  H   H344      1.0  0.91323  0.57790  0.01209  1.0000
  C   C342      1.0  0.91268  0.55168  0.01759  1.0000
  Fe  Fe57      1.0  0.85237  0.68012  0.57488  1.0000
  S   S113      1.0  0.82800  0.63239  0.58390  1.0000
  S   S114      1.0  0.83226  0.72911  0.55562  1.0000
  Fe  Fe58      1.0  0.91189  0.65202  0.60510  1.0000
  S   S115      1.0  0.89095  0.60292  0.61625  1.0000
  S   S116      1.0  0.95965  0.65596  0.62557  1.0000
  Fe  Fe59      1.0  0.87016  0.60734  0.56422  1.0000
  H   H345      1.0  0.94290  0.56716  0.55859  1.0000
  Fe  Fe60      1.0  0.85144  0.63221  0.63533  1.0000
  S   S117      1.0  0.82641  0.62216  0.68514  1.0000
  S   S118      1.0  0.89331  0.65541  0.55197  1.0000
  S   S119      1.0  0.87347  0.68106  0.62745  1.0000
  Fe  Fe61      1.0  0.90097  0.64563  0.95655  1.0000
  S   S120      1.0  0.89499  0.60626  0.91734  1.0000
  S   S121      1.0  0.94444  0.65113  0.98665  1.0000
  Fe  Fe62      1.0  0.83544  0.66979  0.94949  1.0000
  S   S122      1.0  0.82501  0.63139  0.90919  1.0000
  H   H346      1.0  0.83329  0.77705  0.95319  1.0000
  Fe  Fe63      1.0  0.85092  0.59652  0.94328  1.0000
  S   S123      1.0  0.84122  0.54172  0.94677  1.0000
  Fe  Fe64      1.0  0.86990  0.64384  0.88629  1.0000
  S   S124      1.0  0.88517  0.65019  0.83097  1.0000
  S   S125      1.0  0.85824  0.63379  0.98513  1.0000
  S   S126      1.0  0.87910  0.68435  0.92414  1.0000
  H   H347      1.0  0.77390  0.64553  0.64826  1.0000
  S   S127      1.0  0.80370  0.71348  0.96027  1.0000
  C   C343      1.0  0.88724  0.75227  0.98022  1.0000
  C   C344      1.0  0.77829  0.72646  0.99297  1.0000
  H   H348      1.0  0.80377  0.76357  0.66067  1.0000
  H   H349      1.0  0.83212  0.54014  0.85138  1.0000
  N   N29       1.0  0.86458  0.55942  0.81627  1.0000
  N   N30       1.0  0.86002  0.76020  0.99431  1.0000
  C   C345      1.0  0.80961  0.75131  0.63620  1.0000
  C   C346      1.0  0.84199  0.63262  0.72549  1.0000
  C   C347      1.0  0.87140  0.64430  0.72846  1.0000
  C   C348      1.0  0.88379  0.65044  0.76095  1.0000
  C   C349      1.0  0.86703  0.64500  0.79089  1.0000
  C   C350      1.0  0.83734  0.63405  0.78795  1.0000
  C   C351      1.0  0.82491  0.62788  0.75538  1.0000
  H   H350      1.0  0.88482  0.64811  0.70575  1.0000
  H   H351      1.0  0.90674  0.65899  0.76292  1.0000
  H   H352      1.0  0.82409  0.63001  0.81072  1.0000
  H   H353      1.0  0.80207  0.61904  0.75335  1.0000
  C   C352      1.0  0.91189  0.49520  0.99833  1.0000
  H   H354      1.0  0.94711  0.61082  0.56594  1.0000
  H   H355      1.0  0.92642  0.72074  0.98291  1.0000
  C   C353      1.0  0.67551  0.96018  0.52177  1.0000
  C   C354      1.0  0.85051  0.55856  0.85012  1.0000
  C   C355      1.0  0.79830  0.74080  0.53430  1.0000
  H   H356      1.0  0.83275  0.74109  0.63775  1.0000
  C   C356      1.0  0.90498  0.72732  0.99438  1.0000
  C   C357      1.0  0.98236  0.64654  0.93055  1.0000
  C   C358      1.0  0.97997  0.65075  0.96589  1.0000
  C   C359      1.0  0.85752  0.50987  0.54952  1.0000
  H   H357      1.0  0.96229  0.64351  0.91529  1.0000
  C   C360      1.0  0.84788  0.55229  0.78786  1.0000
  C   C361      1.0  0.91310  0.52889  0.99092  1.0000
  C   C362      1.0  0.76305  0.75668  0.98908  1.0000
  H   H358      1.0  0.67479  0.93375  0.52508  1.0000
  H   H359      1.0  0.84114  0.58323  0.85622  1.0000
  H   H360      1.0  0.97393  0.67901  0.55658  1.0000
  N   N31       1.0  0.78794  0.72515  0.62870  1.0000
  C   C363      1.0  0.79127  0.69491  0.64361  1.0000
  C   C364      1.0  0.76386  0.73145  0.60797  1.0000
  C   C365      1.0  0.77079  0.66965  0.63685  1.0000
  C   C366      1.0  0.74299  0.70673  0.60060  1.0000
  C   C367      1.0  0.74664  0.67558  0.61500  1.0000
  H   H361      1.0  0.81003  0.69000  0.66058  1.0000
  H   H362      1.0  0.98652  0.56392  0.59954  1.0000
  H   H363      1.0  0.72447  0.71165  0.58330  1.0000
  C   C368      1.0  0.79288  0.77442  0.52778  1.0000
  H   H364      1.0  0.81015  0.76990  0.61536  1.0000
  H   H365      1.0  0.76114  0.75542  0.59614  1.0000
  H   H366      1.0  0.73088  0.65604  0.60914  1.0000
  C   C369      1.0  0.99442  0.67091  0.56888  1.0000
  H   H367      1.0  0.76625  0.77081  0.96596  1.0000
  H   H368      1.0  0.85501  0.80869  0.97458  1.0000
  C   C370      1.0  0.86035  0.55530  0.75518  1.0000
  C   C371      1.0  0.88998  0.56590  0.75170  1.0000
  H   H369      1.0  0.89945  0.56970  0.72646  1.0000
  H   H370      1.0  0.84672  0.55096  0.73262  1.0000
  C   C372      1.0  0.86939  0.52637  0.52125  1.0000
  H   H371      1.0  0.85261  0.52341  0.57267  1.0000
  C   C373      1.0  0.95415  0.58994  0.54943  1.0000
  H   H372      1.0  0.90624  0.57764  0.83541  1.0000
  H   H373      1.0  0.86701  0.55181  0.87025  1.0000
  C   C374      1.0  0.89359  0.57006  0.81305  1.0000
  C   C375      1.0  0.90678  0.57330  0.78078  1.0000
  H   H374      1.0  0.89513  0.76486  0.95752  1.0000
  C   C376      1.0  0.00021  0.57259  0.57846  1.0000
  C   C377      1.0  0.74895  0.72882  0.51010  1.0000
  C   C378      1.0  0.99325  0.65735  0.60165  1.0000
  N   N32       1.0  0.98695  0.58649  0.55044  1.0000
  H   H375      1.0  0.91344  0.53733  0.96464  1.0000
  C   C379      1.0  0.83815  0.52007  0.98590  1.0000
  H   H376      1.0  0.82167  0.79229  0.99412  1.0000
  C   C380      1.0  0.84165  0.78593  0.97835  1.0000
  H   H377      1.0  0.82447  0.54532  0.79028  1.0000
  H   H378      1.0  0.92935  0.58304  0.77835  1.0000
  H   H379      1.0  0.80975  0.79237  0.53472  1.0000
  S   S128      1.0  0.87715  0.56933  0.52182  1.0000
  C   C381      1.0  0.77616  0.71801  0.52508  1.0000
  H   H380      1.0  0.76201  0.81114  0.50795  1.0000
  H   H381      1.0  0.77987  0.69209  0.52982  1.0000
  H   H382      1.0  0.94567  0.59445  0.52313  1.0000
  H   H383      1.0  0.99912  0.72972  0.61247  1.0000
  H   H384      1.0  0.69737  0.96783  0.97467  1.0000
  C   C382      1.0  0.67964  0.97778  0.99058  1.0000
  C   C383      1.0  0.76576  0.78520  0.51256  1.0000
  C   C384      1.0  0.00422  0.59891  0.52456  1.0000
