data_image0
_chemical_formula_structural       FeSHFeS2FeSFeS4C4HSHCFeS2FeS2Fe2S3FeS2FeSCFeSFeS2CNH2CHCHC2FeH4CH2C4H2C6H2C6H4C6H2CHC7HCH3C7H6CNHSCH3CH3C2HC2SH2SNH3C3H5C2NC3HC2H4C2NH3C3HCSCSH2CSC3H5CHNCHC4HCHFeHC3HNHCH2NHCH3NHCHCH2CH2CHCH4CHC3SHNC2H2CFeS2FeS2FeSFeS3HSH2FeS2FeS2FeSFeS3H2NFeS3FeSFeNSCFeS2FeSFeS2FeS2FeS2FeSFeS3CHCFeCFeS3C6H4C6H4C4H2C6H5SHSC12H4C6H5CHC4HCH2C2H2FeC6H4FeHCHFeCH3S2HSC4HNC6H8CH2C2HCHCHCHCHN2C6H9NC6H4CH3C5H2C2NHC2H6SC2HC2HFeCHSCH4SH4C4HNHCH11SHCHC7H2C4NCNCSC2HC3HC4HC3H6C2H2CH2CNHC2NCHCHCH9C2NHSH4C2HSCHNHFeHSCH3CHSHC3HFeSHFeS2FeHFeS3H2CHFeSCHFeS2FeS2FeSFeS3FeS2FeS2Fe2S3CFeS3HCSH2CHCHCHFeS2FeS2FeSFeS3C3H2CFeC5HSH2CHCH7C7H4C5H2CH2C6H4C6H6C3H2C7H5CFeHC2H2CHC2H3C6H5C5H3CH7C2SHC2SNH3NHCH2C2HSNHCNCH2C3H5NC6H8CHCH3NHC4NHC4HCH3CFeC4HC4HC2H2CH2SC2S2C4H4FeC2SC3H2C2HC3HC4HSHSHC2NC6H9C2H2SCH3S2H3C3FeCSHNSCHCNH2CNH5CH2NH2C2H2CHSCH2CHCNCHCHFeS2FeS2FeSFeS4FeS2FeS2FeSFeCS2H3CHCFeHFeC2NCSHSH4C2HSNHCHNHNHC4HC9H4C6H4C2HC2H3SCHCH3CH2CH2C6H6CH2C2SCHFeHCH3C2HC2FeHCH2NHCH2CHCHCNHFeCHCH2CH3NCHC2HCHC2SC3S2CH2SC2HCH2CSHC2SCHCHCHCHC4HC2H2CSH5CSFeH2CH4SCNCNHCSC2HFeSFeSFe2S2FeS2FeSCFeSFeHS2HFeHSFeS2FeS2FeSFeS3FeNS3FeS2FeS2FeSFeS3H2SFeS2H2FeSCFeS2FeSHFe2S3HCH3CSHC6H4C6H5CH2SHC6H4C6H4C6H4SC6H4SC2H3C3HC6H4C6H6CH2C5SH3NC6H8NC6H8C3H3CHC4NH2NC6H9CNSC2NC6H8C3SC3FeH2CH2CH2CSC2NC7HC4HCHCNC6H8NC6H8C2NSH3C2H2C2H2NC6H7CSCH2FeSC2NHCFeHCHCFeSCHCSH2CH2S2CSC2NHC2SCHC4SH2Fe2C2HSC2SNCH5C2H3CH2CHCHC3H10CHCHSC2SHCH2CH3C2HCHCHCHFeS2FeS2FeSFeCS2FeSCFeSHFeSFeS3H5CHCHCSHFeSHCH2NH3SHC2FeNC2H5C2HCH2C5HCSHC3H2C6SH3C6H5C2HC2SHC3HNCHCH2SC5NHC2H3SH3C2H2FeC2HC2HC2H4CH6C3FeS2FeS2FeSFeCS2FeS2FeCNFeHS2FeS2FeSFe2S3C3HCHFeH5CNH3SHCHCHC2H2CSHC2HC3HCH7C3HC2H4CHSC6H3SCSH2C8H4C2FeHC6H6NCHCHC2HCHC2HSH2C3HCHC3SH4CHC2SHC4HNC2HNH2C4FeCSFeHSNH3S2FeCSFeCFeH2S2H2FeSHFeSHSFeS2FeSFeSFeS3FeSFeS2FeSFeS3FeS2FeS2FeSFeS3HFeS2FeS2FeSFeS3H2SHC5FeH2SHC7H4C6H4C6H4C6H4C6HCH2C6H4SCH3CHC5H5C7H2CH2C5SH2C2HCHCH2C6H4FeH3FeSNH3C6HC3HSCHCH3C2SHNC4H6NC6H2CHCH3SH2CH3NHC2H3SNC5H7C4H3CSFeSHCNH3NH2SNC6H9C2HCH2C4NC6H4CH4CSC3H6CH2NH2SHCNFeC4HCH2CHCH2CSHCHC4NCH2CHCHSCHFeHC3HSHCH4SC5HCH3SHCH4CS3CFeS2FeS2FeSFeS3CSCH2SCH2C2FeSCFeS2FeSFeS3HCHFeS2FeCFeSHSHNC3HCFeS2FeS2FeCFeS3C6H4CHCH3FeC2HC6H4CH2CHC4H2C4NCH2NHCHC2FeCH3SC3H5SH3CHCSCH2C6H4C6H4C6H4C6H4C2H2SH8CHFeSHNFeCHCHNCH2FeHC3H3CH4CHCNCHCSHC2H2NCHCH2C2HNHC2HCH2CH3C3HC3H5NC2HCHC3FeSHS2HFeSFeS2HFeHCFeSHFeS2FeSFeS2FeSHFeS2FeSFeS3FeS2FeS2FeCFeS3FeS2FeS2FeSFeHS2FeS2FeS2HCFeS3C2HCHC2H4SH2C3H2C6H4C2HSH2C9H4C6H4C6H4C6H4C6H4NH4C7H5C2H2SHCSH2C6H3CNC2H3C5NH5C2SCSCHCH3CFeHC2H2NCHCNH3C3HNHFeC2NC6H9CHC4H2SHCH3CH2NC3HC2HCHFeCHC2SCHCSC2Fe2CNSHC2H2CH2C2HCH2NC6H8NC6H8CHCH4C2H3SCH2SH2C2H4C3HS2C2H2SH2NH2CHC2H7CH6CHSCFeSFeSHFeSCHSHFeCFeSCSFeS2FeS2FeSFeS3FeS2FeSCFeSFeS3FeS2FeHSFeSCHSCFeS2FeS2FeHFeS4HFe2S2Fe2S3CH3CFeHC2NH2C6H5CHSHC2H2C7H4C6H4C6H4C2HC5H2C6H4C4H2C6H5CH2NSHCH3C2NCHC3HFeH2CHCH2C6H2CHNC5HCH3C3HCH2SHCH2C2HCNHC3SH3CSH2NC6H8NC6H3CH4NC6HCSH2SH2NC6H10CS2CHCSCH2CH3CNC3NHCSH3C2H4CH3SFeH2CHC2HC3H2CH4CNCHNHC2HNH3CFeC2H3C3HCHNCH2FeSFeS2FeSFeS2HFeS2FeS2CFeS3C2FeS2FeSFeCS2FeS2FeS2FeSFeS3H3FeS2FeS2FeSFeS3CHC3HCH2C8H4C6H2C6H4C6H4C6H4C3HC2H2CHC2H2SHC2HCNHCH3CH4NCH2C6H5CHC2HC3H2NC6H8NSH2SH2CHNHNH3CFeH2C3H2SH2C2NC6H10C2HCHC3H2CH2C2H3CSC4NHSCNC2HCHCHCHFeC2HCH2C2NC6H11CHC2SC3H2C2H3CHCH2CH2CH3FeSFeS2FeSFeNS2FeS2FeS2FeSFeS3CHFeS2FeS2FeSFeS3HCHCNH4C5HCH4C2NH2CH4SC4H5NC6H4C6HCH2CNCFeC4H2FeC3H2C6H4C2HCH2CH2NC6H8SC5H5CH3C2HSHC3H4CH3C2H7C2FeHCHC7HCHC2H2CH3CHSC2SHNCNHCH2SH2C3S2C5H2SHSHCH2C2SHCSC2SC2FeS2FeSFeS2FeSFeS3FeS2FeS2FeSFeS3FeS2FeS2FeSFeS3C2FeSFeSFeS2FeS2FeSFeS3FeHCS2HC2H2CHC6H4CH3CHC2NCSCH2C6H4C6H4CH2C4H3C6H4C6H4CH2C4H2C6H4C6H4C6H4C6H4SC3H2SH2CNC6H8NC2HC2H2CH5CHCSC4H5C3H7C2SCHCHCH5NCHC5HCNH2CHCH7C2NC6H5CH3CH2C2H4C2FeH3SH2CHCHCH2SCNC5FeSFeH2SH2CFeHNC2H2S2H2CH2CHCHCNSFeCSNH3C2N2CHCNH3SNSHSCSNCFeHCH2C2FeHCHCH2C2H2C2H3CH5FeC3H2C3NCH3C2HC3FeCHFeSFeS2FeSFeS2CFeS2FeS2FeSFeS3FeS2FeS2FeSFeS3FeS2FeS2FeSFeS5HC2HCHFeSCFeS2FeS2FeSFeS3HC4FeCHC2H3C6H4C4H4CHC6H4C3H2C2HC3HNH2C6H4C6H4C3H2C3HC2H4C6H4C6H5C7H3C6H6C2HC2H4CNHCHC4NHNC6H8C2H5SNC4H7C3HSNHCH4CHSCFeC3HCH2C3HC2HFeCNH2SCFeCHCSHSCH3N2C6H8FeH2C3SH3SCHC3HCHNH2CH3SH7NSHCNHC5NC6H7CH4NCH2Fe2C4H2C2NH2C2H2CH4CSCHCSCH2C2HCHCHSH3C2HSCSHCSCH3SCHC3H3CHCSC3FeSHCHFeCHCH2FeS2FeSCFeCFeS3FeS2FeS2Fe2CS2H2C3NC2HCH5CNHCH2FeS2FeS2FeSFeCS2HCH3CH2CH4SCSCH3C6H5C4HCH5NCH3CH2C8H4C4H2CH3SC2NH3CHC7H4C2HC2HNH2NHCHC2HC5H2CSCH3C2H2CHCSHCHCSC4HCHCFeS2FeSFeC3S2FeSHFeS2FeSFeS3FeS2FeS2FeSFeS3FeS2FeS2FeSFeS3FeS2FeS2FeSFeS3HSCFeS2Fe2HS2CHSFeS2FeS2FeSFeS3HFeNC3NHCH2SHCHCNCH2FeH2C3H2C6H4C6H4C6H6C3HC3H3C6H4C6H4C6H2NC7H4C6HCH2C6H4C6H4SC2SHCSC2HFeNCH3SH3CSC2HC3H2CNC3HCH2NHC2H5CH2CH2CH2CHC3SC3HC4NC3NC6H8SH2SH4FeHN2CHFeH2CHNC6H8NC6H10CHCHCH2NC2HC3H3CH4C2NC6H5CH3CH2CH2CSC2H3CHCH5C2H7CH2CHSH4CHCH2CH2CHCHCH4CH2FeS2FeS2FeSFeS3FeS2FeSHFeSFeS3HCH2CHC3HCHCHCH2SCH2C4HCHCHCHFeCHCH2CHCSCNCHC2H3CH2CH2C6H2CHNHNC6H4C6H2CHC6H4SC3HCHSHC2H2C2HC2HCSH2CH3C2NHC4H3CHCHC3HCH3NCH3CNC3HCNCHC2H2SH3CHCHFeS2FeSHFeSFeS3FeCFeS3NSH2C2H3CFeHSHCHSH2C4NH3FeCH3C4HCH2SH2CH2SH2SHC4HC7H4CH2CH5NC6H5CSC5H4CNC3HC2NH3CHC2SHCHCH4NCFeSH2CH2CSH4C2H2C2HSCHC2HSHFeS2FeS2FeSFeS3FeS2FeS2Fe2S3FeS2FeS2FeSFeS3CS2FeS2FeS2FeSFeS3FeS2FeS2FeSFeS3H3CSHCFeS2FeS2FeSFeS3C7H2FeC6H2C4H2C2HCH2C6H4C6H4CH2NHCHCSC8H4C4H3C6H4C6H4NHC6H4C6H4C9H4SHC4HCH2C2H5CFeC3FeH7C5H4NC6HFeH3C2H2NH2NH3NHC3FeH2CHSCHCH4NC6H8NC6H8NC6H8NC6H3FeH3C2HCH2CHCHCHFeHS2NC6H8CH3CH2CHNC6HSHCSHNHSCH5C5HCHC4H2CHC4HCHFeCHCSCSH2CSCHC2H2SFeCH2CH6C2H2CH2CHCNCH3CHC3HC5SNHCHNHCH2C2HFeH2CH3CH3NH2CH3CH3FeHNFeS2HC2HS2FeS2FeS2FeSFeS2FeS3FeS2FeSFe2S3H2C2H3FeCSHCSCH2C2H2C3HC2HCSCS2H2NHFeC2H4CSHCH2SCHFeHNC2HCH2SH2SH3NCH2CH2C6H4C6H4C6H6CHFeSNHC2HCH2C2HC4HFeC5H4CFeC2HCH2CH2C2SHC3HC4SCH2CSHC2H2NSH4CFeHC4H2C2HCHNHC2H2CH2CH2CNCH2FeCSHFeSFeSC2HFeS2FeSFeHSHCH3C2FeSCSCSHSFeCSFeS2FeSCS2CS2FeSFeS2FeS2FeCSFeS2C7H2SFeHC6H4C6H5SHCSHSH2NSCSC3H2CHC6H4C7HC2HC7H4FeHC2H2CNH4C3SFeHSH2C4HCNC4SCH3CH4NC6H8FeS2HC3HFeHSH2C4S2HCNH2C2H2C2NC2H4CNH3C3HSCSHC2HCH2FeC2NCFeH3Fe3HCSHSC3HSC5SHSCH3S2CH2CFeHC2H3SHCNH2CH4NH3NHCH4CH2C5NH2CH3C3H2C2H3CHCHCHCH3C2SC3FeCSC3FeSHFeS2Fe2CS2HFeNS2FeS2FeS2FeSFeS3FeSFeS2FeSFeS2FeSFeS3FeSFeS2FeSFeS3HS2C2SH3C6H4C6H4C6H4CSHCHC2HC6H4C6H4CFeC7H4C7H6SCH2CH2NCFeC2H3CNCFeH2CH2CH2SHCHC2SHC3HCHCH2CH4CHC2HC2NC6H8C2H3FeCSHCHCH5S2NHCHCSH2CHC4H2CH2NHC2H2CHCSCHFeNC6H8NC2HCH2C3H4CHC2H3CH4CH4SHNH2CH2CSCFeS2FeS2FeSFeHS2FeHSFeCSFeS2HFeS2HCFeS2Fe2CS2FeS2FeS2Fe2S3C6H4C6H3FeSHC3HC6H4C6H4C2HC6H8C2SCH3FeH2SH5SC3NCN2HCSFeH2CFeCH3NC5H2CHCHCH3CHCSHC2H3NCHC2H2CHSH4C2HSCNC6H9CHCSH4C2SHC2H3C2H2CN2SCSCH
_chemical_formula_sum              "Fe512 S1024 H3072 C3072 N256"
_cell_length_a       79.3367
_cell_length_b       80.4006
_cell_length_c       112.551
_cell_angle_alpha    74.1954
_cell_angle_beta     74.1643
_cell_angle_gamma    74.0987

_space_group_name_H-M_alt    "P 1"
_space_group_IT_number       1

loop_
  _space_group_symop_operation_xyz
  'x, y, z'

loop_
  _atom_site_type_symbol
  _atom_site_label
  _atom_site_symmetry_multiplicity
  _atom_site_fract_x
  _atom_site_fract_y
  _atom_site_fract_z
  _atom_site_occupancy
  Fe  Fe1       1.0  0.45451  0.09328  0.02178  1.0000
  S   S1        1.0  0.42952  0.11416  0.02551  1.0000
  H   H1        1.0  0.41909  0.07463  0.00017  1.0000
  Fe  Fe2       1.0  0.43627  0.06309  0.03637  1.0000
  S   S2        1.0  0.40995  0.08132  0.04179  1.0000
  S   S3        1.0  0.43996  0.03363  0.04288  1.0000
  Fe  Fe3       1.0  0.41614  0.09557  0.02150  1.0000
  S   S4        1.0  0.39477  0.10513  0.01010  1.0000
  Fe  Fe4       1.0  0.42603  0.09793  0.04538  1.0000
  S   S5        1.0  0.41950  0.10716  0.06376  1.0000
  S   S6        1.0  0.44156  0.07629  0.01586  1.0000
  S   S7        1.0  0.45191  0.07811  0.04175  1.0000
  S   S8        1.0  0.31541  0.31211  0.16938  1.0000
  C   C1        1.0  0.42313  0.99814  0.03201  1.0000
  C   C2        1.0  0.38873  0.22835  0.16122  1.0000
  C   C3        1.0  0.47744  0.15562  0.07433  1.0000
  C   C4        1.0  0.33574  0.28050  0.12487  1.0000
  H   H2        1.0  0.45219  0.09528  0.07534  1.0000
  S   S9        1.0  0.40366  0.99935  0.01492  1.0000
  H   H3        1.0  0.39248  0.02148  0.05110  1.0000
  C   C5        1.0  0.27883  0.19695  0.21220  1.0000
  Fe  Fe5       1.0  0.43605  0.18677  0.08482  1.0000
  S   S10       1.0  0.44221  0.16804  0.10274  1.0000
  S   S11       1.0  0.43514  0.17919  0.06701  1.0000
  Fe  Fe6       1.0  0.43999  0.21892  0.09282  1.0000
  S   S12       1.0  0.44602  0.20276  0.11122  1.0000
  S   S13       1.0  0.44464  0.24653  0.08867  1.0000
  Fe  Fe7       1.0  0.46361  0.18274  0.10034  1.0000
  Fe  Fe8       1.0  0.42393  0.18987  0.11221  1.0000
  S   S14       1.0  0.40677  0.18393  0.13178  1.0000
  S   S15       1.0  0.45913  0.19966  0.08169  1.0000
  S   S16       1.0  0.41612  0.20782  0.09442  1.0000
  Fe  Fe9       1.0  0.33357  0.24933  0.16531  1.0000
  S   S17       1.0  0.33718  0.23109  0.18390  1.0000
  S   S18       1.0  0.33807  0.24263  0.14642  1.0000
  Fe  Fe10      1.0  0.32318  0.28253  0.17579  1.0000
  S   S19       1.0  0.32616  0.26755  0.19532  1.0000
  C   C6        1.0  0.38575  0.03564  0.05076  1.0000
  Fe  Fe11      1.0  0.35098  0.25105  0.18556  1.0000
  S   S20       1.0  0.37520  0.24188  0.19423  1.0000
  Fe  Fe12      1.0  0.31207  0.24895  0.19222  1.0000
  S   S21       1.0  0.34942  0.26790  0.16625  1.0000
  S   S22       1.0  0.30701  0.26534  0.17339  1.0000
  C   C7        1.0  0.41607  0.26546  0.18966  1.0000
  N   N1        1.0  0.40607  0.22751  0.15225  1.0000
  H   H4        1.0  0.45199  0.22568  0.12878  1.0000
  H   H5        1.0  0.31438  0.16846  0.22235  1.0000
  C   C8        1.0  0.45783  0.03771  0.99774  1.0000
  H   H6        1.0  0.47686  0.19283  0.12042  1.0000
  C   C9        1.0  0.24653  0.26627  0.22836  1.0000
  H   H7        1.0  0.47927  0.30234  0.13254  1.0000
  C   C10       1.0  0.42894  0.24229  0.13832  1.0000
  C   C11       1.0  0.28711  0.17036  0.23268  1.0000
  Fe  Fe13      1.0  0.42057  0.31139  0.15514  1.0000
  H   H8        1.0  0.37795  0.23740  0.15654  1.0000
  H   H9        1.0  0.46847  0.14300  0.03657  1.0000
  H   H10       1.0  0.29537  0.29806  0.19385  1.0000
  H   H11       1.0  0.43369  0.25443  0.13385  1.0000
  C   C12       1.0  0.29678  0.22479  0.22070  1.0000
  H   H12       1.0  0.36710  0.08358  0.02035  1.0000
  H   H13       1.0  0.42478  0.26606  0.19537  1.0000
  C   C13       1.0  0.49310  0.22009  0.08530  1.0000
  C   C14       1.0  0.32042  0.20336  0.22999  1.0000
  C   C15       1.0  0.31501  0.21719  0.22016  1.0000
  C   C16       1.0  0.49846  0.07831  0.04306  1.0000
  H   H14       1.0  0.33527  0.31592  0.14223  1.0000
  H   H15       1.0  0.32493  0.22157  0.21200  1.0000
  C   C17       1.0  0.41627  0.27658  0.17768  1.0000
  C   C18       1.0  0.40529  0.27544  0.17024  1.0000
  C   C19       1.0  0.39277  0.26465  0.17522  1.0000
  C   C20       1.0  0.39184  0.25424  0.18744  1.0000
  C   C21       1.0  0.40395  0.25415  0.19449  1.0000
  C   C22       1.0  0.47344  0.12419  0.02488  1.0000
  H   H16       1.0  0.38387  0.26449  0.16957  1.0000
  H   H17       1.0  0.40344  0.24589  0.20390  1.0000
  C   C23       1.0  0.38780  0.20043  0.13572  1.0000
  C   C24       1.0  0.38335  0.21604  0.12691  1.0000
  C   C25       1.0  0.36801  0.22895  0.13026  1.0000
  C   C26       1.0  0.35738  0.22649  0.14252  1.0000
  C   C27       1.0  0.36200  0.21105  0.15141  1.0000
  C   C28       1.0  0.37712  0.19797  0.14798  1.0000
  H   H18       1.0  0.39154  0.21805  0.11746  1.0000
  H   H19       1.0  0.36440  0.24080  0.12332  1.0000
  H   H20       1.0  0.35369  0.20900  0.16084  1.0000
  H   H21       1.0  0.38049  0.18585  0.15479  1.0000
  C   C29       1.0  0.43162  0.25921  0.09982  1.0000
  C   C30       1.0  0.41653  0.25413  0.10841  1.0000
  C   C31       1.0  0.40570  0.26498  0.11673  1.0000
  C   C32       1.0  0.41014  0.28073  0.11670  1.0000
  C   C33       1.0  0.42563  0.28544  0.10849  1.0000
  C   C34       1.0  0.43624  0.27478  0.09996  1.0000
  H   H22       1.0  0.41295  0.24206  0.10841  1.0000
  H   H23       1.0  0.39388  0.26112  0.12321  1.0000
  C   C35       1.0  0.47171  0.30850  0.15094  1.0000
  H   H24       1.0  0.44789  0.27877  0.09332  1.0000
  C   C36       1.0  0.41600  0.21167  0.14946  1.0000
  C   C37       1.0  0.37918  0.09907  0.99347  1.0000
  C   C38       1.0  0.40767  0.07917  0.99579  1.0000
  C   C39       1.0  0.43040  0.02413  0.03476  1.0000
  C   C40       1.0  0.42195  0.03458  0.02500  1.0000
  C   C41       1.0  0.41414  0.02680  0.01872  1.0000
  C   C42       1.0  0.41454  0.00860  0.02232  1.0000
  H   H25       1.0  0.43763  0.99778  0.04577  1.0000
  C   C43       1.0  0.43107  0.00590  0.03822  1.0000
  H   H26       1.0  0.42126  0.04866  0.02233  1.0000
  H   H27       1.0  0.40770  0.03492  0.01112  1.0000
  H   H28       1.0  0.31115  0.27652  0.13830  1.0000
  C   C44       1.0  0.31050  0.19310  0.20128  1.0000
  C   C45       1.0  0.42401  0.12719  0.06451  1.0000
  C   C46       1.0  0.43071  0.13884  0.05362  1.0000
  C   C47       1.0  0.43406  0.15469  0.05457  1.0000
  C   C48       1.0  0.43098  0.15895  0.06640  1.0000
  C   C49       1.0  0.42469  0.14711  0.07733  1.0000
  C   C50       1.0  0.42111  0.13135  0.07637  1.0000
  H   H29       1.0  0.43304  0.13579  0.04445  1.0000
  H   H30       1.0  0.43893  0.16379  0.04607  1.0000
  H   H31       1.0  0.42216  0.15029  0.08649  1.0000
  H   H32       1.0  0.41592  0.12241  0.08485  1.0000
  H   H33       1.0  0.42909  0.29760  0.10838  1.0000
  H   H34       1.0  0.46955  0.03817  0.02199  1.0000
  C   C51       1.0  0.39404  0.09352  0.99909  1.0000
  N   N2        1.0  0.34928  0.28953  0.12100  1.0000
  H   H35       1.0  0.25357  0.28356  0.21030  1.0000
  S   S23       1.0  0.28946  0.23990  0.20761  1.0000
  C   C52       1.0  0.34909  0.30230  0.12700  1.0000
  H   H36       1.0  0.38518  0.21518  0.16492  1.0000
  H   H37       1.0  0.48948  0.21281  0.12720  1.0000
  H   H38       1.0  0.37496  0.29214  0.10896  1.0000
  C   C53       1.0  0.47438  0.08630  0.06081  1.0000
  H   H39       1.0  0.41099  0.19962  0.15356  1.0000
  H   H40       1.0  0.46066  0.12396  0.07218  1.0000
  H   H41       1.0  0.46120  0.11968  0.02959  1.0000
  C   C54       1.0  0.46588  0.01084  0.01225  1.0000
  C   C55       1.0  0.48648  0.24228  0.09808  1.0000
  H   H42       1.0  0.46719  0.31691  0.16835  1.0000
  C   C56       1.0  0.29456  0.32073  0.17833  1.0000
  C   C57       1.0  0.36922  0.06935  0.02383  1.0000
  S   S24       1.0  0.42860  0.29323  0.17259  1.0000
  H   H43       1.0  0.31057  0.29963  0.14931  1.0000
  H   H44       1.0  0.35841  0.29067  0.10129  1.0000
  S   S25       1.0  0.43468  0.30575  0.13612  1.0000
  N   N3        1.0  0.48888  0.09036  0.05162  1.0000
  H   H45       1.0  0.27553  0.20766  0.20436  1.0000
  H   H46       1.0  0.49020  0.07909  0.03633  1.0000
  H   H47       1.0  0.47413  0.17170  0.05599  1.0000
  C   C58       1.0  0.43918  0.22619  0.13547  1.0000
  C   C59       1.0  0.48553  0.11637  0.01527  1.0000
  C   C60       1.0  0.36366  0.28576  0.11009  1.0000
  H   H48       1.0  0.25669  0.25495  0.22578  1.0000
  H   H49       1.0  0.32341  0.19093  0.20417  1.0000
  H   H50       1.0  0.30711  0.20739  0.19675  1.0000
  H   H51       1.0  0.38917  0.23308  0.16948  1.0000
  H   H52       1.0  0.33607  0.27006  0.12035  1.0000
  C   C61       1.0  0.36595  0.05869  0.01715  1.0000
  C   C62       1.0  0.47554  0.31683  0.15895  1.0000
  N   N4        1.0  0.37858  0.04357  0.03929  1.0000
  C   C63       1.0  0.37450  0.03310  0.03317  1.0000
  C   C64       1.0  0.37564  0.06152  0.03491  1.0000
  C   C65       1.0  0.36844  0.04045  0.02189  1.0000
  H   H53       1.0  0.47337  0.13354  0.99141  1.0000
  C   C66       1.0  0.44913  0.02945  0.99246  1.0000
  C   C67       1.0  0.48385  0.11823  0.05742  1.0000
  H   H54       1.0  0.37679  0.01884  0.03661  1.0000
  H   H55       1.0  0.47901  0.21971  0.08791  1.0000
  H   H56       1.0  0.36618  0.03193  0.01673  1.0000
  H   H57       1.0  0.40628  0.28300  0.16068  1.0000
  C   C68       1.0  0.24480  0.28240  0.21964  1.0000
  C   C69       1.0  0.32133  0.29697  0.14127  1.0000
  N   N5        1.0  0.29630  0.18839  0.21222  1.0000
  H   H58       1.0  0.36927  0.27128  0.11127  1.0000
  H   H59       1.0  0.44038  0.19814  0.13887  1.0000
  H   H60       1.0  0.40429  0.25534  0.14880  1.0000
  C   C70       1.0  0.43270  0.21076  0.14110  1.0000
  C   C71       1.0  0.26929  0.17921  0.23284  1.0000
  C   C72       1.0  0.26508  0.19255  0.22252  1.0000
  H   H61       1.0  0.46354  0.15444  0.07747  1.0000
  C   C73       1.0  0.45706  0.00227  0.00732  1.0000
  S   S26       1.0  0.39291  0.31753  0.15161  1.0000
  C   C74       1.0  0.41229  0.24272  0.14677  1.0000
  S   S27       1.0  0.48112  0.09903  0.01080  1.0000
  H   H62       1.0  0.39750  0.99527  0.99299  1.0000
  H   H63       1.0  0.47832  0.04973  0.00628  1.0000
  C   C75       1.0  0.30052  0.17508  0.22221  1.0000
  S   S28       1.0  0.39553  0.29470  0.12653  1.0000
  C   C76       1.0  0.49412  0.14221  0.02361  1.0000
  C   C77       1.0  0.32154  0.28414  0.13501  1.0000
  C   C78       1.0  0.28408  0.21920  0.23141  1.0000
  H   H64       1.0  0.42467  0.13893  0.99267  1.0000
  H   H65       1.0  0.34047  0.30324  0.18503  1.0000
  H   H66       1.0  0.31240  0.18507  0.19422  1.0000
  H   H67       1.0  0.35979  0.30950  0.12396  1.0000
  H   H68       1.0  0.26995  0.22481  0.23188  1.0000
  C   C79       1.0  0.49377  0.10602  0.04995  1.0000
  H   H69       1.0  0.37846  0.06992  0.03988  1.0000
  N   N6        1.0  0.46651  0.02823  0.00726  1.0000
  C   C80       1.0  0.33520  0.30610  0.13728  1.0000
  H   H70       1.0  0.49306  0.24446  0.10493  1.0000
  C   C81       1.0  0.46885  0.11436  0.06663  1.0000
  C   C82       1.0  0.47660  0.03655  0.01226  1.0000
  C   C83       1.0  0.23171  0.29694  0.22297  1.0000
  C   C84       1.0  0.36290  0.29378  0.19403  1.0000
  H   H71       1.0  0.36161  0.06457  0.00828  1.0000
  C   C85       1.0  0.44887  0.01159  0.99724  1.0000
  H   H72       1.0  0.39616  0.04239  0.05098  1.0000
  Fe  Fe14      1.0  0.40708  0.31342  0.13214  1.0000
  H   H73       1.0  0.26655  0.31070  0.20682  1.0000
  C   C86       1.0  0.48951  0.14748  0.08230  1.0000
  C   C87       1.0  0.46411  0.09825  0.06841  1.0000
  C   C88       1.0  0.47756  0.13742  0.02884  1.0000
  H   H74       1.0  0.39606  0.31573  0.18898  1.0000
  N   N7        1.0  0.35718  0.32196  0.17973  1.0000
  H   H75       1.0  0.44214  0.00506  0.99325  1.0000
  C   C89       1.0  0.28784  0.31099  0.19020  1.0000
  H   H76       1.0  0.38676  0.28783  0.20136  1.0000
  H   H77       1.0  0.35925  0.28120  0.19895  1.0000
  N   N8        1.0  0.45183  0.12470  0.98864  1.0000
  H   H78       1.0  0.37478  0.03670  0.05928  1.0000
  C   C90       1.0  0.37843  0.29743  0.19532  1.0000
  H   H79       1.0  0.47044  0.07392  0.06214  1.0000
  H   H80       1.0  0.47506  0.23605  0.10372  1.0000
  H   H81       1.0  0.25131  0.19971  0.22264  1.0000
  N   N9        1.0  0.49680  0.31661  0.13481  1.0000
  H   H82       1.0  0.48744  0.13089  0.05571  1.0000
  C   C91       1.0  0.48335  0.16545  0.06232  1.0000
  H   H83       1.0  0.48473  0.14009  0.09169  1.0000
  C   C92       1.0  0.38352  0.31321  0.18848  1.0000
  H   H84       1.0  0.47235  0.00346  0.02002  1.0000
  H   H85       1.0  0.45364  0.15041  0.98915  1.0000
  C   C93       1.0  0.35241  0.30624  0.18610  1.0000
  H   H86       1.0  0.38501  0.02737  0.98563  1.0000
  H   H87       1.0  0.33448  0.19709  0.22935  1.0000
  C   C94       1.0  0.48250  0.30858  0.13881  1.0000
  H   H88       1.0  0.23015  0.30954  0.21621  1.0000
  C   C95       1.0  0.43393  0.12808  0.98874  1.0000
  H   H89       1.0  0.46043  0.30204  0.15411  1.0000
  H   H90       1.0  0.45826  0.05151  0.99380  1.0000
  H   H91       1.0  0.45369  0.13426  0.00391  1.0000
  H   H92       1.0  0.36859  0.11012  0.99596  1.0000
  C   C96       1.0  0.27144  0.31809  0.19750  1.0000
  H   H93       1.0  0.49024  0.02809  0.01254  1.0000
  C   C97       1.0  0.40652  0.07075  0.98664  1.0000
  C   C98       1.0  0.45846  0.13631  0.99349  1.0000
  C   C99       1.0  0.49069  0.19362  0.11664  1.0000
  S   S29       1.0  0.49225  0.17073  0.10193  1.0000
  H   H94       1.0  0.48100  0.25518  0.09224  1.0000
  N   N10       1.0  0.49918  0.23092  0.08988  1.0000
  C   C100      1.0  0.49792  0.20473  0.12062  1.0000
  C   C101      1.0  0.37776  0.09033  0.98471  1.0000
  H   H95       1.0  0.49944  0.32270  0.11493  1.0000
  H   H96       1.0  0.50017  0.20000  0.07435  1.0000
  C   C102      1.0  0.50118  0.16714  0.05847  1.0000
  Fe  Fe15      1.0  0.39386  0.08067  0.45821  1.0000
  S   S30       1.0  0.41217  0.05422  0.46220  1.0000
  S   S31       1.0  0.38555  0.09530  0.47403  1.0000
  Fe  Fe16      1.0  0.39324  0.07698  0.43206  1.0000
  S   S32       1.0  0.41221  0.05044  0.43412  1.0000
  S   S33       1.0  0.38506  0.08724  0.41308  1.0000
  Fe  Fe17      1.0  0.39525  0.04486  0.45357  1.0000
  S   S34       1.0  0.38830  0.01813  0.46174  1.0000
  Fe  Fe18      1.0  0.42730  0.06255  0.44249  1.0000
  S   S35       1.0  0.45729  0.05559  0.43995  1.0000
  S   S36       1.0  0.37520  0.07072  0.45123  1.0000
  S   S37       1.0  0.41001  0.08975  0.43884  1.0000
  H   H97       1.0  0.18653  0.17919  0.30331  1.0000
  S   S38       1.0  0.31413  0.17882  0.25208  1.0000
  H   H98       1.0  0.38012  0.04256  0.41298  1.0000
  H   H99       1.0  0.23983  0.01694  0.33667  1.0000
  Fe  Fe19      1.0  0.31040  0.07851  0.38348  1.0000
  S   S39       1.0  0.33179  0.07532  0.36609  1.0000
  S   S40       1.0  0.31563  0.07374  0.40307  1.0000
  Fe  Fe20      1.0  0.28031  0.08814  0.36886  1.0000
  S   S41       1.0  0.29933  0.08601  0.35025  1.0000
  S   S42       1.0  0.25048  0.09630  0.37059  1.0000
  Fe  Fe21      1.0  0.31391  0.06149  0.36162  1.0000
  S   S43       1.0  0.04642  0.22097  0.32533  1.0000
  Fe  Fe22      1.0  0.31501  0.10009  0.35660  1.0000
  S   S44       1.0  0.32721  0.12321  0.34534  1.0000
  S   S45       1.0  0.29375  0.06264  0.37985  1.0000
  S   S46       1.0  0.29473  0.10431  0.37435  1.0000
  H   H100      1.0  0.18124  0.21071  0.29235  1.0000
  H   H101      1.0  0.12798  0.20953  0.29215  1.0000
  N   N11       1.0  0.22241  0.27929  0.24358  1.0000
  Fe  Fe23      1.0  0.26743  0.15262  0.28774  1.0000
  S   S47       1.0  0.25016  0.17464  0.29707  1.0000
  S   S48       1.0  0.26272  0.12521  0.29593  1.0000
  S   S49       1.0  0.27664  0.19975  0.27712  1.0000
  Fe  Fe24      1.0  0.27643  0.18089  0.29596  1.0000
  S   S50       1.0  0.28229  0.18720  0.31244  1.0000
  Fe  Fe25      1.0  0.25205  0.19105  0.27730  1.0000
  N   N12       1.0  0.40440  0.02351  0.41403  1.0000
  S   S51       1.0  0.29373  0.15789  0.28778  1.0000
  C   C103      1.0  0.29079  0.03451  0.33565  1.0000
  Fe  Fe26      1.0  0.07265  0.20190  0.32661  1.0000
  S   S52       1.0  0.06921  0.19946  0.34744  1.0000
  S   S53       1.0  0.09895  0.20744  0.31445  1.0000
  Fe  Fe27      1.0  0.05645  0.17693  0.34921  1.0000
  S   S54       1.0  0.05975  0.15171  0.36400  1.0000
  Fe  Fe28      1.0  0.04201  0.21671  0.34630  1.0000
  S   S55       1.0  0.17216  0.25715  0.30337  1.0000
  S   S56       1.0  0.06192  0.17795  0.32842  1.0000
  Fe  Fe29      1.0  0.17397  0.10037  0.32352  1.0000
  S   S57       1.0  0.17496  0.09521  0.34393  1.0000
  S   S58       1.0  0.17985  0.12598  0.31084  1.0000
  Fe  Fe30      1.0  0.16525  0.06458  0.32622  1.0000
  S   S59       1.0  0.16602  0.05642  0.34672  1.0000
  S   S60       1.0  0.16220  0.04653  0.31510  1.0000
  Fe  Fe31      1.0  0.15046  0.08430  0.34736  1.0000
  S   S61       1.0  0.12671  0.08724  0.36354  1.0000
  Fe  Fe32      1.0  0.19038  0.06813  0.34121  1.0000
  S   S62       1.0  0.21681  0.05403  0.34673  1.0000
  S   S63       1.0  0.14803  0.09174  0.32712  1.0000
  S   S64       1.0  0.19094  0.07400  0.32052  1.0000
  C   C104      1.0  0.20609  0.01767  0.32326  1.0000
  H   H102      1.0  0.32285  0.18171  0.30775  1.0000
  C   C105      1.0  0.34101  0.03511  0.38946  1.0000
  Fe  Fe33      1.0  0.15550  0.28088  0.29277  1.0000
  C   C106      1.0  0.33819  0.17034  0.27481  1.0000
  Fe  Fe34      1.0  0.11952  0.29585  0.28583  1.0000
  S   S65       1.0  0.09309  0.28859  0.28892  1.0000
  S   S66       1.0  0.16569  0.30541  0.28255  1.0000
  S   S67       1.0  0.12945  0.29551  0.30273  1.0000
  C   C107      1.0  0.09727  0.22992  0.30718  1.0000
  C   C108      1.0  0.11099  0.23820  0.30652  1.0000
  C   C109      1.0  0.10980  0.25619  0.30082  1.0000
  C   C110      1.0  0.09488  0.26597  0.29576  1.0000
  C   C111      1.0  0.08121  0.25766  0.29634  1.0000
  C   C112      1.0  0.08240  0.23965  0.30205  1.0000
  H   H103      1.0  0.12240  0.23078  0.31063  1.0000
  H   H104      1.0  0.12033  0.26254  0.30051  1.0000
  H   H105      1.0  0.06973  0.26516  0.29234  1.0000
  H   H106      1.0  0.07196  0.23323  0.30228  1.0000
  C   C113      1.0  0.07981  0.13539  0.36366  1.0000
  C   C114      1.0  0.08035  0.12094  0.37392  1.0000
  C   C115      1.0  0.09510  0.10665  0.37379  1.0000
  C   C116      1.0  0.10952  0.10653  0.36338  1.0000
  C   C117      1.0  0.10934  0.12113  0.35312  1.0000
  C   C118      1.0  0.09447  0.13567  0.35329  1.0000
  H   H107      1.0  0.06913  0.12066  0.38196  1.0000
  H   H108      1.0  0.09517  0.09548  0.38175  1.0000
  H   H109      1.0  0.12048  0.12113  0.34504  1.0000
  H   H110      1.0  0.09413  0.14682  0.34533  1.0000
  C   C119      1.0  0.21473  0.22346  0.27807  1.0000
  C   C120      1.0  0.21502  0.22055  0.29085  1.0000
  C   C121      1.0  0.20196  0.23102  0.29861  1.0000
  C   C122      1.0  0.20161  0.23697  0.27302  1.0000
  H   H111      1.0  0.22519  0.21019  0.29479  1.0000
  H   H112      1.0  0.20204  0.22863  0.30854  1.0000
  C   C123      1.0  0.23982  0.12520  0.29934  1.0000
  C   C124      1.0  0.22746  0.14035  0.29509  1.0000
  C   C125      1.0  0.20907  0.14037  0.29839  1.0000
  C   C126      1.0  0.20299  0.12538  0.30611  1.0000
  C   C127      1.0  0.21541  0.11025  0.31030  1.0000
  C   C128      1.0  0.23381  0.11006  0.30677  1.0000
  H   H113      1.0  0.23207  0.15198  0.28916  1.0000
  H   H114      1.0  0.19958  0.15197  0.29491  1.0000
  H   H115      1.0  0.21089  0.09881  0.31652  1.0000
  H   H116      1.0  0.24334  0.09835  0.31009  1.0000
  H   H117      1.0  0.45119  0.02771  0.46319  1.0000
  S   S68       1.0  0.02858  0.19407  0.35017  1.0000
  H   H118      1.0  0.26241  0.04605  0.38513  1.0000
  S   S69       1.0  0.32432  0.03446  0.35720  1.0000
  C   C129      1.0  0.14702  0.99998  0.32240  1.0000
  C   C130      1.0  0.04204  0.25337  0.35618  1.0000
  C   C131      1.0  0.03559  0.27157  0.35544  1.0000
  C   C132      1.0  0.04518  0.28151  0.35851  1.0000
  C   C133      1.0  0.36029  0.99600  0.44755  1.0000
  C   C134      1.0  0.32827  0.00952  0.39988  1.0000
  C   C135      1.0  0.31228  0.14041  0.33763  1.0000
  C   C136      1.0  0.31110  0.15781  0.33831  1.0000
  C   C137      1.0  0.30091  0.17198  0.33111  1.0000
  C   C138      1.0  0.29239  0.16892  0.32279  1.0000
  C   C139      1.0  0.29329  0.15149  0.32221  1.0000
  C   C140      1.0  0.30301  0.13720  0.32980  1.0000
  H   H119      1.0  0.31827  0.16036  0.34432  1.0000
  H   H120      1.0  0.30020  0.18542  0.33161  1.0000
  H   H121      1.0  0.28678  0.14903  0.31579  1.0000
  H   H122      1.0  0.30412  0.12376  0.32911  1.0000
  C   C141      1.0  0.24156  0.08559  0.36289  1.0000
  C   C142      1.0  0.22299  0.08957  0.36378  1.0000
  C   C143      1.0  0.21537  0.08031  0.35846  1.0000
  C   C144      1.0  0.22630  0.06704  0.35222  1.0000
  C   C145      1.0  0.24492  0.06332  0.35109  1.0000
  C   C146      1.0  0.25257  0.07261  0.35639  1.0000
  H   H123      1.0  0.21443  0.09958  0.36885  1.0000
  H   H124      1.0  0.20097  0.08299  0.35964  1.0000
  H   H125      1.0  0.25342  0.05295  0.34638  1.0000
  H   H126      1.0  0.26690  0.06938  0.35573  1.0000
  H   H127      1.0  0.14245  0.03592  0.34087  1.0000
  C   C147      1.0  0.46738  0.07224  0.44054  1.0000
  H   H128      1.0  0.31303  0.20357  0.28953  1.0000
  C   C148      1.0  0.32732  0.17839  0.29853  1.0000
  C   C149      1.0  0.20897  0.03146  0.31283  1.0000
  C   C150      1.0  0.47272  0.10211  0.43315  1.0000
  C   C151      1.0  0.46324  0.08949  0.43344  1.0000
  H   H129      1.0  0.19502  0.01131  0.32472  1.0000
  C   C152      1.0  0.28950  0.20571  0.24137  1.0000
  H   H130      1.0  0.46980  0.11530  0.42740  1.0000
  H   H131      1.0  0.45321  0.09290  0.42781  1.0000
  C   C153      1.0  0.37351  0.01540  0.45372  1.0000
  C   C154      1.0  0.36576  0.02975  0.44521  1.0000
  H   H132      1.0  0.44792  0.00676  0.42686  1.0000
  H   H133      1.0  0.36819  0.04273  0.44397  1.0000
  Fe  Fe35      1.0  0.15306  0.30518  0.26709  1.0000
  C   C155      1.0  0.36692  0.08102  0.41045  1.0000
  C   C156      1.0  0.36536  0.08291  0.39799  1.0000
  C   C157      1.0  0.35001  0.08004  0.39555  1.0000
  C   C158      1.0  0.33613  0.07523  0.40560  1.0000
  C   C159      1.0  0.33806  0.07262  0.41805  1.0000
  C   C160      1.0  0.35339  0.07549  0.42048  1.0000
  H   H134      1.0  0.37582  0.08715  0.39018  1.0000
  H   H135      1.0  0.34867  0.08214  0.38592  1.0000
  H   H136      1.0  0.32742  0.06877  0.42587  1.0000
  H   H137      1.0  0.35446  0.07395  0.43012  1.0000
  Fe  Fe36      1.0  0.03503  0.19691  0.32922  1.0000
  H   H138      1.0  0.01072  0.16999  0.34061  1.0000
  C   C161      1.0  0.42395  0.12582  0.45994  1.0000
  H   H139      1.0  0.42406  0.08260  0.46688  1.0000
  Fe  Fe37      1.0  0.05832  0.31348  0.36798  1.0000
  C   C162      1.0  0.27035  0.02682  0.37352  1.0000
  H   H140      1.0  0.00457  0.30068  0.34144  1.0000
  H   H141      1.0  0.15228  0.23874  0.29168  1.0000
  H   H142      1.0  0.23249  0.06458  0.38824  1.0000
  S   S70       1.0  0.23037  0.21029  0.26821  1.0000
  S   S71       1.0  0.02824  0.24107  0.35416  1.0000
  H   H143      1.0  0.44858  0.07986  0.47739  1.0000
  S   S72       1.0  0.01375  0.19935  0.31865  1.0000
  C   C163      1.0  0.18891  0.24466  0.29352  1.0000
  C   C164      1.0  0.15992  0.17653  0.30404  1.0000
  C   C165      1.0  0.13607  0.01113  0.34163  1.0000
  C   C166      1.0  0.14341  0.18519  0.30089  1.0000
  H   H144      1.0  0.19796  0.27370  0.25539  1.0000
  N   N13       1.0  0.24658  0.12481  0.33043  1.0000
  C   C167      1.0  0.23318  0.11560  0.33428  1.0000
  C   C168      1.0  0.24268  0.14285  0.32666  1.0000
  C   C169      1.0  0.21532  0.12445  0.33441  1.0000
  C   C170      1.0  0.22498  0.15212  0.32649  1.0000
  C   C171      1.0  0.21125  0.14280  0.33035  1.0000
  C   C172      1.0  0.26524  0.11548  0.33046  1.0000
  H   H145      1.0  0.23627  0.10130  0.33698  1.0000
  H   H146      1.0  0.25331  0.15014  0.32363  1.0000
  H   H147      1.0  0.20480  0.11704  0.33726  1.0000
  H   H148      1.0  0.22201  0.16640  0.32328  1.0000
  H   H149      1.0  0.19750  0.14971  0.33007  1.0000
  H   H150      1.0  0.27387  0.11914  0.32096  1.0000
  H   H151      1.0  0.27003  0.11900  0.33767  1.0000
  H   H152      1.0  0.26678  0.10087  0.33269  1.0000
  C   C173      1.0  0.43667  0.99325  0.46050  1.0000
  H   H153      1.0  0.25882  0.17598  0.24104  1.0000
  H   H154      1.0  0.11638  0.27397  0.33060  1.0000
  C   C174      1.0  0.35299  0.01033  0.43879  1.0000
  C   C175      1.0  0.30475  0.00404  0.34333  1.0000
  H   H155      1.0  0.35095  0.14492  0.28426  1.0000
  C   C176      1.0  0.43567  0.01155  0.42332  1.0000
  H   H156      1.0  0.05238  0.29278  0.31743  1.0000
  C   C177      1.0  0.30763  0.19745  0.24053  1.0000
  H   H157      1.0  0.21537  0.00148  0.33993  1.0000
  C   C178      1.0  0.41754  0.13407  0.48003  1.0000
  H   H158      1.0  0.03023  0.28321  0.39026  1.0000
  C   C179      1.0  0.33684  0.00205  0.38932  1.0000
  H   H159      1.0  0.10313  0.29610  0.32927  1.0000
  N   N14       1.0  0.08922  0.27626  0.33009  1.0000
  N   N15       1.0  0.32572  0.11905  0.40204  1.0000
  C   C180      1.0  0.31848  0.12006  0.39207  1.0000
  C   C181      1.0  0.34242  0.12240  0.39998  1.0000
  C   C182      1.0  0.32817  0.12415  0.37963  1.0000
  C   C183      1.0  0.35253  0.12640  0.38766  1.0000
  C   C184      1.0  0.34533  0.12723  0.37744  1.0000
  C   C185      1.0  0.31519  0.11499  0.41497  1.0000
  H   H160      1.0  0.30527  0.11734  0.39372  1.0000
  H   H161      1.0  0.34831  0.12135  0.40787  1.0000
  H   H162      1.0  0.32251  0.12477  0.37173  1.0000
  H   H163      1.0  0.36599  0.12845  0.38611  1.0000
  H   H164      1.0  0.35304  0.13009  0.36782  1.0000
  H   H165      1.0  0.30582  0.12720  0.41747  1.0000
  H   H166      1.0  0.30735  0.10497  0.41589  1.0000
  H   H167      1.0  0.32401  0.10920  0.42191  1.0000
  H   H168      1.0  0.34234  0.16699  0.26558  1.0000
  N   N16       1.0  0.09846  0.08669  0.34047  1.0000
  C   C186      1.0  0.08560  0.08871  0.35122  1.0000
  C   C187      1.0  0.09909  0.10029  0.33004  1.0000
  C   C188      1.0  0.07256  0.10444  0.35157  1.0000
  C   C189      1.0  0.08637  0.11629  0.33012  1.0000
  C   C190      1.0  0.07298  0.11830  0.34095  1.0000
  C   C191      1.0  0.11187  0.06999  0.34040  1.0000
  H   H169      1.0  0.08565  0.07829  0.35969  1.0000
  H   H170      1.0  0.10955  0.09891  0.32162  1.0000
  H   H171      1.0  0.06263  0.10621  0.36019  1.0000
  H   H172      1.0  0.29063  0.16032  0.24081  1.0000
  C   C192      1.0  0.48056  0.06788  0.44766  1.0000
  H   H173      1.0  0.10526  0.05853  0.34403  1.0000
  H   H174      1.0  0.11995  0.06901  0.33074  1.0000
  H   H175      1.0  0.39287  0.00641  0.43045  1.0000
  C   C193      1.0  0.07609  0.28848  0.32474  1.0000
  C   C194      1.0  0.08937  0.25859  0.33264  1.0000
  C   C195      1.0  0.06258  0.28310  0.32188  1.0000
  C   C196      1.0  0.07605  0.25276  0.32993  1.0000
  C   C197      1.0  0.06250  0.26512  0.32462  1.0000
  H   H176      1.0  0.09975  0.24888  0.33688  1.0000
  H   H177      1.0  0.22474  0.05098  0.30328  1.0000
  C   C198      1.0  0.42030  0.00520  0.43001  1.0000
  C   C199      1.0  0.01547  0.25205  0.38368  1.0000
  N   N17       1.0  0.23342  0.03507  0.31996  1.0000
  H   H178      1.0  0.21657  0.26756  0.26331  1.0000
  C   C200      1.0  0.22284  0.04002  0.31127  1.0000
  C   C201      1.0  0.43480  0.08417  0.48208  1.0000
  H   H179      1.0  0.34276  0.04800  0.38948  1.0000
  H   H180      1.0  0.38957  0.02926  0.48455  1.0000
  H   H181      1.0  0.06333  0.13081  0.34131  1.0000
  H   H182      1.0  0.27952  0.20118  0.24942  1.0000
  H   H183      1.0  0.45168  0.11550  0.45261  1.0000
  H   H184      1.0  0.32357  0.00009  0.35499  1.0000
  S   S73       1.0  0.28052  0.00935  0.32860  1.0000
  C   C202      1.0  0.41156  0.13232  0.46995  1.0000
  C   C203      1.0  0.32187  0.19095  0.28819  1.0000
  H   H185      1.0  0.27402  0.00816  0.36197  1.0000
  C   C204      1.0  0.40305  0.09197  0.48183  1.0000
  C   C205      1.0  0.34939  0.02727  0.37907  1.0000
  H   H186      1.0  0.37459  0.05032  0.48059  1.0000
  Fe  Fe38      1.0  0.29134  0.17600  0.26896  1.0000
  C   C206      1.0  0.34268  0.14870  0.30804  1.0000
  H   H187      1.0  0.48454  0.02215  0.43906  1.0000
  S   S74       1.0  0.14486  0.27934  0.27670  1.0000
  C   C207      1.0  0.23504  0.26487  0.24034  1.0000
  H   H188      1.0  0.39040  0.03351  0.39896  1.0000
  H   H189      1.0  0.06346  0.23104  0.36039  1.0000
  H   H190      1.0  0.00702  0.24364  0.31948  1.0000
  H   H191      1.0  0.08055  0.24862  0.36583  1.0000
  S   S75       1.0  0.26681  0.16824  0.26801  1.0000
  H   H192      1.0  0.32394  0.03211  0.40808  1.0000
  H   H193      1.0  0.35717  0.14234  0.30595  1.0000
  H   H194      1.0  0.13248  0.17831  0.30349  1.0000
  H   H195      1.0  0.08706  0.12718  0.32194  1.0000
  C   C208      1.0  0.43522  0.02405  0.41198  1.0000
  C   C209      1.0  0.25775  0.03860  0.38042  1.0000
  C   C210      1.0  0.42087  0.08564  0.47613  1.0000
  C   C211      1.0  0.18895  0.24777  0.28068  1.0000
  H   H196      1.0  0.07622  0.23873  0.33193  1.0000
  N   N18       1.0  0.33773  0.16212  0.29706  1.0000
  H   H197      1.0  0.24143  0.01282  0.36302  1.0000
  C   C212      1.0  0.37045  0.99856  0.45510  1.0000
  H   H198      1.0  0.05272  0.25595  0.38990  1.0000
  H   H199      1.0  0.20021  0.03582  0.30614  1.0000
  H   H200      1.0  0.41941  0.12396  0.45222  1.0000
  H   H201      1.0  0.34976  0.03825  0.43108  1.0000
  H   H202      1.0  0.29838  0.05417  0.34170  1.0000
  H   H203      1.0  0.17910  0.25834  0.27665  1.0000
  H   H204      1.0  0.20131  0.23916  0.26316  1.0000
  H   H205      1.0  0.44706  0.02916  0.40675  1.0000
  H   H206      1.0  0.21971  0.03384  0.37527  1.0000
  H   H207      1.0  0.02283  0.27785  0.35288  1.0000
  H   H208      1.0  0.05213  0.26072  0.32246  1.0000
  S   S76       1.0  0.49748  0.11362  0.44015  1.0000
  H   H209      1.0  0.32318  0.19646  0.26815  1.0000
  C   C213      1.0  0.15288  0.02791  0.32304  1.0000
  H   H210      1.0  0.33467  0.13838  0.31059  1.0000
  C   C214      1.0  0.15441  0.01494  0.31641  1.0000
  C   C215      1.0  0.35530  0.02725  0.43790  1.0000
  C   C216      1.0  0.10279  0.28200  0.33369  1.0000
  C   C217      1.0  0.32745  0.18691  0.27625  1.0000
  C   C218      1.0  0.14378  0.02593  0.33571  1.0000
  C   C219      1.0  0.26444  0.01734  0.36735  1.0000
  C   C220      1.0  0.17364  0.18576  0.30091  1.0000
  H   H211      1.0  0.16204  0.16272  0.30893  1.0000
  H   H212      1.0  0.25984  0.03898  0.31173  1.0000
  C   C221      1.0  0.15152  0.23071  0.28528  1.0000
  C   C222      1.0  0.31440  0.00975  0.34964  1.0000
  C   C223      1.0  0.17058  0.20358  0.29467  1.0000
  C   C224      1.0  0.31209  0.02782  0.34911  1.0000
  N   N19       1.0  0.15437  0.21193  0.29157  1.0000
  C   C225      1.0  0.06809  0.25509  0.36278  1.0000
  N   N20       1.0  0.23981  0.04105  0.38099  1.0000
  C   C226      1.0  0.30014  0.04020  0.34221  1.0000
  S   S77       1.0  0.07220  0.28497  0.36790  1.0000
  C   C227      1.0  0.05847  0.24514  0.35968  1.0000
  C   C228      1.0  0.06126  0.27323  0.36243  1.0000
  H   H213      1.0  0.39731  0.13542  0.47009  1.0000
  C   C229      1.0  0.23390  0.03171  0.37502  1.0000
  C   C230      1.0  0.24612  0.01982  0.36804  1.0000
  C   C231      1.0  0.40472  0.01138  0.42520  1.0000
  H   H214      1.0  0.21030  0.30640  0.23757  1.0000
  C   C232      1.0  0.13785  0.99799  0.33503  1.0000
  C   C233      1.0  0.43628  0.00864  0.46409  1.0000
  C   C234      1.0  0.14090  0.20296  0.29453  1.0000
  C   C235      1.0  0.22682  0.05325  0.38845  1.0000
  H   H215      1.0  0.22305  0.04616  0.39840  1.0000
  C   C236      1.0  0.21008  0.27757  0.25598  1.0000
  C   C237      1.0  0.44218  0.12089  0.46026  1.0000
  C   C238      1.0  0.21738  0.01226  0.33182  1.0000
  H   H216      1.0  0.13817  0.23573  0.28270  1.0000
  H   H217      1.0  0.48233  0.02484  0.45475  1.0000
  H   H218      1.0  0.16192  0.23281  0.27646  1.0000
  H   H219      1.0  0.07604  0.30249  0.32258  1.0000
  H   H220      1.0  0.21453  0.05904  0.38452  1.0000
  H   H221      1.0  0.03975  0.29543  0.35828  1.0000
  C   C239      1.0  0.46704  0.11633  0.47053  1.0000
  C   C240      1.0  0.46747  0.99260  0.44950  1.0000
  H   H222      1.0  0.36996  0.99418  0.37025  1.0000
  H   H223      1.0  0.09976  0.28049  0.34413  1.0000
  C   C241      1.0  0.04195  0.24842  0.39219  1.0000
  H   H224      1.0  0.41894  0.03998  0.39880  1.0000
  H   H225      1.0  0.34014  0.15449  0.31644  1.0000
  C   C242      1.0  0.48592  0.09767  0.44029  1.0000
  N   N21       1.0  0.46709  0.00754  0.45325  1.0000
  H   H226      1.0  0.20555  0.29030  0.25919  1.0000
  C   C243      1.0  0.24759  0.04450  0.31827  1.0000
  C   C244      1.0  0.41931  0.03004  0.40750  1.0000
  N   N22       1.0  0.44790  0.12220  0.47031  1.0000
  C   C245      1.0  0.35688  0.00254  0.36840  1.0000
  H   H227      1.0  0.35752  0.03435  0.37093  1.0000
  C   C246      1.0  0.33033  0.02620  0.39990  1.0000
  H   H228      1.0  0.47463  0.12591  0.46361  1.0000
  C   C247      1.0  0.48311  0.01512  0.44915  1.0000
  H   H229      1.0  0.24308  0.05891  0.31456  1.0000
  H   H230      1.0  0.16123  0.01651  0.30656  1.0000
  H   H231      1.0  0.46948  0.11484  0.48007  1.0000
  H   H232      1.0  0.28462  0.02518  0.37284  1.0000
  H   H233      1.0  0.12873  0.00985  0.35134  1.0000
  H   H234      1.0  0.04775  0.23687  0.38761  1.0000
  H   H235      1.0  0.03835  0.24359  0.40258  1.0000
  H   H236      1.0  0.35924  0.01254  0.35945  1.0000
  H   H237      1.0  0.47244  0.10314  0.46801  1.0000
  C   C248      1.0  0.45169  0.01567  0.46037  1.0000
  C   C249      1.0  0.23117  0.02108  0.32995  1.0000
  N   N23       1.0  0.34716  0.01098  0.37907  1.0000
  H   H238      1.0  0.42412  0.01502  0.46979  1.0000
  S   S78       1.0  0.34339  0.00684  0.42762  1.0000
  H   H239      1.0  0.12119  0.06889  0.34651  1.0000
  H   H240      1.0  0.25115  0.04313  0.32743  1.0000
  H   H241      1.0  0.32042  0.00230  0.40814  1.0000
  H   H242      1.0  0.37899  0.02052  0.41280  1.0000
  C   C250      1.0  0.38766  0.03039  0.40946  1.0000
  C   C251      1.0  0.29301  0.01641  0.33626  1.0000
  H   H243      1.0  0.28182  0.04414  0.33014  1.0000
  S   S79       1.0  0.17111  0.30901  0.24766  1.0000
  C   C252      1.0  0.34304  0.15795  0.28541  1.0000
  H   H244      1.0  0.01439  0.32044  0.35054  1.0000
  N   N24       1.0  0.02607  0.25953  0.38752  1.0000
  H   H245      1.0  0.49541  0.00470  0.45025  1.0000
  Fe  Fe39      1.0  0.13846  0.32005  0.29085  1.0000
  H   H246      1.0  0.42040  0.99547  0.43883  1.0000
  S   S80       1.0  0.12645  0.32177  0.27456  1.0000
  C   C253      1.0  0.43589  0.12899  0.48003  1.0000
  H   H247      1.0  0.34897  0.99413  0.36689  1.0000
  H   H248      1.0  0.48389  0.05460  0.45316  1.0000
  H   H249      1.0  0.23627  0.25218  0.24702  1.0000
  C   C254      1.0  0.48955  0.08063  0.44770  1.0000
  H   H250      1.0  0.01915  0.23807  0.38350  1.0000
  S   S81       1.0  0.03436  0.32108  0.38307  1.0000
  H   H251      1.0  0.49937  0.07719  0.45343  1.0000
  C   C255      1.0  0.00657  0.28811  0.38294  1.0000
  C   C256      1.0  0.02168  0.27728  0.38736  1.0000
  C   C257      1.0  0.22054  0.29511  0.23504  1.0000
  H   H252      1.0  0.00344  0.30229  0.38239  1.0000
  Fe  Fe40      1.0  0.46548  0.06756  0.54171  1.0000
  S   S82       1.0  0.45374  0.09553  0.53300  1.0000
  H   H253      1.0  0.24073  0.03001  0.61719  1.0000
  Fe  Fe41      1.0  0.43139  0.05517  0.54362  1.0000
  S   S83       1.0  0.41719  0.08200  0.53511  1.0000
  S   S84       1.0  0.41710  0.03309  0.54776  1.0000
  Fe  Fe42      1.0  0.44336  0.08353  0.52137  1.0000
  H   H254      1.0  0.40798  0.13867  0.48802  1.0000
  Fe  Fe43      1.0  0.42869  0.09106  0.54779  1.0000
  S   S85       1.0  0.41001  0.11179  0.55809  1.0000
  S   S86       1.0  0.45679  0.05595  0.52904  1.0000
  S   S87       1.0  0.44126  0.06376  0.55737  1.0000
  H   H255      1.0  0.18414  0.02740  0.68638  1.0000
  H   H256      1.0  0.32314  0.13190  0.69358  1.0000
  C   C258      1.0  0.30119  0.01384  0.62900  1.0000
  H   H257      1.0  0.38543  0.10117  0.49813  1.0000
  Fe  Fe44      1.0  0.15234  0.29957  0.68351  1.0000
  S   S88       1.0  0.17453  0.27982  0.67447  1.0000
  C   C259      1.0  0.36726  0.03003  0.51084  1.0000
  H   H258      1.0  0.28523  0.07624  0.60604  1.0000
  Fe  Fe45      1.0  0.17249  0.11645  0.67065  1.0000
  S   S89       1.0  0.19312  0.09459  0.67910  1.0000
  S   S90       1.0  0.14409  0.12017  0.68169  1.0000
  Fe  Fe46      1.0  0.19879  0.12687  0.64662  1.0000
  S   S91       1.0  0.22157  0.10581  0.65293  1.0000
  S   S92       1.0  0.20233  0.14700  0.62840  1.0000
  Fe  Fe47      1.0  0.20175  0.08821  0.65986  1.0000
  S   S93       1.0  0.21108  0.05965  0.65813  1.0000
  Fe  Fe48      1.0  0.21088  0.11418  0.67147  1.0000
  S   S94       1.0  0.23172  0.11598  0.68097  1.0000
  S   S95       1.0  0.17972  0.10862  0.65193  1.0000
  S   S96       1.0  0.18945  0.13671  0.66468  1.0000
  Fe  Fe49      1.0  0.07777  0.23476  0.63410  1.0000
  S   S97       1.0  0.06018  0.24803  0.64966  1.0000
  S   S98       1.0  0.08707  0.24973  0.61453  1.0000
  Fe  Fe50      1.0  0.07791  0.19794  0.65025  1.0000
  S   S99       1.0  0.06017  0.20787  0.66723  1.0000
  S   S100      1.0  0.08748  0.16909  0.65000  1.0000
  Fe  Fe51      1.0  0.04436  0.22696  0.65334  1.0000
  Fe  Fe52      1.0  0.07766  0.22778  0.66192  1.0000
  S   S101      1.0  0.09310  0.23068  0.67515  1.0000
  S   S102      1.0  0.06085  0.21538  0.63679  1.0000
  S   S103      1.0  0.09653  0.21617  0.64587  1.0000
  C   C260      1.0  0.01432  0.20369  0.64828  1.0000
  Fe  Fe53      1.0  0.27779  0.19474  0.69016  1.0000
  S   S104      1.0  0.29766  0.18809  0.67260  1.0000
  S   S105      1.0  0.24978  0.20925  0.68858  1.0000
  S   S106      1.0  0.28126  0.21312  0.70081  1.0000
  H   H259      1.0  0.22794  0.07727  0.63162  1.0000
  C   C261      1.0  0.23838  0.15235  0.69708  1.0000
  S   S107      1.0  0.14322  0.31426  0.72513  1.0000
  H   H260      1.0  0.38715  0.06721  0.51357  1.0000
  H   H261      1.0  0.27442  0.09504  0.67525  1.0000
  C   C262      1.0  0.24404  0.04210  0.61747  1.0000
  H   H262      1.0  0.49068  0.10152  0.52840  1.0000
  C   C263      1.0  0.22732  0.13414  0.68808  1.0000
  H   H263      1.0  0.09406  0.17070  0.68519  1.0000
  C   C264      1.0  0.31188  0.14199  0.71054  1.0000
  H   H264      1.0  0.12473  0.30334  0.64152  1.0000
  Fe  Fe54      1.0  0.31239  0.10746  0.64368  1.0000
  S   S108      1.0  0.32583  0.12233  0.62516  1.0000
  S   S109      1.0  0.30813  0.11143  0.66343  1.0000
  Fe  Fe55      1.0  0.30077  0.08446  0.63112  1.0000
  S   S110      1.0  0.31277  0.09748  0.61156  1.0000
  S   S111      1.0  0.28477  0.06410  0.63393  1.0000
  Fe  Fe56      1.0  0.33617  0.09566  0.61981  1.0000
  S   S112      1.0  0.36414  0.08186  0.61161  1.0000
  Fe  Fe57      1.0  0.30128  0.12264  0.61863  1.0000
  S   S113      1.0  0.28488  0.14719  0.60862  1.0000
  S   S114      1.0  0.32474  0.08075  0.63908  1.0000
  S   S115      1.0  0.28723  0.10970  0.63755  1.0000
  C   C265      1.0  0.31654  0.03936  0.63216  1.0000
  C   C266      1.0  0.29822  0.04322  0.63226  1.0000
  C   C267      1.0  0.29048  0.03030  0.63098  1.0000
  H   H265      1.0  0.32263  0.04921  0.63319  1.0000
  H   H266      1.0  0.27624  0.03305  0.63138  1.0000
  C   C268      1.0  0.26014  0.04656  0.61016  1.0000
  Fe  Fe58      1.0  0.13652  0.31634  0.70629  1.0000
  C   C269      1.0  0.05712  0.29976  0.63143  1.0000
  C   C270      1.0  0.00456  0.22026  0.65058  1.0000
  C   C271      1.0  0.02946  0.28885  0.64111  1.0000
  C   C272      1.0  0.19320  0.28101  0.69139  1.0000
  C   C273      1.0  0.43096  0.08871  0.49384  1.0000
  H   H267      1.0  0.20955  0.21865  0.70806  1.0000
  S   S116      1.0  0.13404  0.29133  0.70199  1.0000
  H   H268      1.0  0.05836  0.28251  0.61390  1.0000
  H   H269      1.0  0.25847  0.04467  0.65785  1.0000
  C   C274      1.0  0.49901  0.07396  0.55796  1.0000
  H   H270      1.0  0.21366  0.02307  0.65950  1.0000
  C   C275      1.0  0.01994  0.27046  0.63159  1.0000
  H   H271      1.0  0.19928  0.14224  0.68760  1.0000
  H   H272      1.0  0.13221  0.02781  0.67455  1.0000
  H   H273      1.0  0.13090  0.04840  0.66331  1.0000
  H   H274      1.0  0.29522  0.00406  0.62769  1.0000
  H   H275      1.0  0.20770  0.28073  0.70512  1.0000
  H   H276      1.0  0.29835  0.21545  0.71883  1.0000
  H   H277      1.0  0.31285  0.23653  0.72252  1.0000
  C   C276      1.0  0.40923  0.01221  0.52144  1.0000
  C   C277      1.0  0.29961  0.16712  0.66973  1.0000
  C   C278      1.0  0.31019  0.16280  0.65832  1.0000
  C   C279      1.0  0.31233  0.14592  0.65604  1.0000
  C   C280      1.0  0.30434  0.13318  0.66533  1.0000
  C   C281      1.0  0.29385  0.13750  0.67672  1.0000
  C   C282      1.0  0.29123  0.15451  0.67882  1.0000
  H   H278      1.0  0.31676  0.17249  0.65124  1.0000
  H   H279      1.0  0.32061  0.14258  0.64727  1.0000
  H   H280      1.0  0.28768  0.12766  0.68394  1.0000
  H   H281      1.0  0.28293  0.15768  0.68755  1.0000
  C   C283      1.0  0.19669  0.04888  0.65500  1.0000
  C   C284      1.0  0.20131  0.03041  0.65656  1.0000
  C   C285      1.0  0.17373  0.03056  0.65102  1.0000
  C   C286      1.0  0.16939  0.04912  0.64904  1.0000
  C   C287      1.0  0.18077  0.05826  0.65111  1.0000
  H   H282      1.0  0.15708  0.05644  0.64605  1.0000
  H   H283      1.0  0.17718  0.07252  0.64972  1.0000
  C   C288      1.0  0.24136  0.13777  0.69160  1.0000
  H   H284      1.0  0.24928  0.15498  0.69979  1.0000
  H   H285      1.0  0.25461  0.12932  0.69004  1.0000
  C   C289      1.0  0.26195  0.14679  0.61303  1.0000
  C   C290      1.0  0.24912  0.16272  0.61185  1.0000
  C   C291      1.0  0.23078  0.16268  0.61626  1.0000
  C   C292      1.0  0.22522  0.14674  0.62195  1.0000
  C   C293      1.0  0.23800  0.13076  0.62273  1.0000
  C   C294      1.0  0.25634  0.13078  0.61825  1.0000
  H   H286      1.0  0.25340  0.17511  0.60772  1.0000
  H   H287      1.0  0.22097  0.17506  0.61553  1.0000
  H   H288      1.0  0.23376  0.11835  0.62659  1.0000
  H   H289      1.0  0.26613  0.11839  0.61874  1.0000
  C   C295      1.0  0.12859  0.13433  0.67287  1.0000
  C   C296      1.0  0.13335  0.14836  0.66303  1.0000
  C   C297      1.0  0.12041  0.15990  0.65647  1.0000
  C   C298      1.0  0.10300  0.15689  0.65938  1.0000
  C   C299      1.0  0.09836  0.14288  0.66920  1.0000
  C   C300      1.0  0.11100  0.13189  0.67612  1.0000
  H   H290      1.0  0.14690  0.15042  0.66062  1.0000
  H   H291      1.0  0.12401  0.17081  0.64895  1.0000
  H   H292      1.0  0.08497  0.14044  0.67140  1.0000
  H   H293      1.0  0.10725  0.12115  0.68376  1.0000
  H   H294      1.0  0.34126  0.01957  0.63080  1.0000
  H   H295      1.0  0.45385  0.01744  0.53691  1.0000
  C   C301      1.0  0.41750  0.02199  0.51011  1.0000
  C   C302      1.0  0.15527  0.17082  0.68228  1.0000
  C   C303      1.0  0.10555  0.25375  0.68278  1.0000
  H   H296      1.0  0.11740  0.24327  0.68343  1.0000
  H   H297      1.0  0.11517  0.27122  0.68970  1.0000
  C   C304      1.0  0.19327  0.27383  0.68135  1.0000
  C   C305      1.0  0.10549  0.29782  0.61610  1.0000
  C   C306      1.0  0.09999  0.29746  0.60540  1.0000
  C   C307      1.0  0.09507  0.28232  0.60474  1.0000
  C   C308      1.0  0.09500  0.26779  0.61497  1.0000
  C   C309      1.0  0.10037  0.26818  0.62573  1.0000
  C   C310      1.0  0.10591  0.28309  0.62620  1.0000
  H   H298      1.0  0.09970  0.30882  0.59757  1.0000
  H   H299      1.0  0.09091  0.28205  0.59642  1.0000
  H   H300      1.0  0.10025  0.25701  0.63369  1.0000
  H   H301      1.0  0.11000  0.28337  0.63454  1.0000
  H   H302      1.0  0.02814  0.19922  0.64921  1.0000
  C   C311      1.0  0.28172  0.06575  0.60303  1.0000
  Fe  Fe59      1.0  0.11194  0.30851  0.69243  1.0000
  H   H303      1.0  0.31389  0.18219  0.71369  1.0000
  C   C312      1.0  0.29963  0.21464  0.72826  1.0000
  C   C313      1.0  0.38205  0.05386  0.50109  1.0000
  H   H304      1.0  0.48463  0.07590  0.56144  1.0000
  H   H305      1.0  0.06257  0.29082  0.68154  1.0000
  C   C314      1.0  0.38110  0.05701  0.51290  1.0000
  H   H306      1.0  0.36010  0.02424  0.53128  1.0000
  C   C315      1.0  0.18163  0.25027  0.72322  1.0000
  C   C316      1.0  0.30794  0.22657  0.73038  1.0000
  H   H307      1.0  0.02266  0.31151  0.60078  1.0000
  H   H308      1.0  0.38059  0.07180  0.57202  1.0000
  H   H309      1.0  0.41005  0.09819  0.50876  1.0000
  C   C317      1.0  0.39718  0.10364  0.57299  1.0000
  C   C318      1.0  0.38038  0.11374  0.57770  1.0000
  C   C319      1.0  0.36999  0.10728  0.58955  1.0000
  C   C320      1.0  0.37656  0.09082  0.59681  1.0000
  C   C321      1.0  0.39341  0.08083  0.59215  1.0000
  C   C322      1.0  0.40364  0.08718  0.58028  1.0000
  H   H310      1.0  0.37535  0.12654  0.57214  1.0000
  H   H311      1.0  0.35701  0.11507  0.59310  1.0000
  H   H312      1.0  0.39862  0.06817  0.59778  1.0000
  H   H313      1.0  0.41672  0.07951  0.57694  1.0000
  H   H314      1.0  0.35324  0.15467  0.67860  1.0000
  C   C323      1.0  0.42389  0.03644  0.51030  1.0000
  C   C324      1.0  0.42296  0.04040  0.52187  1.0000
  C   C325      1.0  0.41588  0.02980  0.53327  1.0000
  C   C326      1.0  0.40850  0.01601  0.53303  1.0000
  C   C327      1.0  0.03487  0.27169  0.62167  1.0000
  H   H315      1.0  0.42982  0.04441  0.50153  1.0000
  H   H316      1.0  0.42787  0.05162  0.52187  1.0000
  H   H317      1.0  0.40254  0.00805  0.54178  1.0000
  C   C328      1.0  0.09147  0.25134  0.67855  1.0000
  H   H318      1.0  0.02724  0.29552  0.64875  1.0000
  H   H319      1.0  0.15562  0.19637  0.66968  1.0000
  H   H320      1.0  0.30647  0.13043  0.71580  1.0000
  H   H321      1.0  0.34800  0.04034  0.60839  1.0000
  H   H322      1.0  0.30510  0.07585  0.67360  1.0000
  H   H323      1.0  0.29278  0.05385  0.60424  1.0000
  H   H324      1.0  0.31173  0.04793  0.66608  1.0000
  C   C329      1.0  0.22246  0.26216  0.69332  1.0000
  C   C330      1.0  0.25360  0.05712  0.66141  1.0000
  S   S117      1.0  0.26968  0.17446  0.70751  1.0000
  H   H325      1.0  0.24224  0.05542  0.66965  1.0000
  C   C331      1.0  0.10431  0.26957  0.68635  1.0000
  C   C332      1.0  0.39918  0.09621  0.49371  1.0000
  S   S118      1.0  0.31465  0.00066  0.59653  1.0000
  N   N25       1.0  0.32787  0.15761  0.69127  1.0000
  H   H326      1.0  0.15991  0.02000  0.68023  1.0000
  H   H327      1.0  0.18074  0.23628  0.68488  1.0000
  H   H328      1.0  0.33618  0.14834  0.67400  1.0000
  N   N26       1.0  0.11894  0.17853  0.68207  1.0000
  H   H329      1.0  0.20828  0.25563  0.66931  1.0000
  C   C333      1.0  0.41310  0.09439  0.49978  1.0000
  H   H330      1.0  0.15053  0.14614  0.69477  1.0000
  H   H331      1.0  0.16446  0.30046  0.65074  1.0000
  C   C334      1.0  0.31951  0.00995  0.62894  1.0000
  C   C335      1.0  0.07469  0.28059  0.68172  1.0000
  H   H332      1.0  0.20663  0.23224  0.72597  1.0000
  S   S119      1.0  0.24201  0.20725  0.71907  1.0000
  N   N27       1.0  0.26779  0.06199  0.66494  1.0000
  H   H333      1.0  0.26922  0.03773  0.60426  1.0000
  C   C336      1.0  0.13960  0.30099  0.63844  1.0000
  N   N28       1.0  0.26460  0.06159  0.61067  1.0000
  C   C337      1.0  0.29828  0.05615  0.66714  1.0000
  H   H334      1.0  0.40004  0.05378  0.57277  1.0000
  H   H335      1.0  0.38258  0.02799  0.56681  1.0000
  C   C338      1.0  0.36578  0.04918  0.59086  1.0000
  C   C339      1.0  0.20809  0.26108  0.67716  1.0000
  C   C340      1.0  0.35536  0.03759  0.59923  1.0000
  H   H336      1.0  0.36392  0.00729  0.58118  1.0000
  H   H337      1.0  0.25075  0.08593  0.66961  1.0000
  H   H338      1.0  0.40317  0.00185  0.52127  1.0000
  H   H339      1.0  0.36633  0.06082  0.59372  1.0000
  H   H340      1.0  0.49481  0.13192  0.55307  1.0000
  N   N29       1.0  0.25831  0.15572  0.65091  1.0000
  C   C341      1.0  0.25295  0.16510  0.66027  1.0000
  C   C342      1.0  0.27163  0.15973  0.64067  1.0000
  C   C343      1.0  0.26062  0.17926  0.65933  1.0000
  C   C344      1.0  0.27947  0.17392  0.63934  1.0000
  C   C345      1.0  0.27385  0.18378  0.64873  1.0000
  C   C346      1.0  0.25046  0.14064  0.65225  1.0000
  H   H341      1.0  0.24276  0.16160  0.66856  1.0000
  H   H342      1.0  0.27634  0.15191  0.63348  1.0000
  H   H343      1.0  0.25666  0.18642  0.66690  1.0000
  H   H344      1.0  0.29009  0.17695  0.63120  1.0000
  H   H345      1.0  0.28019  0.19448  0.64804  1.0000
  H   H346      1.0  0.23610  0.14305  0.65717  1.0000
  H   H347      1.0  0.25100  0.13821  0.64288  1.0000
  H   H348      1.0  0.25789  0.12857  0.65779  1.0000
  C   C347      1.0  0.32710  0.02260  0.63077  1.0000
  H   H349      1.0  0.16091  0.25309  0.69986  1.0000
  C   C348      1.0  0.23237  0.05320  0.62521  1.0000
  H   H350      1.0  0.18173  0.29069  0.69479  1.0000
  H   H351      1.0  0.28773  0.03928  0.66056  1.0000
  H   H352      1.0  0.33024  0.18337  0.69137  1.0000
  N   N30       1.0  0.37514  0.04586  0.57928  1.0000
  H   H353      1.0  0.48856  0.03342  0.49473  1.0000
  C   C349      1.0  0.30941  0.15609  0.71627  1.0000
  C   C350      1.0  0.46468  0.00637  0.53919  1.0000
  C   C351      1.0  0.12634  0.16296  0.68927  1.0000
  C   C352      1.0  0.28462  0.05131  0.66407  1.0000
  N   N31       1.0  0.18554  0.23520  0.70287  1.0000
  H   H354      1.0  0.48124  0.02301  0.54036  1.0000
  C   C353      1.0  0.29457  0.07187  0.67128  1.0000
  C   C354      1.0  0.32128  0.14293  0.69797  1.0000
  C   C355      1.0  0.35465  0.02246  0.59574  1.0000
  C   C356      1.0  0.14752  0.18686  0.67520  1.0000
  H   H355      1.0  0.06424  0.30492  0.62170  1.0000
  C   C357      1.0  0.26406  0.07745  0.66897  1.0000
  H   H356      1.0  0.11829  0.15334  0.69465  1.0000
  H   H357      1.0  0.16950  0.16765  0.68223  1.0000
  H   H358      1.0  0.15720  0.26658  0.71803  1.0000
  C   C358      1.0  0.14357  0.06378  0.67769  1.0000
  Fe  Fe60      1.0  0.25219  0.22537  0.70118  1.0000
  C   C359      1.0  0.37622  0.03762  0.48768  1.0000
  C   C360      1.0  0.49413  0.99540  0.54394  1.0000
  C   C361      1.0  0.14462  0.15881  0.68940  1.0000
  C   C362      1.0  0.18981  0.02128  0.65469  1.0000
  H   H359      1.0  0.34667  0.01331  0.60218  1.0000
  C   C363      1.0  0.37299  0.04645  0.52382  1.0000
  C   C364      1.0  0.38635  0.05795  0.57080  1.0000
  C   C365      1.0  0.07615  0.26494  0.67781  1.0000
  C   C366      1.0  0.21021  0.14509  0.69016  1.0000
  H   H360      1.0  0.48346  0.07274  0.50667  1.0000
  C   C367      1.0  0.25307  0.07275  0.61806  1.0000
  C   C368      1.0  0.36439  0.01906  0.58397  1.0000
  H   H361      1.0  0.19379  0.16767  0.69777  1.0000
  H   H362      1.0  0.03721  0.26499  0.61402  1.0000
  C   C369      1.0  0.20712  0.15945  0.69592  1.0000
  H   H363      1.0  0.14336  0.29927  0.62852  1.0000
  H   H364      1.0  0.23406  0.24544  0.67984  1.0000
  S   S120      1.0  0.23997  0.25400  0.70148  1.0000
  C   C370      1.0  0.22120  0.16312  0.69940  1.0000
  C   C371      1.0  0.20787  0.27530  0.69729  1.0000
  S   S121      1.0  0.08628  0.30225  0.69154  1.0000
  S   S122      1.0  0.21703  0.18109  0.70670  1.0000
  C   C372      1.0  0.31603  0.17107  0.70933  1.0000
  C   C373      1.0  0.08873  0.28292  0.68607  1.0000
  C   C374      1.0  0.12921  0.19054  0.67523  1.0000
  C   C375      1.0  0.09982  0.18273  0.68189  1.0000
  H   H365      1.0  0.12324  0.20303  0.66972  1.0000
  H   H366      1.0  0.09230  0.19239  0.68795  1.0000
  H   H367      1.0  0.09781  0.18867  0.67211  1.0000
  H   H368      1.0  0.21991  0.04979  0.63098  1.0000
  Fe  Fe61      1.0  0.27098  0.19400  0.71813  1.0000
  C   C376      1.0  0.48003  0.00959  0.54122  1.0000
  C   C377      1.0  0.17256  0.03764  0.68426  1.0000
  S   S123      1.0  0.49514  0.05698  0.54082  1.0000
  C   C378      1.0  0.37478  0.03089  0.57585  1.0000
  C   C379      1.0  0.49053  0.11727  0.54120  1.0000
  C   C380      1.0  0.16869  0.25602  0.71590  1.0000
  H   H369      1.0  0.37262  0.04845  0.53305  1.0000
  H   H370      1.0  0.22522  0.00974  0.61460  1.0000
  C   C381      1.0  0.32525  0.17163  0.69675  1.0000
  C   C382      1.0  0.13042  0.04232  0.67350  1.0000
  H   H371      1.0  0.06516  0.26314  0.67467  1.0000
  C   C383      1.0  0.01720  0.27904  0.64140  1.0000
  C   C384      1.0  0.18754  0.22693  0.69232  1.0000
  C   C385      1.0  0.04683  0.28162  0.62166  1.0000
  H   H372      1.0  0.47617  0.11905  0.54503  1.0000
  C   C386      1.0  0.01551  0.31576  0.60948  1.0000
  C   C387      1.0  0.17084  0.24828  0.70569  1.0000
  C   C388      1.0  0.19808  0.22921  0.71019  1.0000
  C   C389      1.0  0.22261  0.25517  0.68319  1.0000
  H   H373      1.0  0.01373  0.17975  0.64336  1.0000
  S   S124      1.0  0.44871  0.08944  0.50012  1.0000
  H   H374      1.0  0.28103  0.07025  0.59291  1.0000
  S   S125      1.0  0.15811  0.01934  0.64992  1.0000
  H   H375      1.0  0.19326  0.00702  0.65638  1.0000
  C   C390      1.0  0.19642  0.23676  0.72039  1.0000
  C   C391      1.0  0.36604  0.03282  0.52282  1.0000
  N   N32       1.0  0.14922  0.18248  0.61738  1.0000
  C   C392      1.0  0.14123  0.16826  0.62207  1.0000
  C   C393      1.0  0.13905  0.19926  0.61472  1.0000
  C   C394      1.0  0.12264  0.17061  0.62387  1.0000
  C   C395      1.0  0.12041  0.20209  0.61646  1.0000
  C   C396      1.0  0.11219  0.18764  0.62107  1.0000
  C   C397      1.0  0.16867  0.17971  0.61591  1.0000
  H   H376      1.0  0.14922  0.15501  0.62458  1.0000
  H   H377      1.0  0.14528  0.21061  0.61128  1.0000
  H   H378      1.0  0.11624  0.15937  0.62779  1.0000
  H   H379      1.0  0.11234  0.21542  0.61439  1.0000
  H   H380      1.0  0.09770  0.18964  0.62272  1.0000
  H   H381      1.0  0.17582  0.16731  0.61252  1.0000
  H   H382      1.0  0.17415  0.19069  0.60889  1.0000
  H   H383      1.0  0.17194  0.17856  0.62514  1.0000
  H   H384      1.0  0.44443  0.99531  0.52841  1.0000
  C   C398      1.0  0.26703  0.25870  0.72203  1.0000
  C   C399      1.0  0.19289  0.31461  0.72722  1.0000
  H   H385      1.0  0.36223  0.01915  0.51015  1.0000
  H   H386      1.0  0.33547  0.17126  0.67223  1.0000
  S   S126      1.0  0.42009  0.01606  0.49575  1.0000
  C   C400      1.0  0.27737  0.08264  0.67221  1.0000
  H   H387      1.0  0.05049  0.31136  0.63585  1.0000
  H   H388      1.0  0.18189  0.21484  0.69584  1.0000
  H   H389      1.0  0.38747  0.05802  0.56072  1.0000
  S   S127      1.0  0.11116  0.31687  0.61710  1.0000
  S   S128      1.0  0.01403  0.23377  0.65581  1.0000
  H   H390      1.0  0.24864  0.06763  0.65365  1.0000
  H   H391      1.0  0.20195  0.22305  0.68778  1.0000
  H   H392      1.0  0.25662  0.08465  0.61853  1.0000
  C   C401      1.0  0.15868  0.31364  0.64598  1.0000
  C   C402      1.0  0.23686  0.06866  0.62552  1.0000
  C   C403      1.0  0.33878  0.15795  0.67842  1.0000
  Fe  Fe62      1.0  0.24172  0.19003  0.70646  1.0000
  C   C404      1.0  0.15711  0.06834  0.68113  1.0000
  S   S129      1.0  0.26249  0.00553  0.60174  1.0000
  H   H393      1.0  0.00569  0.27799  0.64919  1.0000
  N   N33       1.0  0.04399  0.29012  0.63127  1.0000
  S   S130      1.0  0.13014  0.31471  0.67357  1.0000
  C   C405      1.0  0.48584  0.04788  0.49428  1.0000
  H   H394      1.0  0.13243  0.07416  0.67494  1.0000
  C   C406      1.0  0.17172  0.05516  0.68438  1.0000
  N   N34       1.0  0.14452  0.04657  0.67757  1.0000
  H   H395      1.0  0.30210  0.15559  0.72601  1.0000
  H   H396      1.0  0.14527  0.28847  0.64458  1.0000
  C   C407      1.0  0.15878  0.03355  0.68078  1.0000
  N   N35       1.0  0.37486  0.04074  0.50017  1.0000
  H   H397      1.0  0.44035  0.12974  0.48812  1.0000
  H   H398      1.0  0.26685  0.26250  0.71203  1.0000
  H   H399      1.0  0.01054  0.26279  0.63173  1.0000
  H   H400      1.0  0.47296  0.05128  0.50106  1.0000
  H   H401      1.0  0.15642  0.08204  0.68107  1.0000
  C   C408      1.0  0.24760  0.99119  0.60632  1.0000
  H   H402      1.0  0.11700  0.04729  0.67914  1.0000
  H   H403      1.0  0.18021  0.25633  0.73105  1.0000
  N   N36       1.0  0.14586  0.31611  0.63924  1.0000
  H   H404      1.0  0.18259  0.05854  0.68670  1.0000
  H   H405      1.0  0.27913  0.27976  0.72160  1.0000
  C   C409      1.0  0.49711  0.06574  0.50367  1.0000
  C   C410      1.0  0.27394  0.26836  0.72749  1.0000
  H   H406      1.0  0.47782  0.00583  0.50773  1.0000
  H   H407      1.0  0.36574  0.03084  0.48772  1.0000
  C   C411      1.0  0.49863  0.10743  0.53188  1.0000
  H   H408      1.0  0.06716  0.29083  0.63683  1.0000
  S   S131      1.0  0.15642  0.32326  0.68828  1.0000
  C   C412      1.0  0.22996  0.99653  0.61281  1.0000
  H   H409      1.0  0.38887  0.06172  0.49265  1.0000
  H   H410      1.0  0.37344  0.99588  0.54492  1.0000
  C   C413      1.0  0.00607  0.19259  0.64506  1.0000
  H   H411      1.0  0.18798  0.30289  0.72816  1.0000
  C   C414      1.0  0.48499  0.99223  0.50994  1.0000
  N   N37       1.0  0.50059  0.05240  0.49739  1.0000
  C   C415      1.0  0.50113  0.12449  0.54570  1.0000
  H   H412      1.0  0.25554  0.23607  0.72531  1.0000
  C   C416      1.0  0.26055  0.24389  0.72952  1.0000
  H   H413      1.0  0.48422  0.05525  0.48462  1.0000
  Fe  Fe63      1.0  0.45094  0.03523  0.95151  1.0000
  S   S132      1.0  0.43893  0.06411  0.95049  1.0000
  S   S133      1.0  0.47262  0.02075  0.96209  1.0000
  Fe  Fe64      1.0  0.42474  0.03022  0.93814  1.0000
  S   S134      1.0  0.41052  0.05881  0.93596  1.0000
  S   S135      1.0  0.41266  0.01095  0.93362  1.0000
  Fe  Fe65      1.0  0.43819  0.06435  0.93061  1.0000
  S   S136      1.0  0.44948  0.08484  0.91443  1.0000
  Fe  Fe66      1.0  0.41266  0.05583  0.95599  1.0000
  S   S137      1.0  0.38861  0.06539  0.97048  1.0000
  S   S138      1.0  0.45238  0.03578  0.93125  1.0000
  S   S139      1.0  0.42474  0.02687  0.95858  1.0000
  S   S140      1.0  0.33667  0.26500  0.78665  1.0000
  Fe  Fe67      1.0  0.40527  0.16459  0.87044  1.0000
  S   S141      1.0  0.42414  0.15718  0.85293  1.0000
  S   S142      1.0  0.39369  0.14474  0.88676  1.0000
  Fe  Fe68      1.0  0.40593  0.20335  0.86106  1.0000
  S   S143      1.0  0.42492  0.19943  0.84280  1.0000
  S   S144      1.0  0.39821  0.23046  0.86515  1.0000
  Fe  Fe69      1.0  0.40791  0.18152  0.84250  1.0000
  S   S145      1.0  0.40312  0.18152  0.82362  1.0000
  Fe  Fe70      1.0  0.43930  0.17576  0.85476  1.0000
  C   C417      1.0  0.48942  0.06432  0.96126  1.0000
  S   S146      1.0  0.38746  0.18737  0.85991  1.0000
  S   S147      1.0  0.42186  0.18117  0.87317  1.0000
  H   H414      1.0  0.38280  0.26606  0.80488  1.0000
  H   H415      1.0  0.38207  0.22726  0.78014  1.0000
  H   H416      1.0  0.48890  0.07763  0.95563  1.0000
  C   C418      1.0  0.47751  0.18856  0.88844  1.0000
  H   H417      1.0  0.39849  0.09621  0.87182  1.0000
  C   C419      1.0  0.40932  0.21987  0.79926  1.0000
  Fe  Fe71      1.0  0.35354  0.25971  0.76813  1.0000
  H   H418      1.0  0.46543  0.13728  0.89307  1.0000
  Fe  Fe72      1.0  0.37562  0.30824  0.81791  1.0000
  C   C420      1.0  0.25173  0.29671  0.77159  1.0000
  C   C421      1.0  0.49072  0.21314  0.85699  1.0000
  N   N38       1.0  0.30516  0.29212  0.81284  1.0000
  C   C422      1.0  0.49668  0.05909  0.97207  1.0000
  S   S148      1.0  0.36072  0.28624  0.82389  1.0000
  H   H419      1.0  0.28740  0.31416  0.80389  1.0000
  S   S149      1.0  0.32873  0.22250  0.80893  1.0000
  H   H420      1.0  0.28837  0.28391  0.80458  1.0000
  H   H421      1.0  0.45359  0.22010  0.83331  1.0000
  H   H422      1.0  0.41778  0.26323  0.85727  1.0000
  H   H423      1.0  0.43388  0.09499  0.97533  1.0000
  C   C423      1.0  0.29520  0.20084  0.75049  1.0000
  C   C424      1.0  0.31455  0.25669  0.82445  1.0000
  H   H424      1.0  0.31827  0.24284  0.82890  1.0000
  S   S150      1.0  0.46922  0.16925  0.85163  1.0000
  N   N39       1.0  0.39086  0.12389  0.86466  1.0000
  H   H425      1.0  0.47760  0.08568  0.93223  1.0000
  C   C425      1.0  0.40679  0.30233  0.76000  1.0000
  H   H426      1.0  0.41205  0.10957  0.87403  1.0000
  N   N40       1.0  0.39789  0.23017  0.79163  1.0000
  H   H427      1.0  0.40344  0.24750  0.81887  1.0000
  N   N41       1.0  0.38917  0.99389  0.96545  1.0000
  H   H428      1.0  0.41999  0.21736  0.81551  1.0000
  C   C426      1.0  0.36787  0.14944  0.85929  1.0000
  C   C427      1.0  0.30078  0.31072  0.80637  1.0000
  C   C428      1.0  0.30980  0.22586  0.74255  1.0000
  C   C429      1.0  0.29308  0.20180  0.73830  1.0000
  H   H429      1.0  0.47661  0.05651  0.94968  1.0000
  C   C430      1.0  0.40192  0.24262  0.81122  1.0000
  C   C431      1.0  0.43924  0.24391  0.84014  1.0000
  C   C432      1.0  0.47224  0.21376  0.86040  1.0000
  C   C433      1.0  0.38253  0.19347  0.81963  1.0000
  C   C434      1.0  0.37982  0.19424  0.80768  1.0000
  C   C435      1.0  0.36358  0.20370  0.80417  1.0000
  C   C436      1.0  0.34970  0.21187  0.81280  1.0000
  C   C437      1.0  0.35232  0.21086  0.82484  1.0000
  C   C438      1.0  0.36882  0.20197  0.82816  1.0000
  H   H430      1.0  0.39025  0.18736  0.80115  1.0000
  H   H431      1.0  0.36150  0.20406  0.79499  1.0000
  H   H432      1.0  0.34160  0.21692  0.83163  1.0000
  H   H433      1.0  0.37077  0.20147  0.83740  1.0000
  C   C439      1.0  0.38564  0.24559  0.85468  1.0000
  C   C440      1.0  0.38007  0.23997  0.84592  1.0000
  C   C441      1.0  0.37128  0.25248  0.83694  1.0000
  C   C442      1.0  0.36892  0.27058  0.83633  1.0000
  C   C443      1.0  0.37410  0.27613  0.84526  1.0000
  C   C444      1.0  0.38205  0.26362  0.85462  1.0000
  H   H434      1.0  0.38262  0.22602  0.84603  1.0000
  H   H435      1.0  0.36702  0.24813  0.83015  1.0000
  H   H436      1.0  0.37180  0.29007  0.84506  1.0000
  H   H437      1.0  0.38574  0.26797  0.86166  1.0000
  C   C445      1.0  0.46549  0.20042  0.85861  1.0000
  C   C446      1.0  0.46334  0.11049  0.98422  1.0000
  H   H438      1.0  0.36465  0.28499  0.78047  1.0000
  C   C447      1.0  0.44132  0.99882  0.91532  1.0000
  C   C448      1.0  0.39031  0.25303  0.80339  1.0000
  H   H439      1.0  0.37376  0.30859  0.78596  1.0000
  H   H440      1.0  0.49693  0.14496  0.87667  1.0000
  H   H441      1.0  0.36745  0.13312  0.87792  1.0000
  S   S151      1.0  0.34857  0.23253  0.77113  1.0000
  C   C449      1.0  0.38051  0.02375  0.96855  1.0000
  H   H442      1.0  0.44643  0.01023  0.91476  1.0000
  C   C450      1.0  0.49143  0.15709  0.88014  1.0000
  H   H443      1.0  0.49579  0.09697  0.92582  1.0000
  H   H444      1.0  0.47791  0.99713  0.94567  1.0000
  H   H445      1.0  0.37880  0.01622  0.95209  1.0000
  C   C451      1.0  0.26097  0.23895  0.74233  1.0000
  H   H446      1.0  0.40138  0.14324  0.83362  1.0000
  H   H447      1.0  0.47189  0.20106  0.89140  1.0000
  C   C452      1.0  0.49585  0.18390  0.88341  1.0000
  H   H448      1.0  0.19037  0.30980  0.75688  1.0000
  H   H449      1.0  0.46316  0.22449  0.86450  1.0000
  C   C453      1.0  0.43385  0.10141  0.90679  1.0000
  C   C454      1.0  0.41541  0.10335  0.91179  1.0000
  C   C455      1.0  0.40319  0.11677  0.90562  1.0000
  C   C456      1.0  0.40934  0.12838  0.89446  1.0000
  C   C457      1.0  0.42778  0.12643  0.88940  1.0000
  C   C458      1.0  0.44000  0.11294  0.89556  1.0000
  H   H450      1.0  0.41054  0.09465  0.92049  1.0000
  H   H451      1.0  0.38894  0.11821  0.90957  1.0000
  H   H452      1.0  0.43258  0.13517  0.88068  1.0000
  H   H453      1.0  0.45424  0.11129  0.89155  1.0000
  H   H454      1.0  0.36607  0.09463  0.98056  1.0000
  H   H455      1.0  0.37918  0.25447  0.78768  1.0000
  C   C459      1.0  0.38171  0.30297  0.77797  1.0000
  H   H456      1.0  0.40399  0.23117  0.77195  1.0000
  H   H457      1.0  0.27734  0.28016  0.77438  1.0000
  C   C460      1.0  0.30345  0.21291  0.75265  1.0000
  C   C461      1.0  0.39669  0.30957  0.77039  1.0000
  S   S152      1.0  0.29684  0.30282  0.77878  1.0000
  C   C462      1.0  0.48813  0.08886  0.92366  1.0000
  H   H458      1.0  0.35681  0.30405  0.74519  1.0000
  Fe  Fe73      1.0  0.31409  0.27609  0.77648  1.0000
  H   H459      1.0  0.50093  0.30560  0.82509  1.0000
  C   C463      1.0  0.49744  0.04188  0.97927  1.0000
  H   H460      1.0  0.31097  0.31314  0.79747  1.0000
  H   H461      1.0  0.40137  0.20969  0.78176  1.0000
  H   H462      1.0  0.45213  0.18112  0.89296  1.0000
  C   C464      1.0  0.43893  0.10329  0.97910  1.0000
  C   C465      1.0  0.31746  0.28692  0.82034  1.0000
  H   H463      1.0  0.32373  0.29649  0.82170  1.0000
  C   C466      1.0  0.39371  0.14083  0.84329  1.0000
  C   C467      1.0  0.48229  0.05247  0.95797  1.0000
  Fe  Fe74      1.0  0.32984  0.23885  0.78910  1.0000
  H   H464      1.0  0.39023  0.10926  0.88378  1.0000
  C   C468      1.0  0.46189  0.14976  0.88614  1.0000
  H   H465      1.0  0.35538  0.15852  0.86218  1.0000
  H   H466      1.0  0.37237  0.16359  0.83985  1.0000
  N   N42       1.0  0.47345  0.16176  0.88508  1.0000
  H   H467      1.0  0.46352  0.14665  0.87679  1.0000
  C   C469      1.0  0.26904  0.29331  0.77385  1.0000
  H   H468      1.0  0.19277  0.29252  0.74885  1.0000
  H   H469      1.0  0.29664  0.25228  0.81485  1.0000
  C   C470      1.0  0.27538  0.30688  0.77562  1.0000
  H   H470      1.0  0.25652  0.22709  0.74812  1.0000
  C   C471      1.0  0.45687  0.26379  0.83963  1.0000
  H   H471      1.0  0.24676  0.28612  0.77043  1.0000
  C   C472      1.0  0.29774  0.27991  0.81081  1.0000
  N   N43       1.0  0.49981  0.07261  0.92005  1.0000
  H   H472      1.0  0.33210  0.26510  0.83220  1.0000
  Fe  Fe75      1.0  0.32483  0.24632  0.76213  1.0000
  C   C473      1.0  0.49250  0.05855  0.92116  1.0000
  H   H473      1.0  0.30486  0.21222  0.76207  1.0000
  C   C474      1.0  0.47248  0.25253  0.83457  1.0000
  H   H474      1.0  0.42726  0.28245  0.85006  1.0000
  H   H475      1.0  0.45123  0.20093  0.86131  1.0000
  C   C475      1.0  0.39148  0.07632  0.98114  1.0000
  H   H476      1.0  0.29028  0.19086  0.75832  1.0000
  H   H477      1.0  0.41011  0.28280  0.74924  1.0000
  H   H478      1.0  0.41664  0.20676  0.79787  1.0000
  N   N44       1.0  0.44057  0.25930  0.84245  1.0000
  C   C476      1.0  0.47126  0.23684  0.83213  1.0000
  H   H479      1.0  0.32978  0.31041  0.76209  1.0000
  C   C477      1.0  0.41134  0.22584  0.80926  1.0000
  C   C478      1.0  0.37655  0.28956  0.77486  1.0000
  H   H480      1.0  0.48548  0.25570  0.83286  1.0000
  C   C479      1.0  0.30228  0.26204  0.81662  1.0000
  H   H481      1.0  0.41834  0.30741  0.75411  1.0000
  C   C480      1.0  0.39633  0.22420  0.78085  1.0000
  C   C481      1.0  0.40028  0.12659  0.85240  1.0000
  S   S153      1.0  0.40397  0.30232  0.80706  1.0000
  C   C482      1.0  0.32227  0.26916  0.82631  1.0000
  C   C483      1.0  0.39823  0.10895  0.87400  1.0000
  C   C484      1.0  0.42726  0.11759  0.98383  1.0000
  S   S154      1.0  0.33161  0.27306  0.75765  1.0000
  S   S155      1.0  0.31924  0.24216  0.74454  1.0000
  C   C485      1.0  0.38836  0.24648  0.79364  1.0000
  H   H482      1.0  0.42633  0.24024  0.84262  1.0000
  H   H483      1.0  0.41312  0.11791  0.84967  1.0000
  S   S156      1.0  0.43342  0.31124  0.82718  1.0000
  C   C486      1.0  0.42434  0.27079  0.84815  1.0000
  C   C487      1.0  0.38685  0.28217  0.76452  1.0000
  H   H484      1.0  0.46069  0.31240  0.83914  1.0000
  C   C488      1.0  0.37476  0.13500  0.86814  1.0000
  H   H485      1.0  0.37549  0.03776  0.96508  1.0000
  H   H486      1.0  0.47830  0.05922  0.92501  1.0000
  C   C489      1.0  0.47724  0.18642  0.85346  1.0000
  S   S157      1.0  0.38124  0.26514  0.76034  1.0000
  H   H487      1.0  0.45790  0.27604  0.84142  1.0000
  C   C490      1.0  0.37743  0.15233  0.84679  1.0000
  C   C491      1.0  0.45454  0.23253  0.83485  1.0000
  S   S158      1.0  0.30548  0.25042  0.78045  1.0000
  C   C492      1.0  0.38237  0.01150  0.96127  1.0000
  H   H488      1.0  0.30043  0.31968  0.81245  1.0000
  C   C493      1.0  0.46642  0.17726  0.88921  1.0000
  H   H489      1.0  0.15257  0.31761  0.74709  1.0000
  C   C494      1.0  0.42505  0.99631  0.92361  1.0000
  H   H490      1.0  0.46824  0.99193  0.92821  1.0000
  C   C495      1.0  0.45705  0.09959  0.97941  1.0000
  H   H491      1.0  0.41487  0.27587  0.84164  1.0000
  C   C496      1.0  0.38590  0.01791  0.98007  1.0000
  C   C497      1.0  0.49565  0.18592  0.84993  1.0000
  C   C498      1.0  0.49072  0.02994  0.97578  1.0000
  C   C499      1.0  0.48271  0.03534  0.96536  1.0000
  H   H492      1.0  0.48330  0.22773  0.82856  1.0000
  C   C500      1.0  0.40209  0.28845  0.75723  1.0000
  C   C501      1.0  0.19855  0.30366  0.74879  1.0000
  H   H493      1.0  0.44309  0.03667  0.98447  1.0000
  H   H494      1.0  0.44745  0.15563  0.88931  1.0000
  C   C502      1.0  0.24076  0.31373  0.77101  1.0000
  S   S159      1.0  0.38200  0.32303  0.82979  1.0000
  H   H495      1.0  0.29392  0.27750  0.73927  1.0000
  H   H496      1.0  0.21243  0.29833  0.75037  1.0000
  H   H497      1.0  0.48135  0.09685  0.91586  1.0000
  H   H498      1.0  0.49097  0.01672  0.98151  1.0000
  H   H499      1.0  0.46622  0.08834  0.97598  1.0000
  C   C503      1.0  0.39299  0.99996  0.98417  1.0000
  S   S160      1.0  0.49895  0.22973  0.85955  1.0000
  Fe  Fe76      1.0  0.40978  0.31954  0.81752  1.0000
  H   H500      1.0  0.49751  0.03176  0.91865  1.0000
  H   H501      1.0  0.26860  0.24477  0.75740  1.0000
  C   C504      1.0  0.26791  0.24895  0.74750  1.0000
  H   H502      1.0  0.41696  0.05972  0.98405  1.0000
  H   H503      1.0  0.28495  0.26647  0.75474  1.0000
  H   H504      1.0  0.38099  0.32059  0.74040  1.0000
  H   H505      1.0  0.41305  0.12039  0.98389  1.0000
  S   S161      1.0  0.21911  0.31772  0.76821  1.0000
  C   C505      1.0  0.35551  0.31407  0.75038  1.0000
  N   N45       1.0  0.19865  0.31701  0.73694  1.0000
  C   C506      1.0  0.34047  0.31745  0.75999  1.0000
  N   N46       1.0  0.27440  0.26338  0.74006  1.0000
  H   H506      1.0  0.27121  0.28627  0.74713  1.0000
  C   C507      1.0  0.28134  0.27399  0.74558  1.0000
  S   S162      1.0  0.28200  0.18704  0.73587  1.0000
  C   C508      1.0  0.46041  0.32323  0.83096  1.0000
  C   C509      1.0  0.36908  0.32336  0.74769  1.0000
  H   H507      1.0  0.47749  0.10738  0.98447  1.0000
  Fe  Fe77      1.0  0.10374  0.60666  0.05015  1.0000
  S   S163      1.0  0.08529  0.58773  0.05515  1.0000
  Fe  Fe78      1.0  0.10474  0.61336  0.02209  1.0000
  S   S164      1.0  0.08720  0.59466  0.02501  1.0000
  Fe  Fe79      1.0  0.07043  0.60708  0.04099  1.0000
  Fe  Fe80      1.0  0.10311  0.57675  0.03871  1.0000
  S   S165      1.0  0.10996  0.54752  0.03941  1.0000
  S   S166      1.0  0.12282  0.59408  0.03452  1.0000
  Fe  Fe81      1.0  0.05836  0.49920  0.02101  1.0000
  S   S167      1.0  0.07821  0.47510  0.02788  1.0000
  S   S168      1.0  0.06435  0.52546  0.01056  1.0000
  Fe  Fe82      1.0  0.02605  0.48293  0.03410  1.0000
  S   S169      1.0  0.04292  0.45747  0.04263  1.0000
  C   C510      1.0  0.25477  0.37695  0.21263  1.0000
  Fe  Fe83      1.0  0.05857  0.47440  0.04653  1.0000
  S   S170      1.0  0.06557  0.47248  0.06530  1.0000
  Fe  Fe84      1.0  0.06103  0.46057  0.02323  1.0000
  H   H508      1.0  0.33161  0.33546  0.17566  1.0000
  S   S171      1.0  0.03968  0.49952  0.03978  1.0000
  S   S172      1.0  0.04316  0.48496  0.01458  1.0000
  H   H509      1.0  0.40719  0.39528  0.11883  1.0000
  Fe  Fe85      1.0  0.18498  0.59264  0.12078  1.0000
  H   H510      1.0  0.07603  0.56477  0.03190  1.0000
  S   S173      1.0  0.17473  0.56842  0.13240  1.0000
  Fe  Fe86      1.0  0.14773  0.48637  0.08651  1.0000
  S   S174      1.0  0.12869  0.49074  0.10473  1.0000
  S   S175      1.0  0.14028  0.48335  0.06923  1.0000
  Fe  Fe87      1.0  0.17998  0.48958  0.09530  1.0000
  S   S176      1.0  0.16354  0.49371  0.11427  1.0000
  S   S177      1.0  0.20843  0.49318  0.09014  1.0000
  Fe  Fe88      1.0  0.15098  0.47223  0.11370  1.0000
  S   S178      1.0  0.14473  0.45106  0.13097  1.0000
  Fe  Fe89      1.0  0.14322  0.51174  0.10355  1.0000
  S   S179      1.0  0.13114  0.53977  0.10573  1.0000
  S   S180      1.0  0.16925  0.46636  0.09552  1.0000
  S   S181      1.0  0.16041  0.50904  0.08450  1.0000
  Fe  Fe90      1.0  0.34190  0.58471  0.13729  1.0000
  N   N47       1.0  0.26764  0.64611  0.14772  1.0000
  S   S182      1.0  0.35159  0.55628  0.13488  1.0000
  S   S183      1.0  0.35068  0.59537  0.15071  1.0000
  S   S184      1.0  0.31257  0.59535  0.14393  1.0000
  Fe  Fe91      1.0  0.31576  0.45306  0.12800  1.0000
  S   S185      1.0  0.31972  0.47016  0.13945  1.0000
  S   S186      1.0  0.33780  0.43494  0.11719  1.0000
  Fe  Fe92      1.0  0.27516  0.46421  0.13437  1.0000
  S   S187      1.0  0.27555  0.48227  0.14618  1.0000
  S   S188      1.0  0.24874  0.45837  0.13512  1.0000
  Fe  Fe93      1.0  0.29830  0.49060  0.13082  1.0000
  S   S189      1.0  0.29651  0.52007  0.12505  1.0000
  Fe  Fe94      1.0  0.29667  0.46042  0.15376  1.0000
  S   S190      1.0  0.29409  0.45440  0.17472  1.0000
  S   S191      1.0  0.29600  0.47436  0.11811  1.0000
  S   S192      1.0  0.29469  0.44150  0.14317  1.0000
  H   H511      1.0  0.17150  0.62168  0.05279  1.0000
  H   H512      1.0  0.44945  0.35653  0.14255  1.0000
  S   S193      1.0  0.16903  0.61904  0.11254  1.0000
  Fe  Fe95      1.0  0.39595  0.34550  0.14441  1.0000
  S   S194      1.0  0.42231  0.33976  0.14996  1.0000
  S   S195      1.0  0.37454  0.36676  0.15258  1.0000
  H   H513      1.0  0.07786  0.40870  0.00195  1.0000
  H   H514      1.0  0.42331  0.37440  0.11863  1.0000
  Fe  Fe96      1.0  0.35180  0.61988  0.13520  1.0000
  S   S196      1.0  0.40765  0.34234  0.12439  1.0000
  C   C511      1.0  0.34610  0.33466  0.17132  1.0000
  Fe  Fe97      1.0  0.20993  0.39848  0.17386  1.0000
  S   S197      1.0  0.19194  0.41506  0.18750  1.0000
  S   S198      1.0  0.21367  0.40875  0.15278  1.0000
  Fe  Fe98      1.0  0.22472  0.36943  0.19443  1.0000
  S   S199      1.0  0.20819  0.38386  0.20957  1.0000
  H   H515      1.0  0.02387  0.56603  0.04676  1.0000
  Fe  Fe99      1.0  0.18596  0.38912  0.19955  1.0000
  Fe  Fe100     1.0  0.21588  0.40811  0.19623  1.0000
  S   S200      1.0  0.22350  0.42698  0.20430  1.0000
  S   S201      1.0  0.20192  0.37299  0.18511  1.0000
  S   S202      1.0  0.23448  0.39330  0.18184  1.0000
  H   H516      1.0  0.40307  0.61726  0.16426  1.0000
  C   C512      1.0  0.43657  0.63247  0.13214  1.0000
  H   H517      1.0  0.45181  0.64552  0.13843  1.0000
  H   H518      1.0  0.07398  0.62829  0.01087  1.0000
  H   H519      1.0  0.32757  0.55381  0.10459  1.0000
  C   C513      1.0  0.27581  0.40197  0.20245  1.0000
  S   S203      1.0  0.07199  0.43709  0.01402  1.0000
  H   H520      1.0  0.18165  0.65521  0.08256  1.0000
  C   C514      1.0  0.27387  0.44766  0.18250  1.0000
  C   C515      1.0  0.26592  0.43938  0.17667  1.0000
  C   C516      1.0  0.25033  0.43311  0.18325  1.0000
  C   C517      1.0  0.24235  0.43557  0.19554  1.0000
  C   C518      1.0  0.24999  0.44432  0.20122  1.0000
  C   C519      1.0  0.26588  0.45009  0.19479  1.0000
  H   H521      1.0  0.27196  0.43744  0.16721  1.0000
  H   H522      1.0  0.24452  0.42639  0.17881  1.0000
  H   H523      1.0  0.24382  0.44630  0.21071  1.0000
  H   H524      1.0  0.27191  0.45654  0.19933  1.0000
  C   C520      1.0  0.34817  0.41603  0.12697  1.0000
  C   C521      1.0  0.36096  0.40268  0.12160  1.0000
  C   C522      1.0  0.36914  0.38741  0.12935  1.0000
  C   C523      1.0  0.36459  0.38553  0.14249  1.0000
  C   C524      1.0  0.35184  0.39890  0.14783  1.0000
  C   C525      1.0  0.34364  0.41411  0.14010  1.0000
  H   H525      1.0  0.36444  0.40411  0.11143  1.0000
  H   H526      1.0  0.37883  0.37709  0.12516  1.0000
  H   H527      1.0  0.34834  0.39755  0.15798  1.0000
  H   H528      1.0  0.33393  0.42440  0.14431  1.0000
  H   H529      1.0  0.43852  0.41285  0.14577  1.0000
  C   C526      1.0  0.26797  0.34440  0.18086  1.0000
  H   H530      1.0  0.26018  0.35716  0.17715  1.0000
  H   H531      1.0  0.28982  0.34500  0.16446  1.0000
  S   S204      1.0  0.34589  0.60802  0.12114  1.0000
  H   H532      1.0  0.15202  0.60945  0.09301  1.0000
  C   C527      1.0  0.33625  0.54602  0.13236  1.0000
  C   C528      1.0  0.31895  0.55544  0.13118  1.0000
  C   C529      1.0  0.30687  0.54711  0.12922  1.0000
  C   C530      1.0  0.31193  0.52932  0.12837  1.0000
  C   C531      1.0  0.32916  0.51972  0.12968  1.0000
  C   C532      1.0  0.34134  0.52811  0.13159  1.0000
  H   H533      1.0  0.31497  0.56924  0.13151  1.0000
  H   H534      1.0  0.29355  0.55449  0.12826  1.0000
  H   H535      1.0  0.33324  0.50598  0.12894  1.0000
  H   H536      1.0  0.35474  0.52072  0.13246  1.0000
  C   C533      1.0  0.16379  0.43867  0.13694  1.0000
  C   C534      1.0  0.16185  0.42863  0.14937  1.0000
  C   C535      1.0  0.17708  0.41920  0.15432  1.0000
  C   C536      1.0  0.19426  0.41957  0.14677  1.0000
  C   C537      1.0  0.19612  0.42930  0.13427  1.0000
  C   C538      1.0  0.18095  0.43897  0.12941  1.0000
  H   H537      1.0  0.14858  0.42831  0.15524  1.0000
  H   H538      1.0  0.17551  0.41162  0.16397  1.0000
  H   H539      1.0  0.20931  0.42955  0.12833  1.0000
  H   H540      1.0  0.18255  0.44652  0.11979  1.0000
  C   C539      1.0  0.21978  0.48361  0.10257  1.0000
  C   C540      1.0  0.21216  0.47257  0.11343  1.0000
  C   C541      1.0  0.22118  0.46506  0.12337  1.0000
  C   C542      1.0  0.23776  0.46870  0.12259  1.0000
  C   C543      1.0  0.24542  0.47983  0.11176  1.0000
  C   C544      1.0  0.23647  0.48720  0.10171  1.0000
  H   H541      1.0  0.19940  0.46962  0.11411  1.0000
  H   H542      1.0  0.21529  0.45634  0.13168  1.0000
  H   H543      1.0  0.25827  0.48264  0.11108  1.0000
  H   H544      1.0  0.24243  0.49573  0.09329  1.0000
  S   S205      1.0  0.15930  0.38515  0.21210  1.0000
  C   C545      1.0  0.16263  0.56062  0.12490  1.0000
  C   C546      1.0  0.15512  0.57166  0.11484  1.0000
  C   C547      1.0  0.14498  0.56535  0.10925  1.0000
  C   C548      1.0  0.14290  0.54779  0.11338  1.0000
  C   C549      1.0  0.15068  0.53667  0.12330  1.0000
  C   C550      1.0  0.16035  0.54313  0.12914  1.0000
  H   H545      1.0  0.15682  0.58516  0.11157  1.0000
  H   H546      1.0  0.13904  0.57401  0.10157  1.0000
  H   H547      1.0  0.14873  0.52328  0.12676  1.0000
  H   H548      1.0  0.16599  0.53463  0.13700  1.0000
  S   S206      1.0  0.45866  0.34523  0.11858  1.0000
  C   C551      1.0  0.45864  0.40236  0.11721  1.0000
  C   C552      1.0  0.25316  0.62442  0.13963  1.0000
  H   H549      1.0  0.05059  0.62418  0.00205  1.0000
  H   H550      1.0  0.09469  0.53490  0.98724  1.0000
  H   H551      1.0  0.27773  0.39915  0.17597  1.0000
  C   C553      1.0  0.02992  0.60447  0.03617  1.0000
  C   C554      1.0  0.01837  0.53953  0.00996  1.0000
  C   C555      1.0  0.07716  0.62659  0.00124  1.0000
  H   H552      1.0  0.20451  0.65145  0.20490  1.0000
  C   C556      1.0  0.08628  0.47588  0.06619  1.0000
  C   C557      1.0  0.08866  0.47709  0.07785  1.0000
  C   C558      1.0  0.10494  0.47988  0.07889  1.0000
  C   C559      1.0  0.11910  0.48115  0.06830  1.0000
  C   C560      1.0  0.11668  0.48001  0.05667  1.0000
  C   C561      1.0  0.10035  0.47745  0.05559  1.0000
  H   H553      1.0  0.07782  0.47588  0.08609  1.0000
  H   H554      1.0  0.10666  0.48062  0.08792  1.0000
  H   H555      1.0  0.12755  0.48101  0.04842  1.0000
  H   H556      1.0  0.09873  0.47657  0.04657  1.0000
  C   C562      1.0  0.09691  0.54116  0.03175  1.0000
  C   C563      1.0  0.10214  0.52439  0.02883  1.0000
  C   C564      1.0  0.09192  0.51933  0.02256  1.0000
  C   C565      1.0  0.07671  0.53120  0.01895  1.0000
  C   C566      1.0  0.07130  0.54780  0.02207  1.0000
  C   C567      1.0  0.08112  0.55255  0.02874  1.0000
  H   H557      1.0  0.11413  0.51532  0.03137  1.0000
  H   H558      1.0  0.09612  0.50643  0.02020  1.0000
  H   H559      1.0  0.05925  0.55681  0.01962  1.0000
  H   H560      1.0  0.47098  0.40264  0.11008  1.0000
  H   H561      1.0  0.28803  0.59302  0.08729  1.0000
  H   H562      1.0  0.20204  0.63142  0.14132  1.0000
  C   C568      1.0  0.26175  0.60334  0.11000  1.0000
  H   H563      1.0  0.05232  0.56301  0.99184  1.0000
  H   H564      1.0  0.29612  0.59758  0.12433  1.0000
  C   C569      1.0  0.30041  0.58935  0.09067  1.0000
  C   C570      1.0  0.32226  0.56752  0.10053  1.0000
  C   C571      1.0  0.30884  0.60267  0.09042  1.0000
  C   C572      1.0  0.33082  0.58053  0.10066  1.0000
  C   C573      1.0  0.32395  0.59824  0.09564  1.0000
  S   S207      1.0  0.20374  0.58878  0.10248  1.0000
  H   H565      1.0  0.30310  0.61646  0.08683  1.0000
  H   H566      1.0  0.34240  0.57692  0.10495  1.0000
  H   H567      1.0  0.33005  0.60856  0.09608  1.0000
  N   N48       1.0  0.12100  0.43552  0.10801  1.0000
  C   C574      1.0  0.10926  0.43527  0.10115  1.0000
  C   C575      1.0  0.13800  0.43776  0.10210  1.0000
  C   C576      1.0  0.11461  0.43685  0.08803  1.0000
  C   C577      1.0  0.14372  0.43956  0.08898  1.0000
  C   C578      1.0  0.13194  0.43904  0.08194  1.0000
  C   C579      1.0  0.11514  0.43442  0.12168  1.0000
  H   H568      1.0  0.09561  0.43402  0.10575  1.0000
  H   H569      1.0  0.14715  0.43831  0.10754  1.0000
  H   H570      1.0  0.10520  0.43697  0.08255  1.0000
  H   H571      1.0  0.15705  0.44175  0.08423  1.0000
  H   H572      1.0  0.13606  0.44095  0.07172  1.0000
  H   H573      1.0  0.10330  0.42827  0.12581  1.0000
  H   H574      1.0  0.12603  0.42624  0.12662  1.0000
  H   H575      1.0  0.11173  0.44789  0.12369  1.0000
  N   N49       1.0  0.26567  0.42263  0.12075  1.0000
  C   C580      1.0  0.28096  0.41546  0.12537  1.0000
  C   C581      1.0  0.26557  0.43593  0.11014  1.0000
  C   C582      1.0  0.29685  0.42124  0.11911  1.0000
  C   C583      1.0  0.28114  0.44223  0.10378  1.0000
  C   C584      1.0  0.29689  0.43475  0.10828  1.0000
  C   C585      1.0  0.24898  0.41682  0.12756  1.0000
  H   H576      1.0  0.28090  0.40533  0.13399  1.0000
  H   H577      1.0  0.25327  0.44204  0.10675  1.0000
  H   H578      1.0  0.30900  0.41558  0.12278  1.0000
  H   H579      1.0  0.28089  0.45304  0.09554  1.0000
  H   H580      1.0  0.30907  0.43958  0.10352  1.0000
  H   H581      1.0  0.25149  0.40344  0.13378  1.0000
  H   H582      1.0  0.24057  0.42622  0.13360  1.0000
  H   H583      1.0  0.24122  0.41623  0.12089  1.0000
  C   C586      1.0  0.47076  0.36820  0.14234  1.0000
  C   C587      1.0  0.27782  0.65385  0.18583  1.0000
  C   C588      1.0  0.13429  0.60874  0.08167  1.0000
  H   H584      1.0  0.03261  0.53498  0.04406  1.0000
  H   H585      1.0  0.05378  0.59795  0.02217  1.0000
  H   H586      1.0  0.24929  0.62822  0.09950  1.0000
  C   C589      1.0  0.03978  0.59780  0.02548  1.0000
  H   H587      1.0  0.17412  0.38930  0.23324  1.0000
  C   C590      1.0  0.09443  0.57766  0.99663  1.0000
  C   C591      1.0  0.38169  0.64111  0.14051  1.0000
  C   C592      1.0  0.01150  0.60468  0.04005  1.0000
  C   C593      1.0  0.48718  0.37251  0.13561  1.0000
  N   N50       1.0  0.01438  0.64345  0.00070  1.0000
  H   H588      1.0  0.29215  0.56047  0.08834  1.0000
  H   H589      1.0  0.28358  0.41215  0.19841  1.0000
  N   N51       1.0  0.19481  0.54318  0.09433  1.0000
  C   C594      1.0  0.17983  0.54053  0.09198  1.0000
  C   C595      1.0  0.20148  0.55785  0.08781  1.0000
  C   C596      1.0  0.17087  0.55296  0.08310  1.0000
  C   C597      1.0  0.19277  0.57066  0.07895  1.0000
  C   C598      1.0  0.17731  0.56820  0.07664  1.0000
  C   C599      1.0  0.20338  0.53078  0.10430  1.0000
  H   H590      1.0  0.17448  0.52896  0.09720  1.0000
  H   H591      1.0  0.21346  0.55984  0.08961  1.0000
  H   H592      1.0  0.15873  0.55096  0.08155  1.0000
  H   H593      1.0  0.19779  0.58257  0.07407  1.0000
  H   H594      1.0  0.17026  0.57817  0.06995  1.0000
  H   H595      1.0  0.19778  0.51865  0.10798  1.0000
  H   H596      1.0  0.21798  0.52645  0.10054  1.0000
  H   H597      1.0  0.20125  0.53729  0.11230  1.0000
  H   H598      1.0  0.26396  0.41155  0.21969  1.0000
  C   C600      1.0  0.06376  0.62467  0.99613  1.0000
  N   N52       1.0  0.43048  0.39328  0.12538  1.0000
  S   S208      1.0  0.11046  0.61009  0.06767  1.0000
  C   C601      1.0  0.16367  0.61589  0.07314  1.0000
  C   C602      1.0  0.48614  0.35960  0.11873  1.0000
  N   N53       1.0  0.20507  0.46216  0.15751  1.0000
  C   C603      1.0  0.20766  0.47872  0.15120  1.0000
  C   C604      1.0  0.18992  0.45706  0.15765  1.0000
  C   C605      1.0  0.19492  0.49060  0.14471  1.0000
  C   C606      1.0  0.17697  0.46854  0.15120  1.0000
  C   C607      1.0  0.17951  0.48542  0.14471  1.0000
  C   C608      1.0  0.21842  0.44971  0.16427  1.0000
  H   H599      1.0  0.21981  0.48269  0.15091  1.0000
  H   H600      1.0  0.18790  0.44395  0.16269  1.0000
  H   H601      1.0  0.19711  0.50365  0.13960  1.0000
  H   H602      1.0  0.16511  0.46430  0.15116  1.0000
  H   H603      1.0  0.16955  0.49446  0.13969  1.0000
  H   H604      1.0  0.21274  0.44712  0.17462  1.0000
  H   H605      1.0  0.22258  0.43703  0.16100  1.0000
  H   H606      1.0  0.23076  0.45482  0.16250  1.0000
  C   C609      1.0  0.27038  0.62837  0.15293  1.0000
  C   C610      1.0  0.27040  0.63114  0.10701  1.0000
  C   C611      1.0  0.10910  0.54789  0.99426  1.0000
  S   S209      1.0  0.30475  0.60799  0.17541  1.0000
  C   C612      1.0  0.45609  0.40898  0.12796  1.0000
  C   C613      1.0  0.37265  0.32544  0.18070  1.0000
  C   C614      1.0  0.03139  0.59139  0.01873  1.0000
  Fe  Fe101     1.0  0.32147  0.60787  0.15589  1.0000
  H   H607      1.0  0.01850  0.64538  0.02943  1.0000
  H   H608      1.0  0.03912  0.58650  0.01036  1.0000
  C   C615      1.0  0.10891  0.56330  0.99778  1.0000
  H   H609      1.0  0.41557  0.39925  0.14315  1.0000
  H   H610      1.0  0.27661  0.58077  0.12091  1.0000
  C   C616      1.0  0.15030  0.61095  0.08354  1.0000
  H   H611      1.0  0.11538  0.57668  0.08773  1.0000
  H   H612      1.0  0.44795  0.38891  0.10785  1.0000
  C   C617      1.0  0.12447  0.65098  0.09495  1.0000
  S   S210      1.0  0.24116  0.34321  0.20245  1.0000
  C   C618      1.0  0.12285  0.65145  0.08282  1.0000
  C   C619      1.0  0.17974  0.33397  0.22649  1.0000
  N   N54       1.0  0.08027  0.56106  0.98897  1.0000
  C   C620      1.0  0.05624  0.45139  0.99311  1.0000
  C   C621      1.0  0.42765  0.40011  0.13582  1.0000
  C   C622      1.0  0.07038  0.42026  0.99655  1.0000
  C   C623      1.0  0.17734  0.35088  0.21864  1.0000
  C   C624      1.0  0.28664  0.39146  0.18259  1.0000
  C   C625      1.0  0.08007  0.57626  0.99228  1.0000
  C   C626      1.0  0.49009  0.32510  0.15477  1.0000
  H   H613      1.0  0.18806  0.65185  0.17684  1.0000
  C   C627      1.0  0.21051  0.64713  0.15049  1.0000
  C   C628      1.0  0.26595  0.37763  0.20060  1.0000
  C   C629      1.0  0.46970  0.35523  0.12548  1.0000
  C   C630      1.0  0.02037  0.64819  0.01920  1.0000
  H   H614      1.0  0.24761  0.61599  0.13635  1.0000
  C   C631      1.0  0.06586  0.43648  0.00022  1.0000
  H   H615      1.0  0.26575  0.60314  0.15291  1.0000
  C   C632      1.0  0.44047  0.40795  0.13731  1.0000
  N   N55       1.0  0.29653  0.51837  0.16020  1.0000
  C   C633      1.0  0.30148  0.50030  0.16308  1.0000
  C   C634      1.0  0.30792  0.52848  0.16013  1.0000
  C   C635      1.0  0.31851  0.49188  0.16549  1.0000
  C   C636      1.0  0.32510  0.52051  0.16243  1.0000
  C   C637      1.0  0.33044  0.50208  0.16503  1.0000
  C   C638      1.0  0.27864  0.52681  0.15760  1.0000
  H   H616      1.0  0.29228  0.49227  0.16348  1.0000
  H   H617      1.0  0.30401  0.54282  0.15795  1.0000
  H   H618      1.0  0.32237  0.47751  0.16762  1.0000
  H   H619      1.0  0.33434  0.52864  0.16185  1.0000
  H   H620      1.0  0.34381  0.49575  0.16666  1.0000
  H   H621      1.0  0.26842  0.52642  0.16659  1.0000
  H   H622      1.0  0.27796  0.54077  0.15234  1.0000
  H   H623      1.0  0.27533  0.51988  0.15149  1.0000
  N   N56       1.0  0.06530  0.53433  0.05829  1.0000
  C   C639      1.0  0.05530  0.52827  0.05291  1.0000
  C   C640      1.0  0.06044  0.55137  0.05996  1.0000
  C   C641      1.0  0.04028  0.53961  0.04864  1.0000
  C   C642      1.0  0.04544  0.56300  0.05589  1.0000
  C   C643      1.0  0.03539  0.55708  0.05012  1.0000
  C   C644      1.0  0.08090  0.52223  0.06275  1.0000
  H   H624      1.0  0.05915  0.51468  0.05172  1.0000
  H   H625      1.0  0.06831  0.55613  0.06429  1.0000
  H   H626      1.0  0.24641  0.36724  0.21638  1.0000
  H   H627      1.0  0.04173  0.57656  0.05711  1.0000
  H   H628      1.0  0.11985  0.56409  0.00152  1.0000
  H   H629      1.0  0.07649  0.51391  0.07214  1.0000
  H   H630      1.0  0.08837  0.51356  0.05597  1.0000
  H   H631      1.0  0.09056  0.52953  0.06333  1.0000
  C   C645      1.0  0.39833  0.62854  0.15725  1.0000
  C   C646      1.0  0.26477  0.40167  0.21452  1.0000
  N   N57       1.0  0.42095  0.65025  0.11587  1.0000
  S   S211      1.0  0.04008  0.61291  0.04473  1.0000
  H   H632      1.0  0.27359  0.62734  0.18971  1.0000
  H   H633      1.0  0.00372  0.60986  0.04829  1.0000
  H   H634      1.0  0.13563  0.65556  0.06304  1.0000
  C   C647      1.0  0.02545  0.43174  0.02117  1.0000
  C   C648      1.0  0.13159  0.61117  0.06943  1.0000
  H   H635      1.0  0.46462  0.37178  0.15140  1.0000
  H   H636      1.0  0.02148  0.46518  0.00785  1.0000
  C   C649      1.0  0.29962  0.62951  0.17788  1.0000
  C   C650      1.0  0.25405  0.38919  0.21957  1.0000
  H   H637      1.0  0.03606  0.42198  0.01639  1.0000
  H   H638      1.0  0.28509  0.55976  0.10509  1.0000
  N   N58       1.0  0.11397  0.55665  0.07927  1.0000
  C   C651      1.0  0.11097  0.53984  0.08341  1.0000
  C   C652      1.0  0.12467  0.56143  0.06768  1.0000
  C   C653      1.0  0.11885  0.52728  0.07590  1.0000
  C   C654      1.0  0.13280  0.54918  0.05994  1.0000
  C   C655      1.0  0.12983  0.53201  0.06409  1.0000
  C   C656      1.0  0.10533  0.56989  0.08705  1.0000
  H   H639      1.0  0.10275  0.53596  0.09269  1.0000
  H   H640      1.0  0.12682  0.57482  0.06431  1.0000
  H   H641      1.0  0.11656  0.51394  0.07919  1.0000
  H   H642      1.0  0.14094  0.55306  0.05061  1.0000
  H   H643      1.0  0.13580  0.52245  0.05807  1.0000
  H   H644      1.0  0.09466  0.57993  0.08278  1.0000
  H   H645      1.0  0.09933  0.56382  0.09688  1.0000
  C   C657      1.0  0.28578  0.60436  0.11912  1.0000
  S   S212      1.0  0.25024  0.59056  0.10607  1.0000
  C   C658      1.0  0.27481  0.59483  0.11713  1.0000
  H   H646      1.0  0.43937  0.62017  0.13899  1.0000
  H   H647      1.0  0.38349  0.61439  0.15140  1.0000
  Fe  Fe102     1.0  0.22076  0.60246  0.10777  1.0000
  S   S213      1.0  0.20321  0.60421  0.12689  1.0000
  C   C659      1.0  0.00620  0.63392  0.99517  1.0000
  C   C660      1.0  0.29696  0.55863  0.09709  1.0000
  N   N59       1.0  0.30705  0.57206  0.09581  1.0000
  H   H648      1.0  0.18789  0.35421  0.21063  1.0000
  C   C661      1.0  0.14527  0.61538  0.05903  1.0000
  Fe  Fe103     1.0  0.31697  0.61927  0.12870  1.0000
  H   H649      1.0  0.30520  0.54496  0.09905  1.0000
  C   C662      1.0  0.38716  0.62691  0.15002  1.0000
  H   H650      1.0  0.03211  0.44098  0.02303  1.0000
  C   C663      1.0  0.09464  0.62596  0.99406  1.0000
  Fe  Fe104     1.0  0.18914  0.61577  0.09447  1.0000
  S   S214      1.0  0.18299  0.62092  0.07507  1.0000
  C   C664      1.0  0.01221  0.45821  0.00688  1.0000
  H   H651      1.0  0.41929  0.62346  0.12473  1.0000
  C   C665      1.0  0.25040  0.64254  0.13440  1.0000
  S   S215      1.0  0.41985  0.64504  0.16324  1.0000
  H   H652      1.0  0.14333  0.61736  0.04954  1.0000
  H   H653      1.0  0.02802  0.54609  0.01097  1.0000
  C   C666      1.0  0.28371  0.62250  0.11398  1.0000
  H   H654      1.0  0.40942  0.37904  0.13330  1.0000
  H   H655      1.0  0.34855  0.34820  0.16935  1.0000
  S   S216      1.0  0.11195  0.62545  0.00130  1.0000
  S   S217      1.0  0.29763  0.63456  0.11613  1.0000
  C   C667      1.0  0.26330  0.61723  0.14891  1.0000
  S   S218      1.0  0.37119  0.63835  0.12943  1.0000
  C   C668      1.0  0.25930  0.62159  0.10511  1.0000
  C   C669      1.0  0.16120  0.61786  0.06089  1.0000
  N   N60       1.0  0.01238  0.44104  0.01323  1.0000
  H   H656      1.0  0.06866  0.58730  0.99170  1.0000
  C   C670      1.0  0.41692  0.38514  0.12395  1.0000
  C   C671      1.0  0.44559  0.39455  0.11605  1.0000
  S   S219      1.0  0.08697  0.62731  0.03740  1.0000
  C   C672      1.0  0.46214  0.35947  0.13733  1.0000
  H   H657      1.0  0.27808  0.62275  0.16025  1.0000
  C   C673      1.0  0.25771  0.65327  0.13862  1.0000
  C   C674      1.0  0.28285  0.63600  0.18504  1.0000
  C   C675      1.0  0.09466  0.54706  0.98970  1.0000
  C   C676      1.0  0.28470  0.33750  0.17369  1.0000
  S   S220      1.0  0.32299  0.63300  0.14135  1.0000
  H   H658      1.0  0.09424  0.58973  0.99922  1.0000
  H   H659      1.0  0.32465  0.63565  0.16644  1.0000
  Fe  Fe105     1.0  0.43415  0.33493  0.13043  1.0000
  Fe  Fe106     1.0  0.18925  0.63043  0.11691  1.0000
  C   C677      1.0  0.31160  0.64070  0.17188  1.0000
  C   C678      1.0  0.01006  0.52159  0.99941  1.0000
  H   H660      1.0  0.12375  0.60554  0.08978  1.0000
  S   S221      1.0  0.20812  0.62936  0.09800  1.0000
  C   C679      1.0  0.40403  0.64438  0.15508  1.0000
  C   C680      1.0  0.50063  0.32486  0.14260  1.0000
  S   S222      1.0  0.18197  0.65650  0.12332  1.0000
  N   N61       1.0  0.27622  0.39008  0.19563  1.0000
  C   C681      1.0  0.20200  0.64465  0.14185  1.0000
  H   H661      1.0  0.40442  0.63989  0.10867  1.0000
  H   H662      1.0  0.29778  0.39830  0.18091  1.0000
  H   H663      1.0  0.05311  0.46407  0.99565  1.0000
  H   H664      1.0  0.26604  0.36836  0.19517  1.0000
  H   H665      1.0  0.29264  0.37812  0.18041  1.0000
  C   C682      1.0  0.16143  0.36338  0.22119  1.0000
  C   C683      1.0  0.26142  0.33471  0.19283  1.0000
  H   H666      1.0  0.21716  0.63570  0.15650  1.0000
  H   H667      1.0  0.46650  0.41436  0.12923  1.0000
  H   H668      1.0  0.01878  0.42475  0.03047  1.0000
  C   C684      1.0  0.06521  0.41880  0.98599  1.0000
  H   H669      1.0  0.24251  0.64826  0.12720  1.0000
  H   H670      1.0  0.26874  0.64520  0.10303  1.0000
  C   C685      1.0  0.01302  0.59167  0.02256  1.0000
  H   H671      1.0  0.24494  0.38925  0.22871  1.0000
  C   C686      1.0  0.42520  0.63445  0.12407  1.0000
  H   H672      1.0  0.11402  0.64747  0.10308  1.0000
  C   C687      1.0  0.44348  0.64680  0.13188  1.0000
  C   C688      1.0  0.13652  0.65569  0.07247  1.0000
  C   C689      1.0  0.49500  0.36798  0.12386  1.0000
  H   H673      1.0  0.37682  0.33759  0.17527  1.0000
  H   H674      1.0  0.49201  0.35662  0.10947  1.0000
  H   H675      1.0  0.12013  0.53651  0.99532  1.0000
  H   H676      1.0  0.19892  0.63753  0.19714  1.0000
  H   H677      1.0  0.00160  0.45348  0.04459  1.0000
  H   H678      1.0  0.03583  0.52874  0.99422  1.0000
  H   H679      1.0  0.00240  0.63233  0.01954  1.0000
  H   H680      1.0  0.34458  0.65611  0.17554  1.0000
  H   H681      1.0  0.28747  0.65084  0.15513  1.0000
  H   H682      1.0  0.01336  0.51383  0.99226  1.0000
  C   C690      1.0  0.01143  0.64069  0.01357  1.0000
  H   H683      1.0  0.37624  0.65369  0.17590  1.0000
  C   C691      1.0  0.20310  0.65018  0.19564  1.0000
  H   H684      1.0  0.11125  0.64809  0.08143  1.0000
  S   S223      1.0  0.00287  0.58392  0.01370  1.0000
  C   C692      1.0  0.02267  0.52993  0.00052  1.0000
  C   C693      1.0  0.00304  0.59828  0.03326  1.0000
  S   S224      1.0  0.49693  0.38487  0.14148  1.0000
  H   H685      1.0  0.21646  0.64955  0.18906  1.0000
  C   C694      1.0  0.14775  0.35877  0.23154  1.0000
  H   H686      1.0  0.01299  0.61966  0.99677  1.0000
  H   H687      1.0  0.49315  0.33181  0.16083  1.0000
  C   C695      1.0  0.13983  0.65474  0.09656  1.0000
  H   H688      1.0  0.34913  0.33045  0.16220  1.0000
  H   H689      1.0  0.14102  0.65430  0.10603  1.0000
  H   H690      1.0  0.00764  0.63899  0.98480  1.0000
  C   C696      1.0  0.02575  0.65407  0.99313  1.0000
  C   C697      1.0  0.06483  0.55999  0.98467  1.0000
  H   H691      1.0  0.13534  0.36836  0.23349  1.0000
  C   C698      1.0  0.00157  0.54052  0.01824  1.0000
  H   H692      1.0  0.19201  0.32442  0.22426  1.0000
  C   C699      1.0  0.40877  0.65236  0.10757  1.0000
  H   H693      1.0  0.41540  0.65650  0.09752  1.0000
  C   C700      1.0  0.09372  0.35618  0.38813  1.0000
  H   H694      1.0  0.01501  0.56540  0.43826  1.0000
  Fe  Fe107     1.0  0.06202  0.43568  0.44416  1.0000
  S   S225      1.0  0.04060  0.45976  0.44773  1.0000
  S   S226      1.0  0.08076  0.41983  0.45692  1.0000
  Fe  Fe108     1.0  0.05316  0.43551  0.41945  1.0000
  S   S227      1.0  0.03158  0.46008  0.42083  1.0000
  S   S228      1.0  0.05712  0.42491  0.40184  1.0000
  Fe  Fe109     1.0  0.05046  0.47043  0.42708  1.0000
  S   S229      1.0  0.05058  0.49927  0.41888  1.0000
  Fe  Fe110     1.0  0.02375  0.44724  0.44115  1.0000
  C   C701      1.0  0.15037  0.34195  0.23964  1.0000
  S   S230      1.0  0.07307  0.44717  0.42376  1.0000
  S   S231      1.0  0.04424  0.42191  0.43960  1.0000
  Fe  Fe111     1.0  0.04210  0.60374  0.45466  1.0000
  S   S232      1.0  0.07070  0.59651  0.44443  1.0000
  C   C702      1.0  0.07284  0.62942  0.47847  1.0000
  Fe  Fe112     1.0  0.02729  0.59797  0.43412  1.0000
  S   S233      1.0  0.05460  0.59019  0.42222  1.0000
  H   H695      1.0  0.08621  0.39468  0.35030  1.0000
  Fe  Fe113     1.0  0.06194  0.57447  0.44057  1.0000
  S   S234      1.0  0.07884  0.54667  0.44242  1.0000
  Fe  Fe114     1.0  0.06065  0.61283  0.42706  1.0000
  S   S235      1.0  0.07456  0.63261  0.41215  1.0000
  S   S236      1.0  0.03394  0.58038  0.45221  1.0000
  S   S237      1.0  0.03274  0.62186  0.43763  1.0000
  H   H696      1.0  0.01082  0.38989  0.40181  1.0000
  H   H697      1.0  0.15581  0.34489  0.27142  1.0000
  H   H698      1.0  0.08483  0.33724  0.33239  1.0000
  H   H699      1.0  0.09095  0.41615  0.38010  1.0000
  H   H700      1.0  0.10409  0.49120  0.46990  1.0000
  C   C703      1.0  0.08351  0.42861  0.46880  1.0000
  H   H701      1.0  0.04089  0.52950  0.47915  1.0000
  C   C704      1.0  0.09072  0.49458  0.46804  1.0000
  H   H702      1.0  0.12073  0.38445  0.26320  1.0000
  C   C705      1.0  0.09108  0.40493  0.37642  1.0000
  S   S238      1.0  0.03453  0.36231  0.36844  1.0000
  H   H703      1.0  0.01191  0.54053  0.39645  1.0000
  Fe  Fe115     1.0  0.04744  0.34248  0.38333  1.0000
  S   S239      1.0  0.04786  0.34900  0.40160  1.0000
  H   H704      1.0  0.05734  0.44593  0.47154  1.0000
  C   C706      1.0  0.09355  0.34593  0.32650  1.0000
  H   H705      1.0  0.13995  0.33858  0.24776  1.0000
  H   H706      1.0  0.10795  0.34895  0.38653  1.0000
  N   N62       1.0  0.14822  0.37050  0.26007  1.0000
  H   H707      1.0  0.08073  0.54155  0.39615  1.0000
  H   H708      1.0  0.01545  0.43000  0.42875  1.0000
  H   H709      1.0  0.19502  0.36033  0.23828  1.0000
  S   S240      1.0  0.13665  0.34512  0.29675  1.0000
  H   H710      1.0  0.03096  0.52281  0.39324  1.0000
  C   C707      1.0  0.06261  0.62294  0.47301  1.0000
  C   C708      1.0  0.10328  0.57321  0.48289  1.0000
  Fe  Fe116     1.0  0.02356  0.34023  0.36689  1.0000
  N   N63       1.0  0.06229  0.51502  0.46749  1.0000
  C   C709      1.0  0.08474  0.48262  0.46409  1.0000
  C   C710      1.0  0.15984  0.35473  0.26312  1.0000
  H   H711      1.0  0.08883  0.35694  0.39826  1.0000
  H   H712      1.0  0.08400  0.52011  0.47274  1.0000
  H   H713      1.0  0.08536  0.34846  0.38632  1.0000
  H   H714      1.0  0.10021  0.38733  0.32248  1.0000
  H   H715      1.0  0.08942  0.36502  0.36428  1.0000
  C   C711      1.0  0.00297  0.42576  0.43224  1.0000
  C   C712      1.0  0.05497  0.65335  0.44027  1.0000
  H   H716      1.0  0.09420  0.38624  0.39378  1.0000
  C   C713      1.0  0.05013  0.53177  0.46976  1.0000
  H   H717      1.0  0.01284  0.38839  0.38577  1.0000
  H   H718      1.0  0.18568  0.33799  0.25758  1.0000
  C   C714      1.0  0.09969  0.42225  0.47287  1.0000
  C   C715      1.0  0.15338  0.38302  0.24966  1.0000
  C   C716      1.0  0.18213  0.36340  0.24464  1.0000
  C   C717      1.0  0.08993  0.37615  0.36779  1.0000
  C   C718      1.0  0.06225  0.64359  0.40032  1.0000
  H   H719      1.0  0.09348  0.46994  0.46277  1.0000
  C   C719      1.0  0.02458  0.53262  0.39933  1.0000
  S   S241      1.0  0.07264  0.33285  0.36988  1.0000
  H   H720      1.0  0.06030  0.52368  0.39544  1.0000
  C   C720      1.0  0.04522  0.64068  0.40153  1.0000
  C   C721      1.0  0.07927  0.51086  0.46966  1.0000
  C   C722      1.0  0.09285  0.38793  0.38415  1.0000
  H   H721      1.0  0.12493  0.37713  0.30549  1.0000
  H   H722      1.0  0.03986  0.63108  0.40943  1.0000
  C   C723      1.0  0.05800  0.51128  0.42665  1.0000
  C   C724      1.0  0.04841  0.52850  0.42742  1.0000
  C   C725      1.0  0.05476  0.53934  0.43226  1.0000
  C   C726      1.0  0.07094  0.53306  0.43628  1.0000
  C   C727      1.0  0.08065  0.51578  0.43557  1.0000
  C   C728      1.0  0.07411  0.50481  0.43084  1.0000
  S   S242      1.0  0.03212  0.61216  0.47336  1.0000
  H   H723      1.0  0.04721  0.55262  0.43275  1.0000
  H   H724      1.0  0.09326  0.51091  0.43860  1.0000
  H   H725      1.0  0.08179  0.49162  0.43006  1.0000
  C   C729      1.0  0.05222  0.40446  0.40247  1.0000
  C   C730      1.0  0.05037  0.40103  0.39135  1.0000
  C   C731      1.0  0.04888  0.38415  0.39100  1.0000
  C   C732      1.0  0.04879  0.37063  0.40187  1.0000
  C   C733      1.0  0.04990  0.37423  0.41313  1.0000
  C   C734      1.0  0.05166  0.39107  0.41343  1.0000
  H   H726      1.0  0.05067  0.41136  0.38285  1.0000
  H   H727      1.0  0.04810  0.38157  0.38225  1.0000
  H   H728      1.0  0.04978  0.36386  0.42160  1.0000
  H   H729      1.0  0.05308  0.39354  0.42206  1.0000
  H   H730      1.0  0.03528  0.58406  0.40342  1.0000
  C   C735      1.0  0.05623  0.50325  0.46379  1.0000
  C   C736      1.0  0.05483  0.53717  0.39671  1.0000
  H   H731      1.0  0.01102  0.40670  0.42046  1.0000
  C   C737      1.0  0.16651  0.32960  0.23721  1.0000
  C   C738      1.0  0.10269  0.42876  0.48225  1.0000
  S   S243      1.0  0.04671  0.33136  0.35167  1.0000
  H   H732      1.0  0.06795  0.61994  0.46373  1.0000
  C   C739      1.0  0.11884  0.35150  0.30906  1.0000
  C   C740      1.0  0.03492  0.65035  0.39256  1.0000
  C   C741      1.0  0.11618  0.36840  0.31128  1.0000
  H   H733      1.0  0.04283  0.50658  0.46199  1.0000
  N   N64       1.0  0.09194  0.37388  0.37987  1.0000
  C   C742      1.0  0.08815  0.39295  0.35979  1.0000
  H   H734      1.0  0.11006  0.41236  0.46861  1.0000
  C   C743      1.0  0.09091  0.36297  0.32859  1.0000
  H   H735      1.0  0.03614  0.53357  0.42405  1.0000
  H   H736      1.0  0.08603  0.63149  0.47333  1.0000
  S   S244      1.0  0.00284  0.60200  0.42638  1.0000
  C   C744      1.0  0.07003  0.44129  0.47444  1.0000
  C   C745      1.0  0.10746  0.34024  0.31663  1.0000
  C   C746      1.0  0.06646  0.54719  0.39716  1.0000
  C   C747      1.0  0.06739  0.48694  0.46195  1.0000
  C   C748      1.0  0.00368  0.38795  0.39521  1.0000
  N   N65       1.0  0.03672  0.54391  0.39856  1.0000
  H   H737      1.0  0.05769  0.54170  0.46949  1.0000
  C   C749      1.0  0.17689  0.35086  0.25541  1.0000
  C   C750      1.0  0.10221  0.37416  0.32093  1.0000
  H   H738      1.0  0.02108  0.52521  0.40925  1.0000
  H   H739      1.0  0.12476  0.36204  0.27185  1.0000
  H   H740      1.0  0.02169  0.64811  0.39362  1.0000
  S   S245      1.0  0.07366  0.37097  0.34061  1.0000
  H   H741      1.0  0.08692  0.42058  0.35817  1.0000
  H   H742      1.0  0.06831  0.57197  0.40010  1.0000
  H   H743      1.0  0.01542  0.56580  0.40250  1.0000
  C   C751      1.0  0.08864  0.40742  0.36418  1.0000
  C   C752      1.0  0.04098  0.57099  0.40131  1.0000
  H   H744      1.0  0.01129  0.36204  0.41502  1.0000
  H   H745      1.0  0.13135  0.37852  0.27661  1.0000
  Fe  Fe117     1.0  0.05896  0.35142  0.35485  1.0000
  C   C753      1.0  0.05946  0.56420  0.39948  1.0000
  C   C754      1.0  0.13039  0.37416  0.26829  1.0000
  H   H746      1.0  0.04229  0.53766  0.46223  1.0000
  C   C755      1.0  0.02976  0.56059  0.40081  1.0000
  C   C756      1.0  0.17040  0.37966  0.24180  1.0000
  H   H747      1.0  0.06270  0.47777  0.45876  1.0000
  C   C757      1.0  0.06911  0.65595  0.38992  1.0000
  C   C758      1.0  0.04547  0.62042  0.47961  1.0000
  H   H748      1.0  0.11438  0.57297  0.47439  1.0000
  H   H749      1.0  0.00962  0.40790  0.46575  1.0000
  H   H750      1.0  0.14418  0.39549  0.24714  1.0000
  H   H751      1.0  0.01012  0.38506  0.45468  1.0000
  C   C759      1.0  0.00584  0.56599  0.43254  1.0000
  H   H752      1.0  0.04318  0.65000  0.44774  1.0000
  H   H753      1.0  0.06391  0.64080  0.43799  1.0000
  H   H754      1.0  0.09148  0.58359  0.48040  1.0000
  H   H755      1.0  0.00742  0.53778  0.43741  1.0000
  H   H756      1.0  0.00357  0.64019  0.35733  1.0000
  H   H757      1.0  0.10946  0.32717  0.31493  1.0000
  C   C760      1.0  0.00162  0.55039  0.43201  1.0000
  C   C761      1.0  0.00284  0.35919  0.41002  1.0000
  C   C762      1.0  0.07293  0.44763  0.48409  1.0000
  Fe  Fe118     1.0  0.05822  0.47659  0.53500  1.0000
  S   S246      1.0  0.04184  0.50338  0.52793  1.0000
  S   S247      1.0  0.05836  0.46550  0.55573  1.0000
  Fe  Fe119     1.0  0.07357  0.46955  0.50876  1.0000
  S   S248      1.0  0.05843  0.49523  0.49925  1.0000
  S   S249      1.0  0.09439  0.44941  0.49929  1.0000
  Fe  Fe120     1.0  0.06596  0.50698  0.51245  1.0000
  S   S250      1.0  0.07238  0.53379  0.50404  1.0000
  Fe  Fe121     1.0  0.03550  0.48985  0.51530  1.0000
  C   C763      1.0  0.20372  0.34554  0.72493  1.0000
  S   S251      1.0  0.08326  0.48169  0.52071  1.0000
  S   S252      1.0  0.04976  0.46271  0.52360  1.0000
  Fe  Fe122     1.0  0.07779  0.59929  0.53906  1.0000
  S   S253      1.0  0.09443  0.61972  0.53009  1.0000
  S   S254      1.0  0.08891  0.56988  0.54166  1.0000
  Fe  Fe123     1.0  0.04328  0.62695  0.54252  1.0000
  C   C764      1.0  0.03858  0.62459  0.49157  1.0000
  N   N66       1.0  0.02398  0.57347  0.50958  1.0000
  Fe  Fe124     1.0  0.07710  0.63463  0.54505  1.0000
  H   H758      1.0  0.14419  0.35062  0.71123  1.0000
  S   S255      1.0  0.05710  0.61179  0.52745  1.0000
  S   S256      1.0  0.06245  0.61266  0.55505  1.0000
  Fe  Fe125     1.0  0.06830  0.37094  0.59673  1.0000
  S   S257      1.0  0.04841  0.38047  0.61320  1.0000
  S   S258      1.0  0.06474  0.38301  0.57669  1.0000
  Fe  Fe126     1.0  0.08869  0.34033  0.61361  1.0000
  S   S259      1.0  0.07022  0.34718  0.63134  1.0000
  Fe  Fe127     1.0  0.04818  0.35177  0.62124  1.0000
  Fe  Fe128     1.0  0.07241  0.37492  0.62171  1.0000
  S   S260      1.0  0.07612  0.39346  0.63202  1.0000
  S   S261      1.0  0.06645  0.34236  0.60423  1.0000
  S   S262      1.0  0.09252  0.36794  0.60449  1.0000
  C   C765      1.0  0.11688  0.37205  0.65730  1.0000
  C   C766      1.0  0.11659  0.56269  0.50163  1.0000
  C   C767      1.0  0.07072  0.34875  0.67792  1.0000
  H   H759      1.0  0.09706  0.38891  0.54535  1.0000
  C   C768      1.0  0.05264  0.35080  0.66324  1.0000
  H   H760      1.0  0.00851  0.36530  0.61039  1.0000
  Fe  Fe129     1.0  0.13224  0.33773  0.68014  1.0000
  H   H761      1.0  0.09162  0.36623  0.68202  1.0000
  H   H762      1.0  0.00641  0.52313  0.55825  1.0000
  H   H763      1.0  0.11821  0.39931  0.65431  1.0000
  H   H764      1.0  0.12656  0.55471  0.51887  1.0000
  H   H765      1.0  0.02035  0.43600  0.50709  1.0000
  C   C769      1.0  0.09835  0.40221  0.54477  1.0000
  N   N67       1.0  0.09583  0.41529  0.53429  1.0000
  H   H766      1.0  0.10318  0.39569  0.56367  1.0000
  H   H767      1.0  0.15255  0.37502  0.71644  1.0000
  H   H768      1.0  0.02079  0.46955  0.55315  1.0000
  S   S263      1.0  0.07958  0.63984  0.49781  1.0000
  H   H769      1.0  0.04457  0.37708  0.65233  1.0000
  C   C770      1.0  0.14783  0.34868  0.72019  1.0000
  H   H770      1.0  0.03804  0.57390  0.52324  1.0000
  C   C771      1.0  0.09712  0.43211  0.53376  1.0000
  H   H771      1.0  0.10491  0.42638  0.56299  1.0000
  C   C772      1.0  0.01811  0.54658  0.50775  1.0000
  C   C773      1.0  0.00378  0.51256  0.55518  1.0000
  H   H772      1.0  0.19656  0.35393  0.70674  1.0000
  H   H773      1.0  0.12265  0.58555  0.52094  1.0000
  C   C774      1.0  0.01428  0.38706  0.57971  1.0000
  S   S264      1.0  0.13171  0.36478  0.66765  1.0000
  H   H774      1.0  0.06255  0.45734  0.48850  1.0000
  C   C775      1.0  0.02584  0.55549  0.51325  1.0000
  C   C776      1.0  0.03143  0.58297  0.51564  1.0000
  H   H775      1.0  0.03558  0.32899  0.60962  1.0000
  C   C777      1.0  0.02275  0.59346  0.54960  1.0000
  C   C778      1.0  0.19231  0.32773  0.71614  1.0000
  C   C779      1.0  0.19762  0.34335  0.71506  1.0000
  H   H776      1.0  0.05949  0.39093  0.66243  1.0000
  C   C780      1.0  0.00878  0.55616  0.49828  1.0000
  H   H777      1.0  0.03299  0.54798  0.52066  1.0000
  H   H778      1.0  0.15988  0.35662  0.64281  1.0000
  H   H779      1.0  0.07971  0.42116  0.52077  1.0000
  H   H780      1.0  0.02519  0.62310  0.49660  1.0000
  H   H781      1.0  0.11775  0.54915  0.50106  1.0000
  H   H782      1.0  0.10074  0.44987  0.54377  1.0000
  H   H783      1.0  0.02625  0.49302  0.56121  1.0000
  C   C781      1.0  0.09266  0.38478  0.64106  1.0000
  C   C782      1.0  0.09754  0.36657  0.64599  1.0000
  C   C783      1.0  0.10930  0.36025  0.65437  1.0000
  H   H784      1.0  0.03087  0.37905  0.59341  1.0000
  C   C784      1.0  0.11242  0.39013  0.65205  1.0000
  C   C785      1.0  0.10009  0.39651  0.64416  1.0000
  H   H785      1.0  0.09175  0.35743  0.64375  1.0000
  H   H786      1.0  0.07822  0.34067  0.68501  1.0000
  H   H787      1.0  0.09632  0.41059  0.64042  1.0000
  H   H788      1.0  0.18703  0.32610  0.70868  1.0000
  C   C786      1.0  0.13864  0.33276  0.63326  1.0000
  H   H789      1.0  0.13770  0.36076  0.62977  1.0000
  S   S265      1.0  0.02259  0.34327  0.63241  1.0000
  C   C787      1.0  0.06227  0.34057  0.67241  1.0000
  C   C788      1.0  0.00314  0.57819  0.54553  1.0000
  C   C789      1.0  0.14387  0.34753  0.63421  1.0000
  C   C790      1.0  0.01488  0.46310  0.50897  1.0000
  C   C791      1.0  0.09180  0.41148  0.52347  1.0000
  C   C792      1.0  0.14788  0.33240  0.72877  1.0000
  H   H790      1.0  0.09519  0.44242  0.52544  1.0000
  H   H791      1.0  0.00241  0.54954  0.49407  1.0000
  H   H792      1.0  0.09896  0.56035  0.48577  1.0000
  S   S266      1.0  0.11238  0.33287  0.69851  1.0000
  C   C793      1.0  0.00538  0.37135  0.60117  1.0000
  S   S267      1.0  0.05655  0.64998  0.53336  1.0000
  H   H793      1.0  0.03010  0.56609  0.54810  1.0000
  H   H794      1.0  0.03565  0.59335  0.55114  1.0000
  C   C794      1.0  0.15261  0.36248  0.72315  1.0000
  C   C795      1.0  0.01809  0.37917  0.59162  1.0000
  C   C796      1.0  0.07557  0.54365  0.51511  1.0000
  C   C797      1.0  0.07457  0.56188  0.51211  1.0000
  C   C798      1.0  0.07809  0.57003  0.52042  1.0000
  C   C799      1.0  0.08276  0.55999  0.53178  1.0000
  C   C800      1.0  0.08361  0.54171  0.53485  1.0000
  C   C801      1.0  0.07983  0.53356  0.52658  1.0000
  H   H795      1.0  0.07129  0.56971  0.50324  1.0000
  H   H796      1.0  0.07818  0.58391  0.51767  1.0000
  H   H797      1.0  0.08728  0.53385  0.54360  1.0000
  H   H798      1.0  0.08064  0.51942  0.52896  1.0000
  C   C802      1.0  0.02283  0.32568  0.61448  1.0000
  C   C803      1.0  0.06007  0.37680  0.66548  1.0000
  Fe  Fe130     1.0  0.07257  0.63310  0.51921  1.0000
  H   H799      1.0  0.02486  0.64359  0.56563  1.0000
  C   C804      1.0  0.05831  0.44284  0.56204  1.0000
  C   C805      1.0  0.05555  0.43230  0.55501  1.0000
  C   C806      1.0  0.05682  0.41407  0.55985  1.0000
  C   C807      1.0  0.06097  0.40620  0.57173  1.0000
  C   C808      1.0  0.06315  0.41677  0.57899  1.0000
  C   C809      1.0  0.06176  0.43508  0.57416  1.0000
  H   H800      1.0  0.05273  0.43805  0.54576  1.0000
  H   H801      1.0  0.05509  0.40596  0.55420  1.0000
  H   H802      1.0  0.06634  0.41081  0.58819  1.0000
  H   H803      1.0  0.06382  0.44316  0.57970  1.0000
  H   H804      1.0  0.01340  0.59714  0.49739  1.0000
  H   H805      1.0  0.11260  0.34628  0.65842  1.0000
  N   N68       1.0  0.06973  0.36662  0.67432  1.0000
  C   C810      1.0  0.01540  0.65400  0.59401  1.0000
  H   H806      1.0  0.04334  0.63407  0.50625  1.0000
  C   C811      1.0  0.07856  0.37492  0.68031  1.0000
  H   H807      1.0  0.01918  0.53240  0.51090  1.0000
  C   C812      1.0  0.00933  0.60898  0.54912  1.0000
  C   C813      1.0  0.11248  0.59714  0.50390  1.0000
  H   H808      1.0  0.06984  0.37753  0.68945  1.0000
  C   C814      1.0  0.10290  0.42314  0.55480  1.0000
  H   H809      1.0  0.02881  0.46401  0.50592  1.0000
  C   C815      1.0  0.04891  0.63072  0.49710  1.0000
  C   C816      1.0  0.01805  0.64442  0.57528  1.0000
  H   H810      1.0  0.08910  0.39802  0.52554  1.0000
  S   S268      1.0  0.08691  0.64346  0.55905  1.0000
  H   H811      1.0  0.20745  0.35782  0.72433  1.0000
  H   H812      1.0  0.10323  0.41266  0.51519  1.0000
  C   C817      1.0  0.01958  0.57798  0.54795  1.0000
  C   C818      1.0  0.05156  0.36903  0.65972  1.0000
  C   C819      1.0  0.15638  0.34519  0.64148  1.0000
  H   H813      1.0  0.06332  0.32634  0.67520  1.0000
  C   C820      1.0  0.10196  0.40593  0.55517  1.0000
  H   H814      1.0  0.08168  0.38756  0.67411  1.0000
  C   C821      1.0  0.10053  0.43633  0.54402  1.0000
  C   C822      1.0  0.11946  0.58306  0.51288  1.0000
  C   C823      1.0  0.00744  0.57440  0.49437  1.0000
  S   S269      1.0  0.01384  0.62893  0.54953  1.0000
  H   H815      1.0  0.17356  0.32617  0.65312  1.0000
  H   H816      1.0  0.02056  0.59292  0.52003  1.0000
  H   H817      1.0  0.02416  0.39310  0.57227  1.0000
  H   H818      1.0  0.04619  0.34460  0.65878  1.0000
  C   C824      1.0  0.10738  0.59363  0.49404  1.0000
  H   H819      1.0  0.12850  0.33471  0.62789  1.0000
  C   C825      1.0  0.01010  0.44730  0.50955  1.0000
  C   C826      1.0  0.12172  0.56572  0.51169  1.0000
  S   S270      1.0  0.00747  0.49699  0.51239  1.0000
  H   H820      1.0  0.11542  0.42393  0.48513  1.0000
  C   C827      1.0  0.01496  0.58290  0.50026  1.0000
  C   C828      1.0  0.01491  0.49571  0.55680  1.0000
  C   C829      1.0  0.01369  0.33107  0.62578  1.0000
  C   C830      1.0  0.06616  0.63294  0.49066  1.0000
  H   H821      1.0  0.04151  0.58980  0.50855  1.0000
  N   N69       1.0  0.10912  0.57658  0.49315  1.0000
  C   C831      1.0  0.01183  0.48252  0.55227  1.0000
  C   C832      1.0  0.08942  0.44148  0.48785  1.0000
  H   H822      1.0  0.04975  0.65278  0.56956  1.0000
  N   N70       1.0  0.02411  0.65270  0.58190  1.0000
  H   H823      1.0  0.11056  0.61071  0.50472  1.0000
  H   H824      1.0  0.10164  0.60469  0.48729  1.0000
  C   C833      1.0  0.16398  0.32814  0.64732  1.0000
  C   C834      1.0  0.15778  0.36004  0.73460  1.0000
  C   C835      1.0  0.00297  0.63700  0.58082  1.0000
  C   C836      1.0  0.00163  0.47766  0.51221  1.0000
  Fe  Fe131     1.0  0.03117  0.48226  0.93142  1.0000
  C   C837      1.0  0.23743  0.63752  0.80883  1.0000
  S   S271      1.0  0.04819  0.49415  0.91315  1.0000
  Fe  Fe132     1.0  0.03214  0.45477  0.95580  1.0000
  H   H825      1.0  0.47542  0.63637  0.84538  1.0000
  S   S272      1.0  0.04932  0.43094  0.96576  1.0000
  N   N71       1.0  0.35307  0.33842  0.76456  1.0000
  H   H826      1.0  0.22847  0.41653  0.81152  1.0000
  H   H827      1.0  0.11290  0.37114  0.76912  1.0000
  H   H828      1.0  0.39630  0.35159  0.85046  1.0000
  S   S273      1.0  0.02471  0.45523  0.93779  1.0000
  S   S274      1.0  0.04082  0.48053  0.94876  1.0000
  Fe  Fe133     1.0  0.06308  0.57788  0.95012  1.0000
  C   C838      1.0  0.18374  0.50970  0.86275  1.0000
  S   S275      1.0  0.07078  0.54824  0.95551  1.0000
  Fe  Fe134     1.0  0.05552  0.61167  0.95958  1.0000
  C   C839      1.0  0.12932  0.42153  0.77280  1.0000
  Fe  Fe135     1.0  0.07556  0.61003  0.93258  1.0000
  H   H829      1.0  0.24505  0.51611  0.81588  1.0000
  H   H830      1.0  0.33622  0.39479  0.78217  1.0000
  S   S276      1.0  0.08094  0.59421  0.95151  1.0000
  S   S277      1.0  0.15534  0.37537  0.80049  1.0000
  H   H831      1.0  0.13405  0.63745  0.81742  1.0000
  H   H832      1.0  0.22706  0.51431  0.85403  1.0000
  Fe  Fe136     1.0  0.39513  0.32764  0.79378  1.0000
  S   S278      1.0  0.17588  0.39398  0.76456  1.0000
  H   H833      1.0  0.17363  0.47395  0.85955  1.0000
  Fe  Fe137     1.0  0.37536  0.34703  0.81467  1.0000
  S   S279      1.0  0.36006  0.37234  0.82085  1.0000
  H   H834      1.0  0.22986  0.52735  0.82783  1.0000
  S   S280      1.0  0.40350  0.34460  0.80312  1.0000
  Fe  Fe138     1.0  0.26679  0.48074  0.79766  1.0000
  S   S281      1.0  0.28512  0.45941  0.80855  1.0000
  S   S282      1.0  0.27007  0.50907  0.79071  1.0000
  Fe  Fe139     1.0  0.24314  0.45583  0.79868  1.0000
  S   S283      1.0  0.25940  0.43254  0.80982  1.0000
  Fe  Fe140     1.0  0.25965  0.45196  0.82073  1.0000
  S   S284      1.0  0.25498  0.44621  0.84179  1.0000
  Fe  Fe141     1.0  0.28322  0.44214  0.79654  1.0000
  S   S285      1.0  0.30705  0.42412  0.78692  1.0000
  S   S286      1.0  0.24138  0.47460  0.81077  1.0000
  S   S287      1.0  0.26689  0.46417  0.78443  1.0000
  Fe  Fe142     1.0  0.18444  0.61519  0.83836  1.0000
  S   S288      1.0  0.17154  0.61330  0.85892  1.0000
  Fe  Fe143     1.0  0.18679  0.57613  0.84029  1.0000
  S   S289      1.0  0.17416  0.57126  0.86098  1.0000
  S   S290      1.0  0.19667  0.55225  0.83145  1.0000
  Fe  Fe144     1.0  0.15500  0.59699  0.85596  1.0000
  S   S291      1.0  0.12551  0.59930  0.86465  1.0000
  Fe  Fe145     1.0  0.19177  0.58799  0.86206  1.0000
  S   S292      1.0  0.20559  0.58283  0.87796  1.0000
  S   S293      1.0  0.16612  0.60077  0.83495  1.0000
  S   S294      1.0  0.20615  0.59090  0.84179  1.0000
  Fe  Fe146     1.0  0.15625  0.44729  0.85772  1.0000
  S   S295      1.0  0.16057  0.46540  0.83866  1.0000
  S   S296      1.0  0.17748  0.43363  0.86889  1.0000
  Fe  Fe147     1.0  0.11616  0.45391  0.86031  1.0000
  S   S297      1.0  0.11690  0.47257  0.84132  1.0000
  S   S298      1.0  0.09141  0.44592  0.87378  1.0000
  Fe  Fe148     1.0  0.14136  0.45271  0.83461  1.0000
  S   S299      1.0  0.14844  0.44829  0.81474  1.0000
  Fe  Fe149     1.0  0.13606  0.48353  0.84691  1.0000
  S   S300      1.0  0.13293  0.51292  0.84383  1.0000
  S   S301      1.0  0.13915  0.43294  0.85307  1.0000
  S   S302      1.0  0.13321  0.46658  0.86647  1.0000
  H   H835      1.0  0.15611  0.50530  0.81874  1.0000
  Fe  Fe150     1.0  0.28820  0.59996  0.80449  1.0000
  S   S303      1.0  0.29701  0.61595  0.81423  1.0000
  S   S304      1.0  0.26815  0.61104  0.79218  1.0000
  Fe  Fe151     1.0  0.30858  0.56507  0.81678  1.0000
  S   S305      1.0  0.31980  0.57762  0.82763  1.0000
  S   S306      1.0  0.31243  0.53553  0.81967  1.0000
  Fe  Fe152     1.0  0.29210  0.59444  0.83143  1.0000
  S   S307      1.0  0.28049  0.60220  0.85026  1.0000
  Fe  Fe153     1.0  0.32407  0.59821  0.80973  1.0000
  S   S308      1.0  0.34930  0.60907  0.80326  1.0000
  S   S309      1.0  0.28049  0.58022  0.82213  1.0000
  S   S310      1.0  0.31567  0.58393  0.79834  1.0000
  H   H836      1.0  0.08246  0.47039  0.92384  1.0000
  H   H837      1.0  0.15478  0.47627  0.78571  1.0000
  S   S311      1.0  0.20373  0.36335  0.78092  1.0000
  H   H838      1.0  0.00698  0.54923  0.96250  1.0000
  C   C840      1.0  0.36971  0.64027  0.81591  1.0000
  C   C841      1.0  0.36757  0.62900  0.80910  1.0000
  C   C842      1.0  0.35131  0.62363  0.81171  1.0000
  C   C843      1.0  0.33706  0.62985  0.82102  1.0000
  C   C844      1.0  0.45939  0.35152  0.81010  1.0000
  Fe  Fe154     1.0  0.20558  0.38447  0.76319  1.0000
  H   H839      1.0  0.37865  0.62417  0.80193  1.0000
  H   H840      1.0  0.32448  0.62578  0.82311  1.0000
  S   S312      1.0  0.17386  0.35189  0.77128  1.0000
  H   H841      1.0  0.19191  0.43836  0.79008  1.0000
  C   C845      1.0  0.15769  0.34380  0.74323  1.0000
  C   C846      1.0  0.22728  0.58655  0.87118  1.0000
  C   C847      1.0  0.23767  0.57918  0.86089  1.0000
  C   C848      1.0  0.25440  0.58334  0.85476  1.0000
  C   C849      1.0  0.26059  0.59521  0.85870  1.0000
  C   C850      1.0  0.25043  0.60217  0.86924  1.0000
  C   C851      1.0  0.23385  0.59774  0.87553  1.0000
  H   H842      1.0  0.23285  0.57017  0.85770  1.0000
  H   H843      1.0  0.26242  0.57738  0.84700  1.0000
  H   H844      1.0  0.25520  0.61126  0.87239  1.0000
  H   H845      1.0  0.22585  0.60347  0.88348  1.0000
  C   C852      1.0  0.17921  0.54109  0.83460  1.0000
  C   C853      1.0  0.16159  0.54948  0.83909  1.0000
  C   C854      1.0  0.14761  0.54061  0.84186  1.0000
  C   C855      1.0  0.15117  0.52311  0.84051  1.0000
  C   C856      1.0  0.16889  0.51445  0.83633  1.0000
  C   C857      1.0  0.18288  0.52357  0.83312  1.0000
  H   H846      1.0  0.15862  0.56296  0.84027  1.0000
  H   H847      1.0  0.13394  0.54736  0.84509  1.0000
  H   H848      1.0  0.17180  0.50083  0.83549  1.0000
  H   H849      1.0  0.19656  0.51695  0.82981  1.0000
  C   C858      1.0  0.28119  0.51657  0.79915  1.0000
  C   C859      1.0  0.28705  0.50560  0.80988  1.0000
  C   C860      1.0  0.29658  0.51156  0.81614  1.0000
  C   C861      1.0  0.29989  0.52868  0.81192  1.0000
  C   C862      1.0  0.29355  0.53987  0.80141  1.0000
  C   C863      1.0  0.28442  0.53373  0.79495  1.0000
  H   H850      1.0  0.28439  0.49247  0.81334  1.0000
  H   H851      1.0  0.30134  0.50291  0.82432  1.0000
  H   H852      1.0  0.29606  0.55311  0.79809  1.0000
  H   H853      1.0  0.27995  0.54232  0.78665  1.0000
  C   C864      1.0  0.23395  0.44111  0.84893  1.0000
  C   C865      1.0  0.22968  0.43497  0.86203  1.0000
  C   C866      1.0  0.21248  0.43199  0.86802  1.0000
  C   C867      1.0  0.19941  0.43545  0.86095  1.0000
  C   C868      1.0  0.20377  0.44126  0.84781  1.0000
  C   C869      1.0  0.22108  0.44396  0.84177  1.0000
  H   H854      1.0  0.23963  0.43265  0.86756  1.0000
  H   H855      1.0  0.20918  0.42742  0.87818  1.0000
  H   H856      1.0  0.19384  0.44365  0.84232  1.0000
  H   H857      1.0  0.22438  0.44852  0.83163  1.0000
  C   C870      1.0  0.34486  0.38609  0.81156  1.0000
  C   C871      1.0  0.34650  0.38433  0.79924  1.0000
  C   C872      1.0  0.33470  0.39594  0.79178  1.0000
  C   C873      1.0  0.32101  0.40912  0.79669  1.0000
  C   C874      1.0  0.31917  0.41067  0.80908  1.0000
  C   C875      1.0  0.33121  0.39931  0.81644  1.0000
  H   H858      1.0  0.35710  0.37428  0.79537  1.0000
  C   C876      1.0  0.20482  0.43373  0.78434  1.0000
  H   H859      1.0  0.30862  0.42075  0.81296  1.0000
  H   H860      1.0  0.32985  0.40068  0.82598  1.0000
  C   C877      1.0  0.15337  0.39549  0.80469  1.0000
  C   C878      1.0  0.15985  0.40938  0.79572  1.0000
  C   C879      1.0  0.15773  0.42559  0.79892  1.0000
  C   C880      1.0  0.14972  0.42790  0.81125  1.0000
  C   C881      1.0  0.14324  0.41404  0.82032  1.0000
  C   C882      1.0  0.14488  0.39790  0.81699  1.0000
  H   H861      1.0  0.16633  0.40775  0.78625  1.0000
  H   H862      1.0  0.16248  0.43636  0.79180  1.0000
  H   H863      1.0  0.13686  0.41577  0.82985  1.0000
  H   H864      1.0  0.13971  0.38723  0.82398  1.0000
  S   S313      1.0  0.20824  0.36609  0.75056  1.0000
  C   C883      1.0  0.23988  0.56318  0.79214  1.0000
  H   H865      1.0  0.24455  0.58939  0.78921  1.0000
  H   H866      1.0  0.32419  0.62860  0.86644  1.0000
  H   H867      1.0  0.19974  0.49004  0.79904  1.0000
  C   C884      1.0  0.08474  0.45641  0.92396  1.0000
  H   H868      1.0  0.08767  0.62158  0.96646  1.0000
  C   C885      1.0  0.10522  0.61501  0.90309  1.0000
  C   C886      1.0  0.09557  0.60603  0.89920  1.0000
  C   C887      1.0  0.10168  0.60158  0.88727  1.0000
  C   C888      1.0  0.11761  0.60582  0.87928  1.0000
  C   C889      1.0  0.12707  0.61502  0.88313  1.0000
  H   H869      1.0  0.45889  0.36250  0.80202  1.0000
  H   H870      1.0  0.08346  0.60247  0.90539  1.0000
  H   H871      1.0  0.09422  0.59459  0.88430  1.0000
  H   H872      1.0  0.13919  0.61857  0.87704  1.0000
  H   H873      1.0  0.25022  0.58434  0.81059  1.0000
  C   C890      1.0  0.47186  0.33503  0.82831  1.0000
  C   C891      1.0  0.03986  0.51208  0.96619  1.0000
  C   C892      1.0  0.05459  0.51999  0.96344  1.0000
  C   C893      1.0  0.05217  0.53844  0.96009  1.0000
  C   C894      1.0  0.03496  0.54892  0.95992  1.0000
  C   C895      1.0  0.13318  0.64321  0.84640  1.0000
  C   C896      1.0  0.18903  0.65527  0.79253  1.0000
  H   H874      1.0  0.06789  0.51179  0.96366  1.0000
  H   H875      1.0  0.03303  0.56306  0.95722  1.0000
  C   C897      1.0  0.23826  0.42153  0.76970  1.0000
  H   H876      1.0  0.24958  0.55517  0.82524  1.0000
  H   H877      1.0  0.13025  0.43424  0.77387  1.0000
  C   C898      1.0  0.24718  0.32734  0.77263  1.0000
  C   C899      1.0  0.24679  0.55733  0.81596  1.0000
  C   C900      1.0  0.27291  0.63039  0.78152  1.0000
  C   C901      1.0  0.20146  0.38732  0.80577  1.0000
  C   C902      1.0  0.22329  0.41576  0.76931  1.0000
  S   S314      1.0  0.00435  0.46640  0.96510  1.0000
  H   H878      1.0  0.01344  0.58216  0.90382  1.0000
  H   H879      1.0  0.40583  0.33892  0.83824  1.0000
  C   C903      1.0  0.13946  0.49964  0.80895  1.0000
  C   C904      1.0  0.18813  0.64582  0.80513  1.0000
  H   H880      1.0  0.24300  0.39657  0.79662  1.0000
  C   C905      1.0  0.09837  0.62435  0.98143  1.0000
  H   H881      1.0  0.05411  0.55916  0.92559  1.0000
  C   C906      1.0  0.03468  0.57245  0.91413  1.0000
  H   H882      1.0  0.23754  0.61063  0.83791  1.0000
  H   H883      1.0  0.34571  0.36470  0.76743  1.0000
  C   C907      1.0  0.05947  0.48093  0.90197  1.0000
  C   C908      1.0  0.05571  0.46447  0.90315  1.0000
  C   C909      1.0  0.06530  0.45401  0.89427  1.0000
  C   C910      1.0  0.07886  0.45983  0.88427  1.0000
  C   C911      1.0  0.08259  0.47630  0.88308  1.0000
  C   C912      1.0  0.07284  0.48686  0.89187  1.0000
  H   H884      1.0  0.04535  0.45984  0.91084  1.0000
  H   H885      1.0  0.06230  0.44132  0.89519  1.0000
  H   H886      1.0  0.09287  0.48099  0.87533  1.0000
  H   H887      1.0  0.07576  0.49961  0.89086  1.0000
  Fe  Fe155     1.0  0.17413  0.37191  0.78180  1.0000
  H   H888      1.0  0.25398  0.52308  0.82621  1.0000
  H   H889      1.0  0.23181  0.48245  0.85348  1.0000
  H   H890      1.0  0.23652  0.53634  0.79771  1.0000
  Fe  Fe156     1.0  0.17820  0.37313  0.75388  1.0000
  S   S315      1.0  0.21742  0.45342  0.79501  1.0000
  N   N72       1.0  0.18648  0.49234  0.86220  1.0000
  H   H891      1.0  0.17024  0.51749  0.86511  1.0000
  H   H892      1.0  0.32765  0.33231  0.77444  1.0000
  H   H893      1.0  0.29931  0.62658  0.78491  1.0000
  C   C913      1.0  0.12081  0.61973  0.89494  1.0000
  C   C914      1.0  0.17120  0.48381  0.86543  1.0000
  C   C915      1.0  0.19830  0.51786  0.85979  1.0000
  C   C916      1.0  0.28916  0.63524  0.77996  1.0000
  C   C917      1.0  0.24296  0.52679  0.82101  1.0000
  C   C918      1.0  0.08473  0.62289  0.97618  1.0000
  H   H894      1.0  0.23731  0.56525  0.78280  1.0000
  C   C919      1.0  0.17130  0.48268  0.79547  1.0000
  C   C920      1.0  0.47127  0.34929  0.81790  1.0000
  C   C921      1.0  0.23944  0.54686  0.80062  1.0000
  H   H895      1.0  0.23266  0.63896  0.80037  1.0000
  S   S316      1.0  0.09911  0.61944  0.91836  1.0000
  C   C922      1.0  0.24718  0.57385  0.80775  1.0000
  H   H896      1.0  0.18827  0.50053  0.81205  1.0000
  C   C923      1.0  0.23661  0.43311  0.77752  1.0000
  H   H897      1.0  0.14412  0.56517  0.88832  1.0000
  H   H898      1.0  0.05867  0.52943  0.93577  1.0000
  H   H899      1.0  0.24734  0.63781  0.77616  1.0000
  C   C924      1.0  0.07771  0.44493  0.93478  1.0000
  C   C925      1.0  0.19362  0.39875  0.81413  1.0000
  S   S317      1.0  0.05123  0.62890  0.94082  1.0000
  H   H900      1.0  0.15865  0.49359  0.86372  1.0000
  N   N73       1.0  0.09671  0.43231  0.91315  1.0000
  C   C926      1.0  0.08960  0.42103  0.92367  1.0000
  C   C927      1.0  0.09435  0.44982  0.91318  1.0000
  C   C928      1.0  0.08007  0.42715  0.93466  1.0000
  C   C929      1.0  0.10658  0.42549  0.90179  1.0000
  H   H901      1.0  0.09126  0.40721  0.92360  1.0000
  H   H902      1.0  0.09956  0.45889  0.90475  1.0000
  H   H903      1.0  0.07441  0.41824  0.94304  1.0000
  H   H904      1.0  0.11248  0.43571  0.89416  1.0000
  H   H905      1.0  0.11771  0.41411  0.90399  1.0000
  H   H906      1.0  0.09734  0.42123  0.89791  1.0000
  N   N74       1.0  0.35452  0.60437  0.84656  1.0000
  C   C930      1.0  0.34768  0.61633  0.85424  1.0000
  C   C931      1.0  0.34401  0.59416  0.84544  1.0000
  C   C932      1.0  0.32970  0.61873  0.86068  1.0000
  C   C933      1.0  0.32607  0.59603  0.85192  1.0000
  C   C934      1.0  0.31883  0.60853  0.85946  1.0000
  C   C935      1.0  0.37337  0.60194  0.83986  1.0000
  H   H907      1.0  0.35597  0.62451  0.85508  1.0000
  H   H908      1.0  0.34939  0.58469  0.83935  1.0000
  C   C936      1.0  0.05544  0.43355  0.97896  1.0000
  H   H909      1.0  0.31771  0.58799  0.85103  1.0000
  C   C937      1.0  0.44788  0.33982  0.81280  1.0000
  H   H910      1.0  0.37866  0.61398  0.83841  1.0000
  H   H911      1.0  0.38162  0.59053  0.84532  1.0000
  H   H912      1.0  0.37486  0.59955  0.83030  1.0000
  S   S318      1.0  0.04974  0.62086  0.97777  1.0000
  H   H913      1.0  0.38245  0.64394  0.81407  1.0000
  H   H914      1.0  0.13356  0.39907  0.75026  1.0000
  C   C938      1.0  0.01705  0.55407  0.91150  1.0000
  H   H915      1.0  0.03762  0.58538  0.91263  1.0000
  H   H916      1.0  0.43882  0.34172  0.80670  1.0000
  H   H917      1.0  0.49110  0.64867  0.82394  1.0000
  N   N75       1.0  0.24636  0.64939  0.80961  1.0000
  H   H918      1.0  0.04179  0.49781  0.96867  1.0000
  C   C939      1.0  0.15258  0.33013  0.74038  1.0000
  C   C940      1.0  0.36758  0.33564  0.75487  1.0000
  H   H919      1.0  0.13549  0.36814  0.75971  1.0000
  H   H920      1.0  0.13534  0.42829  0.75240  1.0000
  H   H921      1.0  0.24829  0.43730  0.77785  1.0000
  S   S319      1.0  0.22603  0.40104  0.75947  1.0000
  N   N76       1.0  0.41087  0.36470  0.83323  1.0000
  C   C941      1.0  0.40778  0.37590  0.82209  1.0000
  C   C942      1.0  0.42537  0.36436  0.83772  1.0000
  C   C943      1.0  0.41923  0.38737  0.81525  1.0000
  C   C944      1.0  0.43693  0.37582  0.83122  1.0000
  C   C945      1.0  0.43388  0.38732  0.81988  1.0000
  H   H922      1.0  0.12887  0.63765  0.85638  1.0000
  H   H923      1.0  0.39648  0.37592  0.81839  1.0000
  H   H924      1.0  0.42823  0.35498  0.84627  1.0000
  H   H925      1.0  0.41687  0.39604  0.80635  1.0000
  H   H926      1.0  0.44867  0.37528  0.83463  1.0000
  H   H927      1.0  0.44321  0.39575  0.81453  1.0000
  H   H928      1.0  0.05732  0.51616  0.92566  1.0000
  C   C946      1.0  0.06737  0.62304  0.98358  1.0000
  C   C947      1.0  0.48742  0.64123  0.84413  1.0000
  C   C948      1.0  0.21836  0.49032  0.85606  1.0000
  C   C949      1.0  0.33921  0.64111  0.82785  1.0000
  H   H929      1.0  0.12327  0.41072  0.79287  1.0000
  H   H930      1.0  0.04347  0.46141  0.97708  1.0000
  H   H931      1.0  0.17982  0.42522  0.82544  1.0000
  C   C950      1.0  0.20654  0.42184  0.77670  1.0000
  S   S320      1.0  0.48395  0.36546  0.81499  1.0000
  Fe  Fe157     1.0  0.20384  0.34574  0.76849  1.0000
  S   S321      1.0  0.05985  0.59201  0.93049  1.0000
  H   H932      1.0  0.19494  0.41749  0.77644  1.0000
  C   C951      1.0  0.24388  0.57671  0.79573  1.0000
  N   N77       1.0  0.03975  0.54142  0.92377  1.0000
  H   H933      1.0  0.06603  0.54654  0.98320  1.0000
  H   H934      1.0  0.16158  0.34172  0.75209  1.0000
  H   H935      1.0  0.25457  0.63166  0.83897  1.0000
  N   N78       1.0  0.24322  0.54401  0.81227  1.0000
  H   H936      1.0  0.07035  0.44978  0.94326  1.0000
  H   H937      1.0  0.12825  0.62677  0.89788  1.0000
  S   S322      1.0  0.36636  0.33255  0.80392  1.0000
  N   N79       1.0  0.15652  0.58885  0.90389  1.0000
  C   C952      1.0  0.15726  0.58028  0.89474  1.0000
  C   C953      1.0  0.14311  0.58811  0.91455  1.0000
  C   C954      1.0  0.14397  0.57119  0.89589  1.0000
  C   C955      1.0  0.12975  0.57891  0.91611  1.0000
  C   C956      1.0  0.13011  0.57057  0.90665  1.0000
  C   C957      1.0  0.17048  0.59853  0.90226  1.0000
  H   H938      1.0  0.16795  0.58083  0.88634  1.0000
  H   H939      1.0  0.14225  0.59514  0.92174  1.0000
  H   H940      1.0  0.25124  0.41691  0.76398  1.0000
  H   H941      1.0  0.11870  0.57904  0.92432  1.0000
  H   H942      1.0  0.11940  0.56407  0.90749  1.0000
  H   H943      1.0  0.18312  0.58903  0.90407  1.0000
  H   H944      1.0  0.17330  0.60639  0.89241  1.0000
  H   H945      1.0  0.16641  0.60791  0.90869  1.0000
  H   H946      1.0  0.26927  0.33448  0.77630  1.0000
  C   C958      1.0  0.00526  0.58421  0.93824  1.0000
  C   C959      1.0  0.12699  0.37123  0.76881  1.0000
  H   H947      1.0  0.01744  0.58009  0.94177  1.0000
  C   C960      1.0  0.02021  0.54106  0.96290  1.0000
  H   H948      1.0  0.02344  0.52662  0.92056  1.0000
  H   H949      1.0  0.12232  0.38149  0.79034  1.0000
  C   C961      1.0  0.25269  0.64728  0.82020  1.0000
  C   C962      1.0  0.23424  0.62335  0.81895  1.0000
  C   C963      1.0  0.22920  0.39684  0.80168  1.0000
  C   C964      1.0  0.02272  0.52267  0.96572  1.0000
  N   N80       1.0  0.31630  0.48292  0.77962  1.0000
  C   C965      1.0  0.32103  0.46484  0.78184  1.0000
  C   C966      1.0  0.32030  0.49190  0.78687  1.0000
  C   C967      1.0  0.32970  0.45525  0.79170  1.0000
  C   C968      1.0  0.32873  0.48272  0.79692  1.0000
  C   C969      1.0  0.33338  0.46425  0.79936  1.0000
  C   C970      1.0  0.30711  0.49257  0.76928  1.0000
  H   H950      1.0  0.31786  0.45769  0.77611  1.0000
  H   H951      1.0  0.31664  0.50625  0.78511  1.0000
  H   H952      1.0  0.33319  0.44089  0.79351  1.0000
  H   H953      1.0  0.33137  0.48992  0.80286  1.0000
  C   C971      1.0  0.29231  0.65135  0.77194  1.0000
  H   H954      1.0  0.29499  0.48742  0.77036  1.0000
  H   H955      1.0  0.30235  0.50692  0.76932  1.0000
  H   H956      1.0  0.31624  0.49103  0.76004  1.0000
  H   H957      1.0  0.36546  0.35119  0.77311  1.0000
  C   C972      1.0  0.49353  0.64135  0.85460  1.0000
  S   S323      1.0  0.00443  0.51311  0.96816  1.0000
  C   C973      1.0  0.20350  0.48262  0.85909  1.0000
  C   C974      1.0  0.12543  0.40834  0.78346  1.0000
  C   C975      1.0  0.19464  0.42162  0.82444  1.0000
  H   H958      1.0  0.19944  0.43420  0.82062  1.0000
  H   H959      1.0  0.16914  0.47675  0.87551  1.0000
  H   H960      1.0  0.20567  0.46883  0.85890  1.0000
  H   H961      1.0  0.06880  0.40615  0.98329  1.0000
  H   H962      1.0  0.19777  0.41551  0.83392  1.0000
  H   H963      1.0  0.22682  0.61424  0.81835  1.0000
  C   C976      1.0  0.21569  0.50809  0.85640  1.0000
  H   H964      1.0  0.19606  0.53179  0.85982  1.0000
  H   H965      1.0  0.22546  0.37818  0.79256  1.0000
  N   N81       1.0  0.20318  0.40935  0.81591  1.0000
  H   H966      1.0  0.00624  0.55259  0.90796  1.0000
  H   H967      1.0  0.17977  0.39927  0.81905  1.0000
  S   S324      1.0  0.03794  0.59393  0.95987  1.0000
  H   H968      1.0  0.19360  0.37937  0.80412  1.0000
  C   C977      1.0  0.25991  0.64152  0.77500  1.0000
  N   N82       1.0  0.12803  0.38853  0.77016  1.0000
  Fe  Fe158     1.0  0.03585  0.60942  0.94036  1.0000
  C   C978      1.0  0.18882  0.48949  0.80769  1.0000
  C   C979      1.0  0.15502  0.48319  0.79267  1.0000
  C   C980      1.0  0.21984  0.43932  0.78481  1.0000
  C   C981      1.0  0.21933  0.38652  0.79940  1.0000
  H   H969      1.0  0.37848  0.34238  0.75298  1.0000
  C   C982      1.0  0.33940  0.32981  0.76699  1.0000
  H   H970      1.0  0.30478  0.61031  0.86426  1.0000
  H   H971      1.0  0.18320  0.63372  0.80832  1.0000
  C   C983      1.0  0.05091  0.44991  0.98252  1.0000
  H   H972      1.0  0.18363  0.47544  0.79046  1.0000
  C   C984      1.0  0.22088  0.40817  0.81008  1.0000
  H   H973      1.0  0.13193  0.36048  0.77647  1.0000
  H   H974      1.0  0.20884  0.33389  0.74355  1.0000
  C   C985      1.0  0.12488  0.39180  0.78197  1.0000
  S   S325      1.0  0.16429  0.37753  0.73778  1.0000
  H   H975      1.0  0.12369  0.62493  0.84030  1.0000
  C   C986      1.0  0.04386  0.55761  0.92152  1.0000
  H   H976      1.0  0.33969  0.45692  0.80722  1.0000
  C   C987      1.0  0.13219  0.41819  0.76079  1.0000
  C   C988      1.0  0.24967  0.63328  0.83053  1.0000
  C   C989      1.0  0.15600  0.49916  0.81133  1.0000
  C   C990      1.0  0.24026  0.62134  0.82990  1.0000
  N   N83       1.0  0.17165  0.49079  0.80460  1.0000
  C   C991      1.0  0.13131  0.40156  0.75963  1.0000
  H   H977      1.0  0.19242  0.47666  0.81430  1.0000
  H   H978      1.0  0.06380  0.56954  0.97557  1.0000
  C   C992      1.0  0.13602  0.64311  0.82453  1.0000
  H   H979      1.0  0.03962  0.51962  0.93937  1.0000
  C   C993      1.0  0.13900  0.49161  0.79954  1.0000
  H   H980      1.0  0.12710  0.50587  0.81459  1.0000
  S   S326      1.0  0.40205  0.32782  0.77311  1.0000
  C   C994      1.0  0.02665  0.53949  0.91879  1.0000
  H   H981      1.0  0.12624  0.49138  0.79788  1.0000
  Fe  Fe159     1.0  0.01232  0.49231  0.95667  1.0000
  H   H982      1.0  0.11188  0.62387  0.97581  1.0000
  C   C995      1.0  0.04936  0.52592  0.93152  1.0000
  C   C996      1.0  0.35564  0.64607  0.82547  1.0000
  C   C997      1.0  0.44823  0.32572  0.82329  1.0000
  H   H983      1.0  0.23890  0.34056  0.77202  1.0000
  S   S327      1.0  0.19098  0.64209  0.82971  1.0000
  H   H984      1.0  0.32824  0.64563  0.83519  1.0000
  C   C998      1.0  0.39919  0.35231  0.84013  1.0000
  H   H985      1.0  0.38603  0.35647  0.83725  1.0000
  H   H986      1.0  0.34382  0.34774  0.78180  1.0000
  H   H987      1.0  0.48071  0.33341  0.83454  1.0000
  H   H988      1.0  0.18482  0.65038  0.78599  1.0000
  S   S328      1.0  0.00904  0.61842  0.93468  1.0000
  C   C999      1.0  0.26442  0.32389  0.77501  1.0000
  C   C1000     1.0  0.02112  0.57065  0.90917  1.0000
  C   C1001     1.0  0.19323  0.65237  0.81361  1.0000
  C   C1002     1.0  0.35190  0.35118  0.77207  1.0000
  C   C1003     1.0  0.13023  0.63607  0.83734  1.0000
  H   H989      1.0  0.30483  0.65515  0.77077  1.0000
  C   C1004     1.0  0.49633  0.64830  0.83199  1.0000
  H   H990      1.0  0.00212  0.55758  0.94057  1.0000
  H   H991      1.0  0.26009  0.65648  0.82072  1.0000
  H   H992      1.0  0.48651  0.63628  0.86408  1.0000
  S   S329      1.0  0.00315  0.49666  0.93870  1.0000
  H   H993      1.0  0.38450  0.65005  0.78051  1.0000
  C   C1005     1.0  0.20427  0.33209  0.73583  1.0000
  H   H994      1.0  0.02858  0.65582  0.98292  1.0000
  H   H995      1.0  0.35361  0.65108  0.78798  1.0000
  H   H996      1.0  0.33415  0.80908  0.20226  1.0000
  H   H997      1.0  0.16894  0.67693  0.08492  1.0000
  C   C1006     1.0  0.41177  0.75523  0.15903  1.0000
  S   S330      1.0  0.47586  0.93416  0.02155  1.0000
  S   S331      1.0  0.39798  0.91352  0.03946  1.0000
  S   S332      1.0  0.43862  0.92230  0.01043  1.0000
  C   C1007     1.0  0.18366  0.66388  0.18047  1.0000
  Fe  Fe160     1.0  0.43870  0.83980  0.09000  1.0000
  S   S333      1.0  0.41531  0.85411  0.10243  1.0000
  S   S334      1.0  0.44792  0.84921  0.06901  1.0000
  Fe  Fe161     1.0  0.45093  0.81216  0.11227  1.0000
  S   S335      1.0  0.42884  0.82451  0.12659  1.0000
  S   S336      1.0  0.47129  0.78846  0.11947  1.0000
  Fe  Fe162     1.0  0.41124  0.82707  0.11335  1.0000
  S   S337      1.0  0.38461  0.81878  0.11940  1.0000
  Fe  Fe163     1.0  0.43501  0.85025  0.11445  1.0000
  S   S338      1.0  0.43475  0.87337  0.12208  1.0000
  S   S339      1.0  0.43302  0.81292  0.09971  1.0000
  S   S340      1.0  0.45871  0.83772  0.10139  1.0000
  C   C1008     1.0  0.33893  0.68852  0.19127  1.0000
  S   S341      1.0  0.22263  0.66616  0.16192  1.0000
  C   C1009     1.0  0.49452  0.97598  0.99773  1.0000
  H   H998      1.0  0.40291  0.91494  0.08005  1.0000
  H   H999      1.0  0.43019  0.75344  0.14124  1.0000
  S   S342      1.0  0.42484  0.94914  0.03067  1.0000
  C   C1010     1.0  0.28469  0.83879  0.22816  1.0000
  H   H1000     1.0  0.03961  0.66427  0.01582  1.0000
  H   H1001     1.0  0.50035  0.86880  0.11196  1.0000
  C   C1011     1.0  0.22284  0.78880  0.19804  1.0000
  C   C1012     1.0  0.18075  0.76673  0.19657  1.0000
  Fe  Fe164     1.0  0.22609  0.69041  0.16698  1.0000
  S   S343      1.0  0.23168  0.68349  0.18653  1.0000
  C   C1013     1.0  0.36578  0.66348  0.18026  1.0000
  Fe  Fe165     1.0  0.23240  0.72770  0.16247  1.0000
  S   S344      1.0  0.23844  0.72345  0.18140  1.0000
  S   S345      1.0  0.23378  0.75439  0.14975  1.0000
  Fe  Fe166     1.0  0.25452  0.69722  0.17756  1.0000
  S   S346      1.0  0.28300  0.68766  0.17984  1.0000
  Fe  Fe167     1.0  0.21500  0.71042  0.18858  1.0000
  S   S347      1.0  0.19329  0.71534  0.20586  1.0000
  S   S348      1.0  0.25031  0.70234  0.15792  1.0000
  S   S349      1.0  0.20747  0.71649  0.16973  1.0000
  H   H1002     1.0  0.49436  0.95026  0.03236  1.0000
  C   C1014     1.0  0.49952  0.70321  0.15809  1.0000
  H   H1003     1.0  0.19051  0.68182  0.20202  1.0000
  Fe  Fe168     1.0  0.44373  0.70211  0.14325  1.0000
  S   S350      1.0  0.44870  0.71049  0.15921  1.0000
  S   S351      1.0  0.44725  0.71815  0.12332  1.0000
  Fe  Fe169     1.0  0.46173  0.68188  0.16486  1.0000
  C   C1015     1.0  0.43715  0.88544  0.98553  1.0000
  Fe  Fe170     1.0  0.42291  0.70256  0.16999  1.0000
  S   S352      1.0  0.40369  0.71841  0.18367  1.0000
  H   H1004     1.0  0.17047  0.73021  0.22690  1.0000
  S   S353      1.0  0.41654  0.69684  0.15349  1.0000
  H   H1005     1.0  0.42051  0.78045  0.12187  1.0000
  N   N84       1.0  0.19007  0.66516  0.19024  1.0000
  C   C1016     1.0  0.41661  0.75879  0.14582  1.0000
  C   C1017     1.0  0.28482  0.82402  0.22372  1.0000
  C   C1018     1.0  0.49453  0.95727  0.02267  1.0000
  H   H1006     1.0  0.48867  0.70597  0.15328  1.0000
  C   C1019     1.0  0.48624  0.96147  0.00271  1.0000
  Fe  Fe171     1.0  0.31625  0.80298  0.18174  1.0000
  S   S354      1.0  0.31979  0.77964  0.19787  1.0000
  S   S355      1.0  0.33855  0.81796  0.17520  1.0000
  Fe  Fe172     1.0  0.27994  0.79771  0.18117  1.0000
  S   S356      1.0  0.28056  0.77411  0.19722  1.0000
  S   S357      1.0  0.25646  0.80768  0.17170  1.0000
  Fe  Fe173     1.0  0.29091  0.79008  0.20617  1.0000
  C   C1020     1.0  0.32567  0.84200  0.22367  1.0000
  Fe  Fe174     1.0  0.30922  0.76613  0.18736  1.0000
  S   S358      1.0  0.32141  0.73943  0.18256  1.0000
  S   S359      1.0  0.28798  0.81452  0.19082  1.0000
  S   S360      1.0  0.30788  0.78865  0.17055  1.0000
  C   C1021     1.0  0.38099  0.72446  0.18289  1.0000
  C   C1022     1.0  0.37500  0.72088  0.17345  1.0000
  C   C1023     1.0  0.35666  0.72558  0.17329  1.0000
  C   C1024     1.0  0.34435  0.73405  0.18250  1.0000
  C   C1025     1.0  0.35037  0.73778  0.19185  1.0000
  C   C1026     1.0  0.36865  0.73298  0.19205  1.0000
  H   H1007     1.0  0.38440  0.71447  0.16629  1.0000
  H   H1008     1.0  0.35202  0.72267  0.16604  1.0000
  H   H1009     1.0  0.34089  0.74394  0.19915  1.0000
  H   H1010     1.0  0.37323  0.73574  0.19940  1.0000
  C   C1027     1.0  0.19323  0.65925  0.13407  1.0000
  H   H1011     1.0  0.32986  0.79868  0.22547  1.0000
  C   C1028     1.0  0.21085  0.77155  0.18866  1.0000
  H   H1012     1.0  0.15847  0.70559  0.17413  1.0000
  H   H1013     1.0  0.18994  0.79196  0.21275  1.0000
  H   H1014     1.0  0.48009  0.95733  0.99686  1.0000
  Fe  Fe175     1.0  0.44927  0.94135  0.01609  1.0000
  C   C1029     1.0  0.19199  0.78436  0.20566  1.0000
  C   C1030     1.0  0.15175  0.65922  0.07444  1.0000
  H   H1015     1.0  0.17060  0.65845  0.09816  1.0000
  C   C1031     1.0  0.24053  0.76876  0.15599  1.0000
  C   C1032     1.0  0.23388  0.78698  0.15259  1.0000
  C   C1033     1.0  0.23881  0.79876  0.15753  1.0000
  C   C1034     1.0  0.25078  0.79245  0.16566  1.0000
  C   C1035     1.0  0.25778  0.77424  0.16892  1.0000
  C   C1036     1.0  0.25256  0.76240  0.16415  1.0000
  H   H1016     1.0  0.22468  0.79203  0.14624  1.0000
  H   H1017     1.0  0.23341  0.81284  0.15494  1.0000
  H   H1018     1.0  0.26713  0.76926  0.17515  1.0000
  H   H1019     1.0  0.25821  0.74842  0.16656  1.0000
  C   C1037     1.0  0.32945  0.81261  0.22136  1.0000
  H   H1020     1.0  0.27579  0.76275  0.13287  1.0000
  H   H1021     1.0  0.28761  0.85072  0.22150  1.0000
  C   C1038     1.0  0.03477  0.66196  0.99844  1.0000
  H   H1022     1.0  0.22361  0.76925  0.18215  1.0000
  C   C1039     1.0  0.30661  0.65852  0.17273  1.0000
  C   C1040     1.0  0.47205  0.82523  0.13661  1.0000
  C   C1041     1.0  0.38718  0.77544  0.14451  1.0000
  C   C1042     1.0  0.18564  0.74529  0.23151  1.0000
  H   H1023     1.0  0.30292  0.78333  0.13500  1.0000
  H   H1024     1.0  0.28792  0.82462  0.21368  1.0000
  C   C1043     1.0  0.35691  0.68662  0.19152  1.0000
  C   C1044     1.0  0.21591  0.74426  0.21911  1.0000
  C   C1045     1.0  0.21360  0.73274  0.21260  1.0000
  C   C1046     1.0  0.19712  0.72793  0.21513  1.0000
  N   N85       1.0  0.49039  0.82185  0.13414  1.0000
  C   C1047     1.0  0.28299  0.75446  0.14007  1.0000
  H   H1025     1.0  0.42121  0.92080  0.05834  1.0000
  H   H1026     1.0  0.22458  0.72772  0.20556  1.0000
  N   N86       1.0  0.29119  0.76172  0.14604  1.0000
  H   H1027     1.0  0.46400  0.91701  0.04990  1.0000
  C   C1048     1.0  0.17353  0.69528  0.18885  1.0000
  H   H1028     1.0  0.38229  0.66837  0.13156  1.0000
  C   C1049     1.0  0.33180  0.81840  0.20823  1.0000
  C   C1050     1.0  0.28289  0.73639  0.14365  1.0000
  Fe  Fe176     1.0  0.43136  0.66921  0.16003  1.0000
  C   C1051     1.0  0.32789  0.84824  0.21057  1.0000
  H   H1029     1.0  0.27857  0.78833  0.13874  1.0000
  H   H1030     1.0  0.46526  0.81698  0.13419  1.0000
  H   H1031     1.0  0.30669  0.72497  0.16669  1.0000
  S   S361      1.0  0.45827  0.67380  0.14819  1.0000
  C   C1052     1.0  0.29151  0.72570  0.15324  1.0000
  C   C1053     1.0  0.19306  0.67638  0.13508  1.0000
  C   C1054     1.0  0.20198  0.67887  0.14354  1.0000
  H   H1032     1.0  0.16773  0.67744  0.16649  1.0000
  H   H1033     1.0  0.46273  0.86189  0.14877  1.0000
  H   H1034     1.0  0.39697  0.67409  0.17598  1.0000
  H   H1035     1.0  0.18623  0.68777  0.12915  1.0000
  H   H1036     1.0  0.20205  0.69209  0.14404  1.0000
  S   S362      1.0  0.28117  0.78977  0.22708  1.0000
  H   H1037     1.0  0.33260  0.84095  0.19264  1.0000
  H   H1038     1.0  0.44885  0.87876  0.09246  1.0000
  H   H1039     1.0  0.43439  0.89422  0.03193  1.0000
  C   C1055     1.0  0.29082  0.78076  0.14236  1.0000
  H   H1040     1.0  0.17027  0.76049  0.19650  1.0000
  C   C1056     1.0  0.17803  0.77705  0.20537  1.0000
  S   S363      1.0  0.40153  0.95375  0.00933  1.0000
  C   C1057     1.0  0.42744  0.91174  0.06582  1.0000
  H   H1041     1.0  0.42404  0.67700  0.10923  1.0000
  H   H1042     1.0  0.16540  0.77892  0.21219  1.0000
  C   C1058     1.0  0.37148  0.81996  0.13467  1.0000
  C   C1059     1.0  0.37787  0.82425  0.14363  1.0000
  C   C1060     1.0  0.36756  0.82380  0.15600  1.0000
  C   C1061     1.0  0.35093  0.81888  0.15952  1.0000
  C   C1062     1.0  0.34451  0.81470  0.15054  1.0000
  C   C1063     1.0  0.35469  0.81538  0.13814  1.0000
  H   H1043     1.0  0.39074  0.82785  0.14104  1.0000
  H   H1044     1.0  0.37257  0.82713  0.16289  1.0000
  H   H1045     1.0  0.33158  0.81123  0.15308  1.0000
  H   H1046     1.0  0.34964  0.81215  0.13122  1.0000
  C   C1064     1.0  0.46603  0.76844  0.11981  1.0000
  C   C1065     1.0  0.45751  0.76725  0.11081  1.0000
  C   C1066     1.0  0.45253  0.75147  0.11158  1.0000
  C   C1067     1.0  0.45594  0.73686  0.12140  1.0000
  C   C1068     1.0  0.46541  0.73773  0.12996  1.0000
  C   C1069     1.0  0.47034  0.75352  0.12923  1.0000
  H   H1047     1.0  0.45482  0.77843  0.10319  1.0000
  H   H1048     1.0  0.44560  0.75075  0.10473  1.0000
  H   H1049     1.0  0.46897  0.72625  0.13714  1.0000
  H   H1050     1.0  0.47715  0.75423  0.13614  1.0000
  C   C1070     1.0  0.48564  0.89015  0.12139  1.0000
  C   C1071     1.0  0.48721  0.87597  0.11586  1.0000
  C   C1072     1.0  0.47166  0.87092  0.11556  1.0000
  C   C1073     1.0  0.45464  0.87997  0.12091  1.0000
  C   C1074     1.0  0.45324  0.89433  0.12612  1.0000
  C   C1075     1.0  0.46863  0.89944  0.12631  1.0000
  H   H1051     1.0  0.44404  0.67423  0.12345  1.0000
  H   H1052     1.0  0.47289  0.85979  0.11154  1.0000
  H   H1053     1.0  0.44016  0.90140  0.13024  1.0000
  H   H1054     1.0  0.22219  0.78957  0.20788  1.0000
  C   C1076     1.0  0.41137  0.89475  0.04738  1.0000
  C   C1077     1.0  0.40448  0.88655  0.05981  1.0000
  C   C1078     1.0  0.41548  0.87236  0.06654  1.0000
  C   C1079     1.0  0.43328  0.86614  0.06076  1.0000
  C   C1080     1.0  0.43991  0.87391  0.04819  1.0000
  C   C1081     1.0  0.42906  0.88827  0.04156  1.0000
  H   H1055     1.0  0.39074  0.89138  0.06432  1.0000
  H   H1056     1.0  0.41014  0.86625  0.07616  1.0000
  H   H1057     1.0  0.45360  0.86898  0.04362  1.0000
  H   H1058     1.0  0.46539  0.89506  0.04782  1.0000
  C   C1082     1.0  0.48626  0.95214  0.01518  1.0000
  C   C1083     1.0  0.49902  0.83263  0.13670  1.0000
  H   H1059     1.0  0.32048  0.67883  0.18531  1.0000
  H   H1060     1.0  0.24409  0.81580  0.23321  1.0000
  S   S364      1.0  0.48781  0.67284  0.17172  1.0000
  H   H1061     1.0  0.26484  0.65885  0.19133  1.0000
  H   H1062     1.0  0.44728  0.84253  0.14365  1.0000
  H   H1063     1.0  0.27571  0.73087  0.13926  1.0000
  H   H1064     1.0  0.41692  0.89403  0.09735  1.0000
  H   H1065     1.0  0.36027  0.69529  0.19600  1.0000
  H   H1066     1.0  0.39045  0.75948  0.17523  1.0000
  H   H1067     1.0  0.36831  0.77781  0.16224  1.0000
  H   H1068     1.0  0.46662  0.88443  0.07051  1.0000
  C   C1084     1.0  0.45610  0.90726  0.05045  1.0000
  H   H1069     1.0  0.44775  0.91291  0.04322  1.0000
  Fe  Fe177     1.0  0.42794  0.94585  0.99631  1.0000
  S   S365      1.0  0.43620  0.67460  0.17724  1.0000
  H   H1070     1.0  0.43094  0.88095  0.99535  1.0000
  N   N87       1.0  0.40437  0.76885  0.13875  1.0000
  Fe  Fe178     1.0  0.41335  0.93165  0.02402  1.0000
  C   C1085     1.0  0.41700  0.90851  0.07810  1.0000
  H   H1071     1.0  0.40190  0.67123  0.14439  1.0000
  C   C1086     1.0  0.45276  0.89146  0.07261  1.0000
  H   H1072     1.0  0.42141  0.74705  0.16465  1.0000
  N   N88       1.0  0.44507  0.90320  0.06321  1.0000
  C   C1087     1.0  0.42480  0.89670  0.08776  1.0000
  H   H1073     1.0  0.41520  0.76004  0.12153  1.0000
  H   H1074     1.0  0.32859  0.69864  0.19538  1.0000
  Fe  Fe179     1.0  0.41546  0.97042  0.01486  1.0000
  H   H1075     1.0  0.30662  0.75693  0.15997  1.0000
  C   C1088     1.0  0.39773  0.65892  0.14607  1.0000
  C   C1089     1.0  0.19721  0.76408  0.18806  1.0000
  C   C1090     1.0  0.44277  0.88810  0.08501  1.0000
  H   H1076     1.0  0.19958  0.75600  0.18121  1.0000
  H   H1077     1.0  0.22854  0.74835  0.21672  1.0000
  H   H1078     1.0  0.49508  0.79512  0.13258  1.0000
  C   C1091     1.0  0.47050  0.85039  0.14495  1.0000
  H   H1079     1.0  0.46734  0.91043  0.13055  1.0000
  H   H1080     1.0  0.26688  0.75715  0.23354  1.0000
  H   H1081     1.0  0.04431  0.66978  0.99240  1.0000
  H   H1082     1.0  0.42346  0.98411  0.03486  1.0000
  C   C1092     1.0  0.33442  0.67750  0.18551  1.0000
  H   H1083     1.0  0.23620  0.78047  0.19480  1.0000
  C   C1093     1.0  0.39434  0.76216  0.16498  1.0000
  N   N89       1.0  0.15332  0.65857  0.08637  1.0000
  C   C1094     1.0  0.40994  0.77260  0.12494  1.0000
  H   H1084     1.0  0.22211  0.80224  0.19182  1.0000
  C   C1095     1.0  0.21087  0.66420  0.15121  1.0000
  S   S366      1.0  0.44101  0.96418  0.00082  1.0000
  H   H1085     1.0  0.29033  0.78605  0.15064  1.0000
  C   C1096     1.0  0.29999  0.75125  0.15528  1.0000
  C   C1097     1.0  0.30015  0.73313  0.15909  1.0000
  H   H1086     1.0  0.29132  0.71172  0.15624  1.0000
  H   H1087     1.0  0.37745  0.78321  0.13890  1.0000
  N   N90       1.0  0.20827  0.78125  0.19752  1.0000
  C   C1098     1.0  0.38191  0.77233  0.15770  1.0000
  H   H1088     1.0  0.16263  0.66185  0.06640  1.0000
  C   C1099     1.0  0.46183  0.83952  0.14207  1.0000
  H   H1089     1.0  0.39868  0.78051  0.12030  1.0000
  H   H1090     1.0  0.16993  0.70756  0.19213  1.0000
  C   C1100     1.0  0.18323  0.73398  0.22479  1.0000
  C   C1101     1.0  0.33095  0.83633  0.20283  1.0000
  H   H1091     1.0  0.39442  0.65964  0.19139  1.0000
  N   N91       1.0  0.37008  0.67439  0.18589  1.0000
  H   H1092     1.0  0.50003  0.92810  0.10292  1.0000
  C   C1102     1.0  0.18518  0.68061  0.19444  1.0000
  C   C1103     1.0  0.48922  0.84697  0.14224  1.0000
  H   H1093     1.0  0.26463  0.66136  0.16109  1.0000
  C   C1104     1.0  0.34791  0.66482  0.18001  1.0000
  H   H1094     1.0  0.31563  0.66730  0.16769  1.0000
  H   H1095     1.0  0.49334  0.95257  0.08463  1.0000
  C   C1105     1.0  0.38895  0.67279  0.18582  1.0000
  H   H1096     1.0  0.39089  0.68324  0.18978  1.0000
  H   H1097     1.0  0.27655  0.66983  0.14532  1.0000
  H   H1098     1.0  0.45657  0.98848  0.01134  1.0000
  C   C1106     1.0  0.16712  0.69416  0.17877  1.0000
  C   C1107     1.0  0.20190  0.75073  0.22846  1.0000
  C   C1108     1.0  0.28965  0.66513  0.17961  1.0000
  H   H1099     1.0  0.25513  0.66739  0.13472  1.0000
  C   C1109     1.0  0.03220  0.65881  0.01157  1.0000
  C   C1110     1.0  0.16937  0.66251  0.08810  1.0000
  C   C1111     1.0  0.17220  0.67837  0.17454  1.0000
  H   H1100     1.0  0.49606  0.85580  0.14397  1.0000
  H   H1101     1.0  0.32702  0.86224  0.20646  1.0000
  H   H1102     1.0  0.45009  0.90306  0.98952  1.0000
  H   H1103     1.0  0.49460  0.98316  0.98808  1.0000
  H   H1104     1.0  0.32288  0.85141  0.22966  1.0000
  N   N92       1.0  0.32628  0.82440  0.22890  1.0000
  C   C1112     1.0  0.28106  0.80857  0.23228  1.0000
  C   C1113     1.0  0.27437  0.65765  0.15255  1.0000
  H   H1105     1.0  0.50018  0.81084  0.11789  1.0000
  C   C1114     1.0  0.50072  0.80713  0.12806  1.0000
  H   H1106     1.0  0.39637  0.66244  0.11000  1.0000
  C   C1115     1.0  0.43902  0.66289  0.12355  1.0000
  C   C1116     1.0  0.42767  0.66438  0.11555  1.0000
  C   C1117     1.0  0.38664  0.65725  0.13879  1.0000
  Fe  Fe180     1.0  0.40189  0.97539  0.40574  1.0000
  S   S367      1.0  0.39951  0.94834  0.40559  1.0000
  H   H1107     1.0  0.09892  0.68430  0.32392  1.0000
  S   S368      1.0  0.28247  0.85609  0.24662  1.0000
  S   S369      1.0  0.35698  0.95885  0.42013  1.0000
  H   H1108     1.0  0.33750  0.81252  0.24508  1.0000
  Fe  Fe181     1.0  0.38387  0.94811  0.42556  1.0000
  S   S370      1.0  0.39088  0.92618  0.44193  1.0000
  Fe  Fe182     1.0  0.37296  0.96188  0.40004  1.0000
  S   S371      1.0  0.36649  0.95827  0.38253  1.0000
  S   S372      1.0  0.38806  0.97422  0.42586  1.0000
  H   H1109     1.0  0.18981  0.91230  0.37416  1.0000
  Fe  Fe183     1.0  0.02775  0.73624  0.34623  1.0000
  H   H1110     1.0  0.20439  0.92332  0.30454  1.0000
  C   C1118     1.0  0.32415  0.81797  0.24262  1.0000
  Fe  Fe184     1.0  0.15187  0.76678  0.27369  1.0000
  S   S373      1.0  0.15649  0.78587  0.25494  1.0000
  H   H1111     1.0  0.08005  0.73455  0.31224  1.0000
  Fe  Fe185     1.0  0.18446  0.77089  0.28068  1.0000
  S   S374      1.0  0.19195  0.78999  0.26264  1.0000
  S   S375      1.0  0.20140  0.76189  0.29521  1.0000
  Fe  Fe186     1.0  0.16258  0.80214  0.26589  1.0000
  S   S376      1.0  0.15310  0.83161  0.26216  1.0000
  Fe  Fe187     1.0  0.18533  0.77191  0.25336  1.0000
  S   S377      1.0  0.15542  0.78445  0.28479  1.0000
  S   S378      1.0  0.18043  0.75139  0.27122  1.0000
  Fe  Fe188     1.0  0.01797  0.85838  0.31144  1.0000
  S   S379      1.0  0.02941  0.86112  0.32686  1.0000
  H   H1112     1.0  0.07541  0.88999  0.35922  1.0000
  Fe  Fe189     1.0  0.05451  0.85224  0.29389  1.0000
  S   S380      1.0  0.06924  0.85413  0.30764  1.0000
  S   S381      1.0  0.06854  0.84844  0.27436  1.0000
  Fe  Fe190     1.0  0.05087  0.83796  0.32183  1.0000
  S   S382      1.0  0.06178  0.81502  0.33604  1.0000
  Fe  Fe191     1.0  0.04679  0.87718  0.31141  1.0000
  S   S383      1.0  0.05238  0.90260  0.31265  1.0000
  S   S384      1.0  0.03813  0.83373  0.30773  1.0000
  S   S385      1.0  0.03331  0.87679  0.29637  1.0000
  Fe  Fe192     1.0  0.12789  0.92095  0.33361  1.0000
  S   S386      1.0  0.11893  0.94854  0.32283  1.0000
  S   S387      1.0  0.11209  0.89944  0.34083  1.0000
  Fe  Fe193     1.0  0.16624  0.92539  0.32933  1.0000
  S   S388      1.0  0.16090  0.95276  0.31748  1.0000
  S   S389      1.0  0.19317  0.91287  0.33410  1.0000
  Fe  Fe194     1.0  0.13581  0.95675  0.33254  1.0000
  C   C1119     1.0  0.48109  0.92490  0.47928  1.0000
  Fe  Fe195     1.0  0.14484  0.94195  0.30897  1.0000
  S   S390      1.0  0.14519  0.94643  0.28841  1.0000
  S   S391      1.0  0.14210  0.92962  0.34484  1.0000
  S   S392      1.0  0.15288  0.91401  0.31927  1.0000
  Fe  Fe196     1.0  0.24272  0.84051  0.28925  1.0000
  S   S393      1.0  0.23952  0.84589  0.26935  1.0000
  S   S394      1.0  0.24123  0.81487  0.30337  1.0000
  Fe  Fe197     1.0  0.24726  0.87782  0.28722  1.0000
  S   S395      1.0  0.24458  0.88640  0.26688  1.0000
  S   S396      1.0  0.24357  0.89656  0.30011  1.0000
  Fe  Fe198     1.0  0.22228  0.87186  0.27301  1.0000
  S   S397      1.0  0.19677  0.88211  0.26591  1.0000
  Fe  Fe199     1.0  0.26221  0.85969  0.26472  1.0000
  H   H1113     1.0  0.06971  0.72406  0.29048  1.0000
  S   S398      1.0  0.22336  0.86523  0.29335  1.0000
  S   S399      1.0  0.26700  0.85227  0.28456  1.0000
  Fe  Fe200     1.0  0.25005  0.96016  0.34985  1.0000
  S   S400      1.0  0.26341  0.96760  0.32951  1.0000
  S   S401      1.0  0.22001  0.96511  0.35395  1.0000
  Fe  Fe201     1.0  0.28512  0.95066  0.35893  1.0000
  S   S402      1.0  0.30135  0.95708  0.33919  1.0000
  S   S403      1.0  0.29554  0.94167  0.37702  1.0000
  H   H1114     1.0  0.04123  0.91015  0.34029  1.0000
  C   C1120     1.0  0.42954  0.92235  0.46019  1.0000
  Fe  Fe202     1.0  0.28422  0.94294  0.33399  1.0000
  S   S404      1.0  0.29609  0.92364  0.32087  1.0000
  S   S405      1.0  0.26374  0.97547  0.35670  1.0000
  S   S406      1.0  0.26979  0.93449  0.35404  1.0000
  C   C1121     1.0  0.33506  0.90732  0.37675  1.0000
  C   C1122     1.0  0.36101  0.95377  0.47964  1.0000
  H   H1115     1.0  0.16184  0.92007  0.36611  1.0000
  C   C1123     1.0  0.48398  0.93940  0.40002  1.0000
  H   H1116     1.0  0.43000  0.91765  0.41481  1.0000
  C   C1124     1.0  0.02803  0.67775  0.41563  1.0000
  C   C1125     1.0  0.27685  0.80810  0.24529  1.0000
  H   H1117     1.0  0.35387  0.92857  0.33400  1.0000
  H   H1118     1.0  0.44162  0.94167  0.39775  1.0000
  H   H1119     1.0  0.47992  0.92676  0.46003  1.0000
  H   H1120     1.0  0.17975  0.85605  0.26002  1.0000
  S   S407      1.0  0.03647  0.70863  0.30919  1.0000
  H   H1121     1.0  0.21439  0.92622  0.28804  1.0000
  H   H1122     1.0  0.38852  0.95784  0.45088  1.0000
  C   C1126     1.0  0.48345  0.92893  0.41219  1.0000
  C   C1127     1.0  0.27681  0.82282  0.24973  1.0000
  C   C1128     1.0  0.45025  0.95997  0.42891  1.0000
  H   H1123     1.0  0.27383  0.79627  0.25200  1.0000
  H   H1124     1.0  0.27407  0.82213  0.25979  1.0000
  C   C1129     1.0  0.25893  0.90233  0.30634  1.0000
  C   C1130     1.0  0.25195  0.91186  0.31601  1.0000
  C   C1131     1.0  0.26320  0.91828  0.32060  1.0000
  C   C1132     1.0  0.28167  0.91514  0.31559  1.0000
  C   C1133     1.0  0.28877  0.90523  0.30611  1.0000
  C   C1134     1.0  0.27745  0.89886  0.30147  1.0000
  H   H1125     1.0  0.23764  0.91465  0.31975  1.0000
  H   H1126     1.0  0.25755  0.92582  0.32792  1.0000
  H   H1127     1.0  0.30306  0.90269  0.30219  1.0000
  H   H1128     1.0  0.28301  0.89159  0.29398  1.0000
  C   C1135     1.0  0.23173  0.82472  0.23655  1.0000
  C   C1136     1.0  0.23819  0.94078  0.29052  1.0000
  H   H1129     1.0  0.46888  0.95256  0.38551  1.0000
  S   S408      1.0  0.12744  0.75511  0.27831  1.0000
  H   H1130     1.0  0.18469  0.87366  0.24659  1.0000
  H   H1131     1.0  0.02374  0.70471  0.28891  1.0000
  C   C1137     1.0  0.11938  0.69380  0.30855  1.0000
  C   C1138     1.0  0.09340  0.73679  0.31000  1.0000
  C   C1139     1.0  0.40399  0.93137  0.45022  1.0000
  C   C1140     1.0  0.16016  0.92912  0.28185  1.0000
  C   C1141     1.0  0.15730  0.92508  0.27133  1.0000
  C   C1142     1.0  0.16856  0.91055  0.26650  1.0000
  C   C1143     1.0  0.18302  0.90037  0.27196  1.0000
  C   C1144     1.0  0.18615  0.90469  0.28229  1.0000
  C   C1145     1.0  0.17460  0.91894  0.28731  1.0000
  H   H1132     1.0  0.14617  0.93298  0.26707  1.0000
  H   H1133     1.0  0.16616  0.90732  0.25847  1.0000
  H   H1134     1.0  0.19738  0.89702  0.28646  1.0000
  H   H1135     1.0  0.17697  0.92218  0.29531  1.0000
  C   C1146     1.0  0.20075  0.92749  0.33944  1.0000
  C   C1147     1.0  0.21726  0.92216  0.34308  1.0000
  C   C1148     1.0  0.22352  0.93389  0.34718  1.0000
  C   C1149     1.0  0.21318  0.95090  0.34776  1.0000
  C   C1150     1.0  0.19676  0.95630  0.34401  1.0000
  C   C1151     1.0  0.19046  0.94456  0.33999  1.0000
  H   H1136     1.0  0.22522  0.90893  0.34277  1.0000
  H   H1137     1.0  0.23616  0.92959  0.35015  1.0000
  H   H1138     1.0  0.18878  0.96950  0.34436  1.0000
  H   H1139     1.0  0.17754  0.94871  0.33746  1.0000
  C   C1152     1.0  0.07087  0.90146  0.31883  1.0000
  C   C1153     1.0  0.07436  0.91719  0.31972  1.0000
  C   C1154     1.0  0.08784  0.91668  0.32578  1.0000
  C   C1155     1.0  0.09781  0.90042  0.33103  1.0000
  C   C1156     1.0  0.09500  0.88471  0.32952  1.0000
  C   C1157     1.0  0.08156  0.88522  0.32340  1.0000
  H   H1140     1.0  0.06620  0.92981  0.31612  1.0000
  H   H1141     1.0  0.08986  0.92886  0.32694  1.0000
  H   H1142     1.0  0.10282  0.87210  0.33347  1.0000
  H   H1143     1.0  0.07905  0.87302  0.32270  1.0000
  C   C1158     1.0  0.21120  0.77756  0.29759  1.0000
  C   C1159     1.0  0.22192  0.77206  0.30655  1.0000
  C   C1160     1.0  0.23090  0.78371  0.30825  1.0000
  C   C1161     1.0  0.22941  0.80094  0.30092  1.0000
  C   C1162     1.0  0.21853  0.80663  0.29200  1.0000
  C   C1163     1.0  0.20935  0.79495  0.29037  1.0000
  H   H1144     1.0  0.22338  0.75868  0.31216  1.0000
  H   H1145     1.0  0.23920  0.77927  0.31519  1.0000
  H   H1146     1.0  0.21710  0.82002  0.28644  1.0000
  H   H1147     1.0  0.20095  0.79937  0.28352  1.0000
  C   C1164     1.0  0.09201  0.84440  0.27135  1.0000
  C   C1165     1.0  0.10152  0.84888  0.25892  1.0000
  C   C1166     1.0  0.12030  0.84534  0.25619  1.0000
  C   C1167     1.0  0.12963  0.83678  0.26583  1.0000
  C   C1168     1.0  0.12017  0.83227  0.27829  1.0000
  C   C1169     1.0  0.10133  0.83636  0.28109  1.0000
  H   H1148     1.0  0.09434  0.85510  0.25138  1.0000
  H   H1149     1.0  0.35850  0.98288  0.44825  1.0000
  H   H1150     1.0  0.12740  0.82562  0.28576  1.0000
  H   H1151     1.0  0.09407  0.83259  0.29068  1.0000
  N   N93       1.0  0.20001  0.84773  0.24487  1.0000
  H   H1152     1.0  0.34229  0.91633  0.37832  1.0000
  H   H1153     1.0  0.42134  0.90544  0.45192  1.0000
  H   H1154     1.0  0.43931  0.90959  0.42862  1.0000
  H   H1155     1.0  0.09266  0.74877  0.29049  1.0000
  C   C1170     1.0  0.02413  0.77711  0.34653  1.0000
  C   C1171     1.0  0.01721  0.79537  0.34440  1.0000
  C   C1172     1.0  0.02874  0.80712  0.34122  1.0000
  C   C1173     1.0  0.04706  0.80055  0.34096  1.0000
  C   C1174     1.0  0.05379  0.78228  0.34394  1.0000
  C   C1175     1.0  0.04243  0.77057  0.34638  1.0000
  C   C1176     1.0  0.46732  0.96389  0.42496  1.0000
  H   H1156     1.0  0.02341  0.82125  0.33911  1.0000
  H   H1157     1.0  0.06784  0.77714  0.34409  1.0000
  H   H1158     1.0  0.04788  0.75650  0.34821  1.0000
  H   H1159     1.0  0.20319  0.95047  0.31405  1.0000
  H   H1160     1.0  0.17205  0.85881  0.24577  1.0000
  C   C1177     1.0  0.05875  0.66570  0.38093  1.0000
  C   C1178     1.0  0.05613  0.85743  0.34982  1.0000
  H   H1161     1.0  0.07747  0.83712  0.35661  1.0000
  H   H1162     1.0  0.46727  0.91549  0.42858  1.0000
  S   S409      1.0  0.09521  0.71999  0.33463  1.0000
  H   H1163     1.0  0.19649  0.94349  0.29367  1.0000
  C   C1179     1.0  0.01693  0.70245  0.30908  1.0000
  S   S410      1.0  0.37678  0.98916  0.39865  1.0000
  H   H1164     1.0  0.22072  0.73752  0.25691  1.0000
  H   H1165     1.0  0.03721  0.69373  0.39741  1.0000
  C   C1180     1.0  0.34576  0.95531  0.38135  1.0000
  C   C1181     1.0  0.33325  0.94930  0.39201  1.0000
  C   C1182     1.0  0.31756  0.94579  0.39057  1.0000
  C   C1183     1.0  0.31403  0.94864  0.37851  1.0000
  C   C1184     1.0  0.32620  0.95531  0.36788  1.0000
  C   C1185     1.0  0.34211  0.95839  0.36930  1.0000
  H   H1166     1.0  0.33595  0.94680  0.40133  1.0000
  H   H1167     1.0  0.30825  0.94053  0.39884  1.0000
  H   H1168     1.0  0.32366  0.95755  0.35854  1.0000
  C   C1186     1.0  0.44251  0.97746  0.40908  1.0000
  N   N94       1.0  0.09304  0.70506  0.29437  1.0000
  C   C1187     1.0  0.17812  0.95647  0.37340  1.0000
  C   C1188     1.0  0.21616  0.85184  0.24354  1.0000
  H   H1169     1.0  0.31614  0.80755  0.24604  1.0000
  H   H1170     1.0  0.36003  0.93863  0.46669  1.0000
  H   H1171     1.0  0.05082  0.84833  0.34701  1.0000
  C   C1189     1.0  0.04681  0.90594  0.34898  1.0000
  C   C1190     1.0  0.15680  0.94779  0.36641  1.0000
  C   C1191     1.0  0.10371  0.73112  0.31921  1.0000
  C   C1192     1.0  0.08913  0.69635  0.30671  1.0000
  C   C1193     1.0  0.43667  0.92134  0.42091  1.0000
  N   N95       1.0  0.22139  0.94161  0.29813  1.0000
  H   H1172     1.0  0.03584  0.90878  0.35720  1.0000
  H   H1173     1.0  0.12758  0.84881  0.24654  1.0000
  H   H1174     1.0  0.46306  0.99015  0.39606  1.0000
  H   H1175     1.0  0.18660  0.82866  0.24386  1.0000
  H   H1176     1.0  0.22495  0.96327  0.31894  1.0000
  C   C1194     1.0  0.18196  0.92579  0.37301  1.0000
  C   C1195     1.0  0.25072  0.94807  0.29294  1.0000
  S   S411      1.0  0.04740  0.71949  0.35810  1.0000
  C   C1196     1.0  0.21650  0.94990  0.30805  1.0000
  S   S412      1.0  0.01678  0.71391  0.34537  1.0000
  C   C1197     1.0  0.25900  0.76094  0.25273  1.0000
  H   H1177     1.0  0.24231  0.74176  0.23631  1.0000
  C   C1198     1.0  0.07866  0.71206  0.28730  1.0000
  H   H1178     1.0  0.40803  0.96474  0.46195  1.0000
  H   H1179     1.0  0.25574  0.96143  0.30540  1.0000
  H   H1180     1.0  0.49584  0.94457  0.39487  1.0000
  C   C1199     1.0  0.47178  0.97504  0.41318  1.0000
  Fe  Fe203     1.0  0.03798  0.69679  0.35589  1.0000
  H   H1181     1.0  0.13889  0.98034  0.36653  1.0000
  C   C1200     1.0  0.45351  0.93759  0.40173  1.0000
  C   C1201     1.0  0.12867  0.74161  0.30348  1.0000
  H   H1182     1.0  0.24059  0.77938  0.27370  1.0000
  H   H1183     1.0  0.42721  0.93219  0.42522  1.0000
  N   N96       1.0  0.05524  0.88703  0.35114  1.0000
  C   C1202     1.0  0.34419  0.92239  0.34150  1.0000
  H   H1184     1.0  0.08233  0.65815  0.38890  1.0000
  C   C1203     1.0  0.23171  0.74382  0.25575  1.0000
  N   N97       1.0  0.33295  0.91169  0.36363  1.0000
  H   H1185     1.0  0.18338  0.96678  0.37476  1.0000
  H   H1186     1.0  0.49481  0.92610  0.41659  1.0000
  H   H1187     1.0  0.14239  0.74324  0.30096  1.0000
  C   C1204     1.0  0.10985  0.70826  0.28895  1.0000
  C   C1205     1.0  0.10222  0.69058  0.31399  1.0000
  C   C1206     1.0  0.20851  0.93332  0.29594  1.0000
  H   H1188     1.0  0.34261  0.89347  0.37912  1.0000
  N   N98       1.0  0.04971  0.66505  0.42876  1.0000
  H   H1189     1.0  0.24303  0.75758  0.28381  1.0000
  Fe  Fe204     1.0  0.06641  0.71712  0.33934  1.0000
  C   C1207     1.0  0.46891  0.94382  0.39475  1.0000
  C   C1208     1.0  0.11842  0.74677  0.29424  1.0000
  N   N99       1.0  0.09082  0.78615  0.30711  1.0000
  C   C1209     1.0  0.10461  0.78742  0.29673  1.0000
  C   C1210     1.0  0.07343  0.79291  0.30587  1.0000
  C   C1211     1.0  0.10117  0.79509  0.28466  1.0000
  C   C1212     1.0  0.06951  0.80077  0.29392  1.0000
  C   C1213     1.0  0.08350  0.80184  0.28327  1.0000
  C   C1214     1.0  0.09454  0.77785  0.31970  1.0000
  H   H1190     1.0  0.11839  0.78218  0.29770  1.0000
  H   H1191     1.0  0.06253  0.79233  0.31417  1.0000
  H   H1192     1.0  0.11217  0.79591  0.27645  1.0000
  H   H1193     1.0  0.05577  0.80627  0.29287  1.0000
  H   H1194     1.0  0.08066  0.80828  0.27399  1.0000
  H   H1195     1.0  0.08639  0.76769  0.32457  1.0000
  H   H1196     1.0  0.10884  0.77101  0.31927  1.0000
  H   H1197     1.0  0.09123  0.78807  0.32542  1.0000
  H   H1198     1.0  0.44669  0.95135  0.43801  1.0000
  C   C1215     1.0  0.31920  0.90723  0.36087  1.0000
  H   H1199     1.0  0.32921  0.92011  0.32883  1.0000
  C   C1216     1.0  0.31773  0.91009  0.34832  1.0000
  C   C1217     1.0  0.19940  0.83213  0.24246  1.0000
  C   C1218     1.0  0.33038  0.91763  0.33859  1.0000
  C   C1219     1.0  0.41089  0.95179  0.45982  1.0000
  H   H1200     1.0  0.30676  0.90669  0.34611  1.0000
  H   H1201     1.0  0.12940  0.69006  0.31426  1.0000
  S   S413      1.0  0.48303  0.95371  0.43463  1.0000
  H   H1202     1.0  0.06223  0.65974  0.44430  1.0000
  C   C1220     1.0  0.23350  0.75012  0.26566  1.0000
  H   H1203     1.0  0.45284  0.97309  0.45040  1.0000
  H   H1204     1.0  0.37658  0.98740  0.46156  1.0000
  H   H1205     1.0  0.00300  0.80038  0.34505  1.0000
  C   C1221     1.0  0.06968  0.88087  0.35677  1.0000
  H   H1206     1.0  0.20050  0.93590  0.37858  1.0000
  H   H1207     1.0  0.22385  0.74841  0.27458  1.0000
  N   N100      1.0  0.24714  0.75839  0.26411  1.0000
  C   C1222     1.0  0.43791  0.96668  0.42100  1.0000
  C   C1223     1.0  0.36572  0.93878  0.47441  1.0000
  C   C1224     1.0  0.40011  0.94802  0.45326  1.0000
  H   H1208     1.0  0.44116  0.91249  0.46260  1.0000
  C   C1225     1.0  0.22870  0.95727  0.31079  1.0000
  C   C1226     1.0  0.12132  0.73373  0.31594  1.0000
  H   H1209     1.0  0.12940  0.72938  0.32302  1.0000
  C   C1227     1.0  0.07111  0.85110  0.35527  1.0000
  H   H1210     1.0  0.24227  0.93376  0.28286  1.0000
  Fe  Fe205     1.0  0.03848  0.71149  0.32802  1.0000
  C   C1228     1.0  0.03282  0.66730  0.42687  1.0000
  H   H1211     1.0  0.07578  0.67051  0.42085  1.0000
  C   C1229     1.0  0.12328  0.70261  0.29594  1.0000
  C   C1230     1.0  0.24843  0.76551  0.27445  1.0000
  S   S414      1.0  0.04729  0.73568  0.32781  1.0000
  C   C1231     1.0  0.10068  0.74467  0.29759  1.0000
  H   H1212     1.0  0.26427  0.94669  0.28723  1.0000
  C   C1232     1.0  0.01390  0.70183  0.29755  1.0000
  S   S415      1.0  0.05895  0.69256  0.33834  1.0000
  C   C1233     1.0  0.41844  0.91841  0.45403  1.0000
  C   C1234     1.0  0.46781  0.92297  0.41892  1.0000
  Fe  Fe206     1.0  0.27886  0.98092  0.33668  1.0000
  Fe  Fe207     1.0  0.36264  0.98511  0.41901  1.0000
  C   C1235     1.0  0.23223  0.84048  0.23928  1.0000
  N   N101      1.0  0.45320  0.92711  0.41359  1.0000
  S   S416      1.0  0.42771  0.98504  0.39865  1.0000
  H   H1213     1.0  0.01053  0.74412  0.30577  1.0000
  C   C1236     1.0  0.18791  0.93899  0.37557  1.0000
  C   C1237     1.0  0.24384  0.74623  0.24415  1.0000
  H   H1214     1.0  0.00633  0.69916  0.32914  1.0000
  H   H1215     1.0  0.06778  0.68960  0.40099  1.0000
  C   C1238     1.0  0.37847  0.92421  0.47879  1.0000
  H   H1216     1.0  0.15444  0.98686  0.37239  1.0000
  H   H1217     1.0  0.05678  0.91413  0.34747  1.0000
  C   C1239     1.0  0.07792  0.86285  0.35883  1.0000
  C   C1240     1.0  0.24593  0.95630  0.30317  1.0000
  H   H1218     1.0  0.30916  0.90162  0.36841  1.0000
  C   C1241     1.0  0.42579  0.93900  0.46312  1.0000
  H   H1219     1.0  0.08402  0.71556  0.27695  1.0000
  H   H1220     1.0  0.08975  0.85817  0.36288  1.0000
  N   N102      1.0  0.21131  0.86229  0.32435  1.0000
  C   C1242     1.0  0.21520  0.84469  0.32413  1.0000
  C   C1243     1.0  0.19534  0.87292  0.32197  1.0000
  C   C1244     1.0  0.20307  0.83738  0.32125  1.0000
  C   C1245     1.0  0.18292  0.86606  0.31904  1.0000
  C   C1246     1.0  0.18688  0.84818  0.31863  1.0000
  C   C1247     1.0  0.22430  0.86961  0.32733  1.0000
  H   H1221     1.0  0.22799  0.83628  0.32576  1.0000
  H   H1222     1.0  0.19226  0.88687  0.32208  1.0000
  H   H1223     1.0  0.20646  0.82352  0.32073  1.0000
  H   H1224     1.0  0.17043  0.87463  0.31694  1.0000
  H   H1225     1.0  0.17754  0.84272  0.31615  1.0000
  H   H1226     1.0  0.23804  0.86510  0.32186  1.0000
  H   H1227     1.0  0.22130  0.88433  0.32470  1.0000
  H   H1228     1.0  0.22408  0.86554  0.33760  1.0000
  N   N103      1.0  0.09832  0.89250  0.28395  1.0000
  C   C1248     1.0  0.11467  0.88168  0.28060  1.0000
  C   C1249     1.0  0.09688  0.90607  0.28958  1.0000
  C   C1250     1.0  0.13006  0.88403  0.28320  1.0000
  C   C1251     1.0  0.11197  0.90874  0.29238  1.0000
  C   C1252     1.0  0.12862  0.89759  0.28920  1.0000
  C   C1253     1.0  0.08247  0.89023  0.28076  1.0000
  H   H1229     1.0  0.11590  0.87118  0.27585  1.0000
  H   H1230     1.0  0.08398  0.91488  0.29200  1.0000
  H   H1231     1.0  0.14303  0.87548  0.28049  1.0000
  H   H1232     1.0  0.11080  0.91946  0.29692  1.0000
  H   H1233     1.0  0.14042  0.89961  0.29127  1.0000
  H   H1234     1.0  0.08327  0.87610  0.28110  1.0000
  H   H1235     1.0  0.06999  0.89468  0.28758  1.0000
  H   H1236     1.0  0.08129  0.89798  0.27111  1.0000
  C   C1254     1.0  0.48776  0.92780  0.46625  1.0000
  H   H1237     1.0  0.00513  0.84325  0.29372  1.0000
  C   C1255     1.0  0.04827  0.87555  0.34785  1.0000
  H   H1238     1.0  0.35169  0.96308  0.36099  1.0000
  H   H1239     1.0  0.26258  0.76527  0.27423  1.0000
  H   H1240     1.0  0.42498  0.96322  0.42408  1.0000
  H   H1241     1.0  0.11280  0.71587  0.27934  1.0000
  C   C1256     1.0  0.45940  0.98182  0.40527  1.0000
  C   C1257     1.0  0.04057  0.68604  0.40634  1.0000
  H   H1242     1.0  0.32175  0.90892  0.38340  1.0000
  H   H1243     1.0  0.03682  0.88047  0.34338  1.0000
  H   H1244     1.0  0.00393  0.67066  0.35784  1.0000
  S   S417      1.0  0.01010  0.76257  0.34868  1.0000
  C   C1258     1.0  0.05773  0.68374  0.40835  1.0000
  H   H1245     1.0  0.15933  0.98526  0.35601  1.0000
  H   H1246     1.0  0.38259  0.91272  0.47453  1.0000
  S   S418      1.0  0.02785  0.67532  0.37162  1.0000
  H   H1247     1.0  0.48492  0.97805  0.40996  1.0000
  H   H1248     1.0  0.07041  0.70210  0.28905  1.0000
  C   C1259     1.0  0.06215  0.67299  0.41963  1.0000
  C   C1260     1.0  0.34535  0.91920  0.35415  1.0000
  H   H1249     1.0  0.35614  0.92291  0.35634  1.0000
  H   H1250     1.0  0.17474  0.75024  0.23873  1.0000
  H   H1251     1.0  0.07567  0.69422  0.31106  1.0000
  H   H1252     1.0  0.13636  0.70583  0.29176  1.0000
  C   C1261     1.0  0.28092  0.83815  0.24117  1.0000
  C   C1262     1.0  0.18331  0.85965  0.24952  1.0000
  C   C1263     1.0  0.16627  0.93016  0.36846  1.0000
  H   H1253     1.0  0.06401  0.67535  0.37299  1.0000
  S   S419      1.0  0.44148  0.94412  0.46915  1.0000
  S   S420      1.0  0.12874  0.97915  0.34286  1.0000
  C   C1264     1.0  0.04158  0.66296  0.38230  1.0000
  C   C1265     1.0  0.00410  0.69876  0.32020  1.0000
  H   H1254     1.0  0.00701  0.75345  0.32584  1.0000
  H   H1255     1.0  0.02302  0.66076  0.43397  1.0000
  S   S421      1.0  0.20470  0.76679  0.23527  1.0000
  H   H1256     1.0  0.00624  0.81283  0.31999  1.0000
  H   H1257     1.0  0.31675  0.82876  0.24776  1.0000
  N   N104      1.0  0.16272  0.96064  0.36895  1.0000
  H   H1258     1.0  0.21668  0.86397  0.24579  1.0000
  H   H1259     1.0  0.14494  0.95123  0.36244  1.0000
  C   C1266     1.0  0.15340  0.97919  0.36586  1.0000
  H   H1260     1.0  0.26964  0.76776  0.25139  1.0000
  C   C1267     1.0  0.25756  0.75489  0.24259  1.0000
  C   C1268     1.0  0.21522  0.82044  0.23821  1.0000
  H   H1261     1.0  0.00348  0.79437  0.30641  1.0000
  H   H1262     1.0  0.01484  0.67904  0.41398  1.0000
  H   H1263     1.0  0.42486  0.98758  0.46348  1.0000
  H   H1264     1.0  0.35141  0.96522  0.47597  1.0000
  H   H1265     1.0  0.47953  0.98630  0.44367  1.0000
  H   H1266     1.0  0.33546  0.98895  0.38944  1.0000
  H   H1267     1.0  0.21468  0.80809  0.23628  1.0000
  C   C1269     1.0  0.45235  0.98516  0.45315  1.0000
  H   H1268     1.0  0.24498  0.84388  0.23817  1.0000
  H   H1269     1.0  0.46810  0.92145  0.48328  1.0000
  H   H1270     1.0  0.30652  0.99006  0.34387  1.0000
  H   H1271     1.0  0.14810  0.99022  0.31712  1.0000
  H   H1272     1.0  0.43565  0.98972  0.54527  1.0000
  H   H1273     1.0  0.35411  0.79676  0.71339  1.0000
  C   C1270     1.0  0.08394  0.66844  0.57224  1.0000
  H   H1274     1.0  0.44885  0.97274  0.53671  1.0000
  S   S422      1.0  0.43447  0.93563  0.50515  1.0000
  C   C1271     1.0  0.11906  0.75357  0.61558  1.0000
  Fe  Fe208     1.0  0.40978  0.95443  0.51293  1.0000
  S   S423      1.0  0.38530  0.94506  0.52554  1.0000
  Fe  Fe209     1.0  0.44981  0.95298  0.50850  1.0000
  S   S424      1.0  0.40727  0.97265  0.49413  1.0000
  H   H1275     1.0  0.16552  0.91000  0.64785  1.0000
  Fe  Fe210     1.0  0.32890  0.97917  0.58582  1.0000
  S   S425      1.0  0.33774  0.95935  0.60259  1.0000
  C   C1272     1.0  0.12456  0.67397  0.59261  1.0000
  H   H1276     1.0  0.39664  0.91373  0.49154  1.0000
  S   S426      1.0  0.29638  0.97096  0.61864  1.0000
  H   H1277     1.0  0.12874  0.71618  0.58865  1.0000
  Fe  Fe211     1.0  0.32195  0.98042  0.61335  1.0000
  C   C1273     1.0  0.08475  0.69644  0.55121  1.0000
  Fe  Fe212     1.0  0.31117  0.95163  0.60633  1.0000
  S   S427      1.0  0.30501  0.92428  0.61245  1.0000
  C   C1274     1.0  0.02359  0.70218  0.58703  1.0000
  S   S428      1.0  0.30386  0.96944  0.58836  1.0000
  Fe  Fe213     1.0  0.19569  0.78167  0.64853  1.0000
  S   S429      1.0  0.18407  0.78877  0.66734  1.0000
  S   S430      1.0  0.22416  0.78298  0.63846  1.0000
  Fe  Fe214     1.0  0.16029  0.77441  0.64644  1.0000
  S   S431      1.0  0.14647  0.78017  0.66561  1.0000
  S   S432      1.0  0.14324  0.77613  0.63264  1.0000
  Fe  Fe215     1.0  0.15980  0.80329  0.65948  1.0000
  S   S433      1.0  0.14743  0.83185  0.66003  1.0000
  Fe  Fe216     1.0  0.17224  0.76489  0.67171  1.0000
  S   S434      1.0  0.17358  0.74483  0.69014  1.0000
  S   S435      1.0  0.17251  0.79835  0.64013  1.0000
  S   S436      1.0  0.18509  0.75693  0.65300  1.0000
  Fe  Fe217     1.0  0.06512  0.85790  0.64410  1.0000
  S   S437      1.0  0.09148  0.85922  0.63064  1.0000
  S   S438      1.0  0.06480  0.84412  0.66421  1.0000
  Fe  Fe218     1.0  0.04397  0.87340  0.62362  1.0000
  S   S439      1.0  0.06849  0.87671  0.60828  1.0000
  C   C1275     1.0  0.22091  0.80477  0.72963  1.0000
  Fe  Fe219     1.0  0.08054  0.84969  0.61809  1.0000
  S   S440      1.0  0.09818  0.82867  0.60798  1.0000
  Fe  Fe220     1.0  0.07749  0.88623  0.62209  1.0000
  S   S441      1.0  0.09309  0.90791  0.61465  1.0000
  S   S442      1.0  0.05555  0.84547  0.63247  1.0000
  S   S443      1.0  0.05159  0.88575  0.63661  1.0000
  Fe  Fe221     1.0  0.15062  0.95622  0.65236  1.0000
  S   S444      1.0  0.15398  0.97075  0.66678  1.0000
  S   S445      1.0  0.11382  0.93921  0.65361  1.0000
  Fe  Fe222     1.0  0.19000  0.96078  0.63759  1.0000
  H   H1278     1.0  0.01983  0.66110  0.59911  1.0000
  S   S446      1.0  0.21074  0.95207  0.62134  1.0000
  Fe  Fe223     1.0  0.18187  0.95444  0.66587  1.0000
  S   S447      1.0  0.19381  0.94146  0.68285  1.0000
  C   C1276     1.0  0.09418  0.75872  0.64562  1.0000
  H   H1279     1.0  0.11054  0.80109  0.64660  1.0000
  S   S448      1.0  0.17969  0.93938  0.65265  1.0000
  C   C1277     1.0  0.02526  0.86300  0.58843  1.0000
  Fe  Fe224     1.0  0.26729  0.83542  0.66740  1.0000
  S   S449      1.0  0.25356  0.82293  0.68660  1.0000
  S   S450      1.0  0.27202  0.82655  0.64926  1.0000
  Fe  Fe225     1.0  0.27307  0.86549  0.67642  1.0000
  S   S451      1.0  0.25951  0.85575  0.69657  1.0000
  S   S452      1.0  0.28406  0.89031  0.67064  1.0000
  Fe  Fe226     1.0  0.27495  0.82875  0.69358  1.0000
  H   H1280     1.0  0.21566  0.71055  0.69082  1.0000
  Fe  Fe227     1.0  0.23948  0.85080  0.68790  1.0000
  S   S453      1.0  0.20952  0.85819  0.69341  1.0000
  S   S454      1.0  0.29014  0.83882  0.67405  1.0000
  S   S455      1.0  0.25162  0.86297  0.66812  1.0000
  S   S456      1.0  0.11463  0.71994  0.61716  1.0000
  H   H1281     1.0  0.27317  0.83625  0.72055  1.0000
  Fe  Fe228     1.0  0.08094  0.72732  0.58289  1.0000
  Fe  Fe229     1.0  0.06495  0.75909  0.59540  1.0000
  S   S457      1.0  0.06435  0.74239  0.61495  1.0000
  S   S458      1.0  0.05161  0.78786  0.59377  1.0000
  Fe  Fe230     1.0  0.09199  0.72857  0.60655  1.0000
  Fe  Fe231     1.0  0.05448  0.72397  0.60797  1.0000
  S   S459      1.0  0.03045  0.71235  0.61847  1.0000
  S   S460      1.0  0.09332  0.74651  0.58726  1.0000
  S   S461      1.0  0.05282  0.74188  0.58909  1.0000
  C   C1278     1.0  0.08458  0.69937  0.56300  1.0000
  H   H1282     1.0  0.38757  0.97900  0.52801  1.0000
  H   H1283     1.0  0.08693  0.80984  0.65231  1.0000
  H   H1284     1.0  0.09750  0.81605  0.63585  1.0000
  C   C1279     1.0  0.02159  0.70616  0.60803  1.0000
  Fe  Fe232     1.0  0.16693  0.98981  0.65070  1.0000
  H   H1285     1.0  0.12406  0.66231  0.57769  1.0000
  C   C1280     1.0  0.24187  0.96236  0.60807  1.0000
  C   C1281     1.0  0.00595  0.77899  0.61160  1.0000
  N   N105      1.0  0.12718  0.68901  0.57079  1.0000
  H   H1286     1.0  0.34867  0.97516  0.49599  1.0000
  H   H1287     1.0  0.26749  0.77952  0.72805  1.0000
  C   C1282     1.0  0.19691  0.91836  0.68661  1.0000
  C   C1283     1.0  0.18647  0.90990  0.68297  1.0000
  C   C1284     1.0  0.18982  0.89132  0.68555  1.0000
  C   C1285     1.0  0.20387  0.88126  0.69148  1.0000
  C   C1286     1.0  0.21420  0.88975  0.69516  1.0000
  C   C1287     1.0  0.21048  0.90825  0.69296  1.0000
  H   H1288     1.0  0.17568  0.91767  0.67837  1.0000
  H   H1289     1.0  0.18174  0.88480  0.68275  1.0000
  H   H1290     1.0  0.22495  0.88206  0.69985  1.0000
  H   H1291     1.0  0.21841  0.91475  0.69593  1.0000
  H   H1292     1.0  0.16789  0.92494  0.63265  1.0000
  C   C1288     1.0  0.20007  0.73457  0.71844  1.0000
  H   H1293     1.0  0.19991  0.77308  0.73085  1.0000
  S   S462      1.0  0.01620  0.88117  0.61945  1.0000
  H   H1294     1.0  0.20444  0.82105  0.70286  1.0000
  C   C1289     1.0  0.47683  0.97846  0.51060  1.0000
  C   C1290     1.0  0.01698  0.84625  0.62084  1.0000
  H   H1295     1.0  0.47632  0.96210  0.54292  1.0000
  H   H1296     1.0  0.03103  0.84360  0.62072  1.0000
  C   C1291     1.0  0.48571  0.96082  0.51399  1.0000
  C   C1292     1.0  0.10923  0.93002  0.64247  1.0000
  C   C1293     1.0  0.11289  0.93728  0.62946  1.0000
  C   C1294     1.0  0.10809  0.93021  0.62104  1.0000
  C   C1295     1.0  0.09932  0.91604  0.62552  1.0000
  C   C1296     1.0  0.09569  0.90871  0.63849  1.0000
  C   C1297     1.0  0.10057  0.91573  0.64692  1.0000
  H   H1297     1.0  0.11851  0.94889  0.62584  1.0000
  H   H1298     1.0  0.11068  0.93610  0.61104  1.0000
  H   H1299     1.0  0.08885  0.89784  0.64203  1.0000
  H   H1300     1.0  0.09738  0.91020  0.65696  1.0000
  C   C1298     1.0  0.08546  0.81814  0.60308  1.0000
  C   C1299     1.0  0.09353  0.80218  0.59917  1.0000
  C   C1300     1.0  0.08315  0.79281  0.59632  1.0000
  C   C1301     1.0  0.06476  0.79960  0.59710  1.0000
  C   C1302     1.0  0.05674  0.81575  0.60078  1.0000
  C   C1303     1.0  0.06707  0.82500  0.60382  1.0000
  H   H1301     1.0  0.10776  0.79693  0.59846  1.0000
  H   H1302     1.0  0.08944  0.78042  0.59341  1.0000
  H   H1303     1.0  0.04250  0.82089  0.60149  1.0000
  H   H1304     1.0  0.06083  0.83742  0.60672  1.0000
  C   C1304     1.0  0.23694  0.79475  0.64239  1.0000
  C   C1305     1.0  0.25179  0.79937  0.63327  1.0000
  C   C1306     1.0  0.26237  0.80893  0.63566  1.0000
  C   C1307     1.0  0.25843  0.81385  0.64727  1.0000
  C   C1308     1.0  0.24369  0.80905  0.65660  1.0000
  C   C1309     1.0  0.23288  0.79954  0.65414  1.0000
  H   H1305     1.0  0.25511  0.79563  0.62423  1.0000
  H   H1306     1.0  0.27373  0.81252  0.62842  1.0000
  H   H1307     1.0  0.24056  0.81278  0.66561  1.0000
  H   H1308     1.0  0.22157  0.79583  0.66132  1.0000
  C   C1310     1.0  0.18781  0.74603  0.69939  1.0000
  C   C1311     1.0  0.18798  0.73463  0.71130  1.0000
  H   H1309     1.0  0.38748  0.94025  0.50076  1.0000
  C   C1312     1.0  0.21210  0.74587  0.71362  1.0000
  C   C1313     1.0  0.21177  0.75742  0.70184  1.0000
  C   C1314     1.0  0.19973  0.75745  0.69474  1.0000
  C   C1315     1.0  0.00419  0.70301  0.61174  1.0000
  C   C1316     1.0  0.00904  0.83220  0.62194  1.0000
  H   H1310     1.0  0.22118  0.76607  0.69801  1.0000
  H   H1311     1.0  0.20021  0.76586  0.68549  1.0000
  C   C1317     1.0  0.08684  0.84151  0.66563  1.0000
  C   C1318     1.0  0.09557  0.85559  0.66026  1.0000
  C   C1319     1.0  0.11405  0.85284  0.65934  1.0000
  C   C1320     1.0  0.12391  0.83586  0.66343  1.0000
  C   C1321     1.0  0.11499  0.82202  0.66945  1.0000
  C   C1322     1.0  0.09642  0.82486  0.67063  1.0000
  H   H1312     1.0  0.08811  0.86855  0.65656  1.0000
  H   H1313     1.0  0.12071  0.86377  0.65508  1.0000
  H   H1314     1.0  0.12234  0.80914  0.67323  1.0000
  H   H1315     1.0  0.08966  0.81399  0.67494  1.0000
  C   C1323     1.0  0.13649  0.75992  0.62809  1.0000
  C   C1324     1.0  0.14068  0.74188  0.63356  1.0000
  C   C1325     1.0  0.13408  0.72973  0.63001  1.0000
  C   C1326     1.0  0.12311  0.73554  0.62109  1.0000
  H   H1316     1.0  0.14890  0.73728  0.64055  1.0000
  H   H1317     1.0  0.13734  0.71579  0.63429  1.0000
  C   C1327     1.0  0.29688  0.91674  0.62871  1.0000
  C   C1328     1.0  0.28763  0.90294  0.63269  1.0000
  C   C1329     1.0  0.28301  0.89514  0.64560  1.0000
  C   C1330     1.0  0.28775  0.90106  0.65457  1.0000
  C   C1331     1.0  0.29630  0.91538  0.65064  1.0000
  C   C1332     1.0  0.30081  0.92324  0.63774  1.0000
  H   H1318     1.0  0.28447  0.89793  0.62574  1.0000
  H   H1319     1.0  0.27634  0.88419  0.64854  1.0000
  H   H1320     1.0  0.29990  0.92009  0.65755  1.0000
  H   H1321     1.0  0.30799  0.93386  0.63477  1.0000
  H   H1322     1.0  0.03479  0.67425  0.56967  1.0000
  C   C1333     1.0  0.00376  0.88798  0.65255  1.0000
  H   H1323     1.0  0.01321  0.68470  0.54007  1.0000
  H   H1324     1.0  0.33295  0.82592  0.71228  1.0000
  N   N106      1.0  0.36852  0.95407  0.48916  1.0000
  S   S463      1.0  0.16289  0.97771  0.63617  1.0000
  H   H1325     1.0  0.11410  0.97507  0.66325  1.0000
  C   C1334     1.0  0.38640  0.92481  0.48827  1.0000
  H   H1326     1.0  0.24653  0.94919  0.60616  1.0000
  H   H1327     1.0  0.23037  0.70995  0.70735  1.0000
  H   H1328     1.0  0.21589  0.86496  0.66651  1.0000
  C   C1335     1.0  0.35167  0.80411  0.72069  1.0000
  C   C1336     1.0  0.01955  0.85739  0.65965  1.0000
  N   N107      1.0  0.09235  0.79002  0.64177  1.0000
  C   C1337     1.0  0.24035  0.74677  0.66927  1.0000
  H   H1329     1.0  0.33838  0.90909  0.62793  1.0000
  C   C1338     1.0  0.34324  0.89828  0.62261  1.0000
  C   C1339     1.0  0.12576  0.76566  0.61905  1.0000
  C   C1340     1.0  0.22657  0.74306  0.66562  1.0000
  H   H1330     1.0  0.01698  0.81879  0.62299  1.0000
  Fe  Fe233     1.0  0.42465  0.98657  0.49891  1.0000
  H   H1331     1.0  0.08356  0.68745  0.58270  1.0000
  H   H1332     1.0  0.31357  0.78814  0.72359  1.0000
  C   C1341     1.0  0.03134  0.70551  0.59570  1.0000
  H   H1333     1.0  0.02870  0.86237  0.66272  1.0000
  C   C1342     1.0  0.12903  0.68856  0.55754  1.0000
  H   H1334     1.0  0.22270  0.75046  0.65682  1.0000
  H   H1335     1.0  0.12273  0.66225  0.59995  1.0000
  C   C1343     1.0  0.37448  0.95738  0.53733  1.0000
  C   C1344     1.0  0.36198  0.95088  0.54788  1.0000
  C   C1345     1.0  0.35369  0.96057  0.55743  1.0000
  C   C1346     1.0  0.35786  0.97681  0.55639  1.0000
  C   C1347     1.0  0.38123  0.93993  0.49339  1.0000
  C   C1348     1.0  0.37834  0.97374  0.53623  1.0000
  H   H1336     1.0  0.35886  0.93826  0.54875  1.0000
  H   H1337     1.0  0.34415  0.95547  0.56560  1.0000
  C   C1349     1.0  0.02203  0.83910  0.66106  1.0000
  H   H1338     1.0  0.12954  0.71593  0.56649  1.0000
  N   N108      1.0  0.33275  0.88453  0.62832  1.0000
  C   C1350     1.0  0.32649  0.87774  0.62086  1.0000
  C   C1351     1.0  0.32964  0.87829  0.64113  1.0000
  C   C1352     1.0  0.31676  0.86437  0.62624  1.0000
  C   C1353     1.0  0.31997  0.86494  0.64682  1.0000
  C   C1354     1.0  0.31349  0.85795  0.63931  1.0000
  H   H1339     1.0  0.33420  0.88397  0.64708  1.0000
  C   C1355     1.0  0.21773  0.72989  0.67339  1.0000
  H   H1340     1.0  0.31701  0.86050  0.65702  1.0000
  H   H1341     1.0  0.30561  0.84785  0.64362  1.0000
  H   H1342     1.0  0.00603  0.78331  0.61991  1.0000
  C   C1356     1.0  0.21848  0.98460  0.61728  1.0000
  C   C1357     1.0  0.00336  0.79145  0.60053  1.0000
  C   C1358     1.0  0.09870  0.77312  0.64781  1.0000
  H   H1343     1.0  0.12238  0.77961  0.61486  1.0000
  C   C1359     1.0  0.08442  0.66542  0.56042  1.0000
  H   H1344     1.0  0.36942  0.78418  0.73155  1.0000
  H   H1345     1.0  0.08555  0.70717  0.54296  1.0000
  S   S464      1.0  0.28974  0.80733  0.70719  1.0000
  H   H1346     1.0  0.24713  0.75715  0.66330  1.0000
  C   C1360     1.0  0.08306  0.76173  0.63721  1.0000
  H   H1347     1.0  0.20027  0.72557  0.72754  1.0000
  H   H1348     1.0  0.46347  0.98154  0.50883  1.0000
  C   C1361     1.0  0.08367  0.68540  0.57358  1.0000
  C   C1362     1.0  0.07639  0.77902  0.63125  1.0000
  H   H1349     1.0  0.22222  0.82852  0.71490  1.0000
  C   C1363     1.0  0.08104  0.79310  0.63377  1.0000
  N   N109      1.0  0.46347  0.98949  0.53983  1.0000
  H   H1350     1.0  0.03115  0.70196  0.57747  1.0000
  C   C1364     1.0  0.09702  0.80498  0.64429  1.0000
  C   C1365     1.0  0.25351  0.97410  0.60395  1.0000
  C   C1366     1.0  0.29308  0.81187  0.72072  1.0000
  S   S465      1.0  0.45042  0.97100  0.48946  1.0000
  H   H1351     1.0  0.14821  0.92011  0.66677  1.0000
  H   H1352     1.0  0.01203  0.89552  0.59314  1.0000
  H   H1353     1.0  0.37024  0.98040  0.48778  1.0000
  C   C1367     1.0  0.12844  0.70399  0.57375  1.0000
  S   S466      1.0  0.42541  0.96962  0.51827  1.0000
  H   H1354     1.0  0.04490  0.70757  0.59281  1.0000
  H   H1355     1.0  0.01119  0.74183  0.60112  1.0000
  N   N110      1.0  0.13696  0.83739  0.61551  1.0000
  C   C1368     1.0  0.13062  0.85111  0.60643  1.0000
  C   C1369     1.0  0.14022  0.84065  0.62589  1.0000
  C   C1370     1.0  0.12784  0.86867  0.60749  1.0000
  C   C1371     1.0  0.13785  0.85803  0.62715  1.0000
  C   C1372     1.0  0.13158  0.87211  0.61789  1.0000
  C   C1373     1.0  0.13956  0.81902  0.61448  1.0000
  H   H1356     1.0  0.12725  0.84853  0.59848  1.0000
  H   H1357     1.0  0.14443  0.82980  0.63338  1.0000
  H   H1358     1.0  0.12226  0.87956  0.60052  1.0000
  H   H1359     1.0  0.14043  0.86051  0.63542  1.0000
  H   H1360     1.0  0.12903  0.88567  0.61895  1.0000
  H   H1361     1.0  0.15255  0.81096  0.61675  1.0000
  H   H1362     1.0  0.12856  0.81303  0.62113  1.0000
  H   H1363     1.0  0.13947  0.81808  0.60482  1.0000
  N   N111      1.0  0.20228  0.83897  0.64772  1.0000
  C   C1374     1.0  0.19147  0.84223  0.65897  1.0000
  C   C1375     1.0  0.21826  0.84427  0.64330  1.0000
  C   C1376     1.0  0.19620  0.85168  0.66586  1.0000
  C   C1377     1.0  0.22346  0.85366  0.64998  1.0000
  C   C1378     1.0  0.21218  0.85759  0.66123  1.0000
  C   C1379     1.0  0.19698  0.82899  0.64075  1.0000
  H   H1364     1.0  0.17914  0.83745  0.66272  1.0000
  H   H1365     1.0  0.22732  0.84086  0.63474  1.0000
  H   H1366     1.0  0.18766  0.85422  0.67481  1.0000
  C   C1380     1.0  0.08441  0.67958  0.54994  1.0000
  H   H1367     1.0  0.31148  0.85927  0.62035  1.0000
  H   H1368     1.0  0.18260  0.83408  0.64027  1.0000
  H   H1369     1.0  0.20510  0.82976  0.63093  1.0000
  H   H1370     1.0  0.19896  0.81485  0.64561  1.0000
  N   N112      1.0  0.14786  0.93547  0.64719  1.0000
  C   C1381     1.0  0.14098  0.95190  0.63901  1.0000
  C   C1382     1.0  0.14357  0.93282  0.66093  1.0000
  C   C1383     1.0  0.12840  0.96698  0.64480  1.0000
  C   C1384     1.0  0.13125  0.94748  0.66714  1.0000
  C   C1385     1.0  0.12358  0.96469  0.65895  1.0000
  C   C1386     1.0  0.15804  0.92050  0.64131  1.0000
  H   H1371     1.0  0.14435  0.95329  0.62885  1.0000
  C   C1387     1.0  0.00608  0.69936  0.59066  1.0000
  S   S467      1.0  0.19505  0.97428  0.65079  1.0000
  H   H1372     1.0  0.33133  0.85766  0.72442  1.0000
  H   H1373     1.0  0.26701  0.96991  0.59886  1.0000
  S   S468      1.0  0.22858  0.74520  0.72158  1.0000
  H   H1374     1.0  0.02184  0.75981  0.57341  1.0000
  H   H1375     1.0  0.03365  0.86414  0.57869  1.0000
  N   N113      1.0  0.25088  0.93868  0.64418  1.0000
  C   C1388     1.0  0.24275  0.92951  0.63964  1.0000
  C   C1389     1.0  0.25063  0.93516  0.65682  1.0000
  C   C1390     1.0  0.23408  0.91639  0.64780  1.0000
  C   C1391     1.0  0.24232  0.92195  0.66523  1.0000
  C   C1392     1.0  0.23394  0.91257  0.66068  1.0000
  C   C1393     1.0  0.25913  0.95290  0.63548  1.0000
  H   H1376     1.0  0.24290  0.93237  0.62963  1.0000
  H   H1377     1.0  0.25705  0.94242  0.66046  1.0000
  H   H1378     1.0  0.22746  0.90937  0.64413  1.0000
  H   H1379     1.0  0.24242  0.91899  0.67521  1.0000
  H   H1380     1.0  0.22732  0.90242  0.66716  1.0000
  H   H1381     1.0  0.26675  0.94880  0.62647  1.0000
  H   H1382     1.0  0.24858  0.96493  0.63330  1.0000
  H   H1383     1.0  0.26875  0.95627  0.63951  1.0000
  H   H1384     1.0  0.09987  0.74529  0.64999  1.0000
  H   H1385     1.0  0.07582  0.80650  0.62912  1.0000
  C   C1394     1.0  0.00869  0.75580  0.60095  1.0000
  S   S469      1.0  0.08195  0.70819  0.60150  1.0000
  S   S470      1.0  0.47521  0.94343  0.51583  1.0000
  C   C1395     1.0  0.36021  0.79704  0.73085  1.0000
  H   H1386     1.0  0.20661  0.72725  0.67084  1.0000
  C   C1396     1.0  0.00865  0.76102  0.61184  1.0000
  S   S471      1.0  0.34807  0.98942  0.56807  1.0000
  C   C1397     1.0  0.12607  0.68911  0.59569  1.0000
  H   H1387     1.0  0.14858  0.91479  0.63875  1.0000
  H   H1388     1.0  0.23635  0.85747  0.64660  1.0000
  C   C1398     1.0  0.28296  0.82680  0.72546  1.0000
  H   H1389     1.0  0.06798  0.78150  0.62452  1.0000
  H   H1390     1.0  0.25215  0.70166  0.69813  1.0000
  H   H1391     1.0  0.34181  0.90459  0.61273  1.0000
  C   C1399     1.0  0.12795  0.70425  0.58624  1.0000
  N   N114      1.0  0.23641  0.72422  0.68827  1.0000
  C   C1400     1.0  0.22290  0.72049  0.68472  1.0000
  C   C1401     1.0  0.24520  0.73709  0.68068  1.0000
  C   C1402     1.0  0.20470  0.78532  0.72745  1.0000
  N   N115      1.0  0.33611  0.82963  0.72955  1.0000
  H   H1392     1.0  0.03182  0.86719  0.59437  1.0000
  C   C1403     1.0  0.24202  0.71380  0.69997  1.0000
  S   S472      1.0  0.08805  0.71976  0.56388  1.0000
  H   H1393     1.0  0.25588  0.74009  0.68349  1.0000
  H   H1394     1.0  0.17886  0.72568  0.71495  1.0000
  H   H1395     1.0  0.08496  0.67736  0.54077  1.0000
  C   C1404     1.0  0.33973  0.82062  0.72011  1.0000
  C   C1405     1.0  0.20727  0.81216  0.71161  1.0000
  H   H1396     1.0  0.11069  0.75824  0.60868  1.0000
  H   H1397     1.0  0.24782  0.72159  0.70402  1.0000
  H   H1398     1.0  0.08005  0.75062  0.63506  1.0000
  H   H1399     1.0  0.12324  0.70175  0.55216  1.0000
  C   C1406     1.0  0.12527  0.67411  0.58002  1.0000
  H   H1400     1.0  0.35766  0.89253  0.62260  1.0000
  H   H1401     1.0  0.10786  0.77063  0.65402  1.0000
  H   H1402     1.0  0.32855  0.88301  0.61074  1.0000
  S   S473      1.0  0.33309  0.98962  0.62608  1.0000
  Fe  Fe234     1.0  0.43311  0.95507  0.48673  1.0000
  H   H1403     1.0  0.20495  0.98871  0.62245  1.0000
  H   H1404     1.0  0.36715  0.96717  0.50373  1.0000
  C   C1407     1.0  0.20097  0.79652  0.71612  1.0000
  H   H1405     1.0  0.12724  0.94537  0.67735  1.0000
  C   C1408     1.0  0.36342  0.97000  0.49441  1.0000
  C   C1409     1.0  0.44730  0.98661  0.53749  1.0000
  H   H1406     1.0  0.12159  0.67914  0.55678  1.0000
  C   C1410     1.0  0.21729  0.81635  0.71838  1.0000
  C   C1411     1.0  0.47714  0.97546  0.54265  1.0000
  C   C1412     1.0  0.22447  0.96749  0.61495  1.0000
  H   H1407     1.0  0.12249  0.97902  0.63885  1.0000
  H   H1408     1.0  0.01129  0.89128  0.65830  1.0000
  C   C1413     1.0  0.37015  0.98337  0.54575  1.0000
  H   H1409     1.0  0.12539  0.68927  0.60544  1.0000
  H   H1410     1.0  0.00884  0.89369  0.64244  1.0000
  H   H1411     1.0  0.14339  0.68456  0.55306  1.0000
  H   H1412     1.0  0.03299  0.83016  0.66516  1.0000
  C   C1414     1.0  0.49269  0.97820  0.54472  1.0000
  N   N116      1.0  0.00591  0.86880  0.65439  1.0000
  C   C1415     1.0  0.30567  0.79970  0.72722  1.0000
  H   H1413     1.0  0.04593  0.66306  0.58256  1.0000
  N   N117      1.0  0.00618  0.76809  0.59012  1.0000
  H   H1414     1.0  0.31375  0.84829  0.72312  1.0000
  C   C1416     1.0  0.03938  0.66112  0.57563  1.0000
  C   C1417     1.0  0.32373  0.84700  0.72877  1.0000
  H   H1415     1.0  0.01105  0.75113  0.62030  1.0000
  N   N118      1.0  0.00710  0.87374  0.58818  1.0000
  H   H1416     1.0  0.48573  0.92463  0.49720  1.0000
  H   H1417     1.0  0.01244  0.81839  0.65784  1.0000
  H   H1418     1.0  0.28093  0.74750  0.73016  1.0000
  C   C1418     1.0  0.49110  0.92686  0.48710  1.0000
  Fe  Fe235     1.0  0.29052  0.98918  0.60064  1.0000
  C   C1419     1.0  0.00361  0.78574  0.58979  1.0000
  C   C1420     1.0  0.00761  0.76220  0.57859  1.0000
  H   H1419     1.0  0.19332  0.79298  0.71087  1.0000
  H   H1420     1.0  0.02484  0.84886  0.59261  1.0000
  H   H1421     1.0  0.01228  0.67035  0.52343  1.0000
  C   C1421     1.0  0.01054  0.83252  0.65698  1.0000
  C   C1422     1.0  0.00676  0.86355  0.61982  1.0000
  C   C1423     1.0  0.00247  0.89036  0.59065  1.0000
  H   H1422     1.0  0.00146  0.80541  0.60024  1.0000
  C   C1424     1.0  0.00265  0.67776  0.54145  1.0000
  H   H1423     1.0  0.00176  0.79549  0.58118  1.0000
  N   N119      1.0  0.21451  0.78954  0.73406  1.0000
  C   C1425     1.0  0.00193  0.66977  0.53203  1.0000
  H   H1424     1.0  0.00270  0.74976  0.58082  1.0000
  H   H1425     1.0  0.08399  0.65754  0.58038  1.0000
  Fe  Fe236     1.0  0.44511  0.93128  0.90584  1.0000
  S   S474      1.0  0.41708  0.92876  0.90723  1.0000
  Fe  Fe237     1.0  0.45713  0.89214  0.91719  1.0000
  S   S475      1.0  0.43034  0.88614  0.91953  1.0000
  S   S476      1.0  0.47967  0.87203  0.92461  1.0000
  Fe  Fe238     1.0  0.43055  0.90355  0.90009  1.0000
  S   S477      1.0  0.42702  0.89751  0.88243  1.0000
  Fe  Fe239     1.0  0.41942  0.91160  0.92652  1.0000
  S   S478      1.0  0.45845  0.90752  0.89737  1.0000
  S   S479      1.0  0.44637  0.91610  0.92546  1.0000
  H   H1426     1.0  0.46361  0.67710  0.85049  1.0000
  Fe  Fe240     1.0  0.21482  0.70157  0.76449  1.0000
  S   S480      1.0  0.23458  0.69755  0.74629  1.0000
  S   S481      1.0  0.19562  0.68306  0.77269  1.0000
  Fe  Fe241     1.0  0.22987  0.73134  0.76657  1.0000
  S   S482      1.0  0.25072  0.72927  0.74892  1.0000
  S   S483      1.0  0.23099  0.75296  0.77524  1.0000
  C   C1426     1.0  0.45226  0.89727  0.96033  1.0000
  Fe  Fe242     1.0  0.25446  0.70018  0.75615  1.0000
  S   S484      1.0  0.28203  0.68364  0.75672  1.0000
  S   S485      1.0  0.20729  0.73132  0.75811  1.0000
  S   S486      1.0  0.23529  0.70215  0.77466  1.0000
  C   C1427     1.0  0.48800  0.75245  0.82614  1.0000
  C   C1428     1.0  0.49237  0.87293  0.94474  1.0000
  Fe  Fe243     1.0  0.39139  0.70678  0.82317  1.0000
  S   S487      1.0  0.41941  0.69855  0.81274  1.0000
  S   S488      1.0  0.38169  0.73486  0.82510  1.0000
  Fe  Fe244     1.0  0.40748  0.68457  0.80355  1.0000
  S   S489      1.0  0.41425  0.68715  0.78259  1.0000
  Fe  Fe245     1.0  0.42010  0.67413  0.82813  1.0000
  C   C1429     1.0  0.48739  0.83237  0.88848  1.0000
  S   S490      1.0  0.37911  0.69511  0.81257  1.0000
  S   S491      1.0  0.39249  0.68344  0.83935  1.0000
  Fe  Fe246     1.0  0.31723  0.76123  0.78595  1.0000
  S   S492      1.0  0.32669  0.77184  0.76538  1.0000
  S   S493      1.0  0.30509  0.73723  0.79151  1.0000
  Fe  Fe247     1.0  0.33169  0.78706  0.79396  1.0000
  S   S494      1.0  0.34204  0.80029  0.77391  1.0000
  S   S495      1.0  0.33423  0.79164  0.81239  1.0000
  Fe  Fe248     1.0  0.31618  0.79854  0.77013  1.0000
  S   S496      1.0  0.30049  0.82068  0.75741  1.0000
  Fe  Fe249     1.0  0.35167  0.77263  0.77056  1.0000
  S   S497      1.0  0.37731  0.76377  0.75719  1.0000
  S   S498      1.0  0.30465  0.78789  0.79060  1.0000
  S   S499      1.0  0.34332  0.75937  0.79080  1.0000
  H   H1427     1.0  0.47363  0.73135  0.83287  1.0000
  H   H1428     1.0  0.45521  0.75975  0.86738  1.0000
  H   H1429     1.0  0.31241  0.72341  0.74701  1.0000
  Fe  Fe250     1.0  0.41010  0.82185  0.85968  1.0000
  S   S500      1.0  0.41918  0.83686  0.83995  1.0000
  S   S501      1.0  0.39919  0.83371  0.87706  1.0000
  Fe  Fe251     1.0  0.42033  0.78655  0.85159  1.0000
  S   S502      1.0  0.43047  0.79866  0.83141  1.0000
  S   S503      1.0  0.42424  0.75695  0.85613  1.0000
  Fe  Fe252     1.0  0.44291  0.81395  0.83923  1.0000
  S   S504      1.0  0.47218  0.81407  0.83235  1.0000
  Fe  Fe253     1.0  0.40564  0.81999  0.83404  1.0000
  S   S505      1.0  0.39064  0.83071  0.81809  1.0000
  S   S506      1.0  0.43479  0.80012  0.85931  1.0000
  S   S507      1.0  0.39446  0.80685  0.85390  1.0000
  C   C1430     1.0  0.33371  0.67411  0.79207  1.0000
  H   H1430     1.0  0.38334  0.98639  0.95040  1.0000
  C   C1431     1.0  0.47223  0.84932  0.85201  1.0000
  C   C1432     1.0  0.46654  0.83941  0.84593  1.0000
  C   C1433     1.0  0.47889  0.82591  0.84056  1.0000
  H   H1431     1.0  0.48758  0.69425  0.84221  1.0000
  C   C1434     1.0  0.43442  0.87899  0.97598  1.0000
  H   H1432     1.0  0.46278  0.86005  0.85588  1.0000
  H   H1433     1.0  0.45272  0.84256  0.84509  1.0000
  C   C1435     1.0  0.47003  0.95118  0.94756  1.0000
  C   C1436     1.0  0.14450  0.65741  0.82095  1.0000
  C   C1437     1.0  0.35026  0.80240  0.81361  1.0000
  C   C1438     1.0  0.35842  0.81388  0.80326  1.0000
  C   C1439     1.0  0.37065  0.82261  0.80477  1.0000
  C   C1440     1.0  0.37524  0.81952  0.81652  1.0000
  C   C1441     1.0  0.36726  0.80787  0.82681  1.0000
  C   C1442     1.0  0.35456  0.79967  0.82541  1.0000
  H   H1434     1.0  0.35502  0.81632  0.79417  1.0000
  H   H1435     1.0  0.37664  0.83173  0.79678  1.0000
  H   H1436     1.0  0.37052  0.80550  0.83593  1.0000
  H   H1437     1.0  0.34809  0.79115  0.83355  1.0000
  C   C1443     1.0  0.45857  0.67946  0.83217  1.0000
  C   C1444     1.0  0.46325  0.68656  0.81922  1.0000
  C   C1445     1.0  0.47665  0.69645  0.81457  1.0000
  C   C1446     1.0  0.48569  0.69904  0.82279  1.0000
  C   C1447     1.0  0.48082  0.69221  0.83577  1.0000
  C   C1448     1.0  0.46721  0.68253  0.84045  1.0000
  H   H1438     1.0  0.45706  0.68386  0.81271  1.0000
  H   H1439     1.0  0.48040  0.70165  0.80451  1.0000
  C   C1449     1.0  0.40555  0.70896  0.77534  1.0000
  C   C1450     1.0  0.39689  0.72168  0.78265  1.0000
  C   C1451     1.0  0.38834  0.73857  0.77706  1.0000
  C   C1452     1.0  0.38879  0.74295  0.76409  1.0000
  C   C1453     1.0  0.39808  0.73049  0.75667  1.0000
  C   C1454     1.0  0.40630  0.71343  0.76232  1.0000
  H   H1440     1.0  0.39669  0.71857  0.79262  1.0000
  H   H1441     1.0  0.38160  0.74829  0.78276  1.0000
  H   H1442     1.0  0.39854  0.73387  0.74662  1.0000
  H   H1443     1.0  0.41307  0.70367  0.75662  1.0000
  C   C1455     1.0  0.39296  0.74051  0.83434  1.0000
  C   C1456     1.0  0.38965  0.75817  0.83521  1.0000
  C   C1457     1.0  0.39915  0.76321  0.84199  1.0000
  C   C1458     1.0  0.41180  0.75053  0.84810  1.0000
  C   C1459     1.0  0.41494  0.73276  0.84740  1.0000
  C   C1460     1.0  0.40560  0.72776  0.84045  1.0000
  H   H1444     1.0  0.38006  0.76806  0.83038  1.0000
  H   H1445     1.0  0.39672  0.77695  0.84241  1.0000
  H   H1446     1.0  0.42474  0.72290  0.85210  1.0000
  H   H1447     1.0  0.40829  0.71408  0.83978  1.0000
  C   C1461     1.0  0.25117  0.74839  0.78037  1.0000
  C   C1462     1.0  0.26236  0.73149  0.78124  1.0000
  C   C1463     1.0  0.27854  0.72798  0.78519  1.0000
  C   C1464     1.0  0.28390  0.74151  0.78790  1.0000
  C   C1465     1.0  0.27281  0.75847  0.78694  1.0000
  C   C1466     1.0  0.25635  0.76183  0.78335  1.0000
  H   H1448     1.0  0.25854  0.72106  0.77892  1.0000
  H   H1449     1.0  0.28711  0.71488  0.78581  1.0000
  H   H1450     1.0  0.27684  0.76898  0.78902  1.0000
  H   H1451     1.0  0.24775  0.77492  0.78270  1.0000
  C   C1467     1.0  0.49392  0.90868  0.93604  1.0000
  C   C1468     1.0  0.46327  0.82129  0.88018  1.0000
  C   C1469     1.0  0.44785  0.89785  0.98229  1.0000
  H   H1452     1.0  0.43330  0.95372  0.94928  1.0000
  C   C1470     1.0  0.47079  0.74533  0.84741  1.0000
  C   C1471     1.0  0.48078  0.81131  0.87961  1.0000
  H   H1453     1.0  0.47005  0.77453  0.86403  1.0000
  H   H1454     1.0  0.29880  0.74690  0.76269  1.0000
  C   C1472     1.0  0.48442  0.97411  0.96673  1.0000
  H   H1455     1.0  0.42010  0.94048  0.93769  1.0000
  C   C1473     1.0  0.39187  0.98125  0.95752  1.0000
  C   C1474     1.0  0.41797  0.93644  0.94784  1.0000
  H   H1456     1.0  0.49159  0.91752  0.86546  1.0000
  H   H1457     1.0  0.31794  0.79294  0.74321  1.0000
  S   S508      1.0  0.45639  0.95595  0.89923  1.0000
  H   H1458     1.0  0.49425  0.92253  0.93267  1.0000
  C   C1475     1.0  0.29154  0.75389  0.75527  1.0000
  C   C1476     1.0  0.45823  0.83675  0.88487  1.0000
  H   H1459     1.0  0.28470  0.77871  0.76128  1.0000
  C   C1477     1.0  0.20077  0.67731  0.79680  1.0000
  N   N120      1.0  0.29003  0.74519  0.74686  1.0000
  H   H1460     1.0  0.24552  0.67690  0.80235  1.0000
  C   C1478     1.0  0.49654  0.91216  0.87412  1.0000
  H   H1461     1.0  0.20529  0.68961  0.79373  1.0000
  H   H1462     1.0  0.20349  0.67322  0.81596  1.0000
  H   H1463     1.0  0.16130  0.68278  0.81580  1.0000
  C   C1479     1.0  0.46502  0.85919  0.89277  1.0000
  H   H1464     1.0  0.49385  0.98327  0.96289  1.0000
  H   H1465     1.0  0.46353  0.91367  0.96706  1.0000
  H   H1466     1.0  0.49709  0.83691  0.89130  1.0000
  H   H1467     1.0  0.34272  0.71374  0.79050  1.0000
  N   N121      1.0  0.47529  0.75864  0.85047  1.0000
  C   C1480     1.0  0.42219  0.93945  0.96767  1.0000
  H   H1468     1.0  0.39149  0.67073  0.77392  1.0000
  H   H1469     1.0  0.31696  0.69921  0.79544  1.0000
  C   C1481     1.0  0.42078  0.87848  0.88163  1.0000
  C   C1482     1.0  0.41029  0.86912  0.89200  1.0000
  C   C1483     1.0  0.40414  0.85507  0.89058  1.0000
  C   C1484     1.0  0.40876  0.85004  0.87889  1.0000
  C   C1485     1.0  0.41986  0.85893  0.86867  1.0000
  C   C1486     1.0  0.42563  0.87325  0.87001  1.0000
  H   H1470     1.0  0.40638  0.87313  0.90098  1.0000
  H   H1471     1.0  0.39552  0.84826  0.89852  1.0000
  H   H1472     1.0  0.42348  0.85521  0.85962  1.0000
  H   H1473     1.0  0.43370  0.88048  0.86194  1.0000
  H   H1474     1.0  0.45377  0.81739  0.87669  1.0000
  C   C1487     1.0  0.34455  0.82285  0.73949  1.0000
  H   H1475     1.0  0.27725  0.84079  0.74048  1.0000
  C   C1488     1.0  0.47564  0.95447  0.95729  1.0000
  C   C1489     1.0  0.42532  0.94404  0.95447  1.0000
  H   H1476     1.0  0.29427  0.72027  0.74165  1.0000
  C   C1490     1.0  0.47017  0.98131  0.93635  1.0000
  C   C1491     1.0  0.49292  0.81678  0.88385  1.0000
  C   C1492     1.0  0.35134  0.66483  0.78854  1.0000
  H   H1477     1.0  0.46728  0.86997  0.88427  1.0000
  H   H1478     1.0  0.44474  0.84457  0.88508  1.0000
  N   N122      1.0  0.42807  0.75137  0.81116  1.0000
  C   C1493     1.0  0.42613  0.76770  0.81351  1.0000
  C   C1494     1.0  0.41775  0.74903  0.80403  1.0000
  C   C1495     1.0  0.41312  0.78206  0.80909  1.0000
  C   C1496     1.0  0.40455  0.76305  0.79954  1.0000
  C   C1497     1.0  0.40221  0.77962  0.80214  1.0000
  C   C1498     1.0  0.44168  0.73645  0.81595  1.0000
  H   H1479     1.0  0.43431  0.76956  0.81913  1.0000
  H   H1480     1.0  0.41123  0.79490  0.81125  1.0000
  H   H1481     1.0  0.39592  0.76096  0.79434  1.0000
  H   H1482     1.0  0.39185  0.79050  0.79886  1.0000
  H   H1483     1.0  0.44393  0.73789  0.82491  1.0000
  H   H1484     1.0  0.43724  0.72376  0.81820  1.0000
  H   H1485     1.0  0.45453  0.73558  0.80882  1.0000
  H   H1486     1.0  0.46232  0.73715  0.85443  1.0000
  N   N123      1.0  0.44213  0.88477  0.96359  1.0000
  S   S509      1.0  0.43313  0.94851  0.97523  1.0000
  H   H1487     1.0  0.32755  0.76621  0.83898  1.0000
  H   H1488     1.0  0.49167  0.85913  0.94816  1.0000
  S   S510      1.0  0.44338  0.66524  0.83791  1.0000
  H   H1489     1.0  0.14536  0.69165  0.82859  1.0000
  H   H1490     1.0  0.49287  0.93766  0.87830  1.0000
  C   C1499     1.0  0.47704  0.74206  0.83521  1.0000
  H   H1491     1.0  0.45803  0.90220  0.95052  1.0000
  N   N124      1.0  0.36544  0.67292  0.78587  1.0000
  H   H1492     1.0  0.34159  0.82992  0.74703  1.0000
  N   N125      1.0  0.47023  0.84215  0.88891  1.0000
  H   H1493     1.0  0.49058  0.93563  0.90375  1.0000
  H   H1494     1.0  0.39085  0.66061  0.79036  1.0000
  H   H1495     1.0  0.39580  0.91003  0.97261  1.0000
  C   C1500     1.0  0.24953  0.66431  0.79901  1.0000
  Fe  Fe254     1.0  0.22874  0.72722  0.74082  1.0000
  H   H1496     1.0  0.32260  0.66759  0.79422  1.0000
  H   H1497     1.0  0.25260  0.66644  0.76246  1.0000
  C   C1501     1.0  0.14183  0.65741  0.84249  1.0000
  C   C1502     1.0  0.48792  0.88216  0.93315  1.0000
  C   C1503     1.0  0.42778  0.96958  0.91640  1.0000
  H   H1498     1.0  0.42502  0.88056  0.95364  1.0000
  H   H1499     1.0  0.44445  0.86273  0.95585  1.0000
  S   S511      1.0  0.41071  0.65894  0.81792  1.0000
  H   H1500     1.0  0.34531  0.75175  0.84644  1.0000
  H   H1501     1.0  0.26849  0.79503  0.74414  1.0000
  C   C1504     1.0  0.44416  0.97183  0.90828  1.0000
  C   C1505     1.0  0.43948  0.87731  0.95389  1.0000
  N   N126      1.0  0.37748  0.86929  0.85577  1.0000
  C   C1506     1.0  0.38848  0.87878  0.84644  1.0000
  C   C1507     1.0  0.37197  0.87286  0.86761  1.0000
  C   C1508     1.0  0.39445  0.89209  0.84894  1.0000
  C   C1509     1.0  0.37763  0.88611  0.87042  1.0000
  C   C1510     1.0  0.38895  0.89576  0.86101  1.0000
  C   C1511     1.0  0.37113  0.85545  0.85311  1.0000
  H   H1502     1.0  0.39295  0.87591  0.83706  1.0000
  H   H1503     1.0  0.36372  0.86496  0.87510  1.0000
  H   H1504     1.0  0.40357  0.89927  0.84164  1.0000
  H   H1505     1.0  0.37386  0.88840  0.87996  1.0000
  H   H1506     1.0  0.39397  0.90561  0.86323  1.0000
  H   H1507     1.0  0.37842  0.85209  0.84381  1.0000
  H   H1508     1.0  0.37325  0.84309  0.86047  1.0000
  H   H1509     1.0  0.35661  0.85985  0.85303  1.0000
  H   H1510     1.0  0.16670  0.67722  0.83101  1.0000
  H   H1511     1.0  0.44694  0.88261  0.94432  1.0000
  C   C1512     1.0  0.30797  0.80225  0.73849  1.0000
  C   C1513     1.0  0.49701  0.88177  0.95218  1.0000
  H   H1512     1.0  0.47284  0.85938  0.89955  1.0000
  C   C1514     1.0  0.49737  0.92346  0.88137  1.0000
  H   H1513     1.0  0.22866  0.76522  0.74322  1.0000
  C   C1515     1.0  0.21873  0.77718  0.74565  1.0000
  C   C1516     1.0  0.48613  0.76883  0.84167  1.0000
  C   C1517     1.0  0.40395  0.91963  0.96755  1.0000
  H   H1514     1.0  0.47817  0.75115  0.86944  1.0000
  H   H1515     1.0  0.31590  0.84883  0.73835  1.0000
  C   C1518     1.0  0.46729  0.96470  0.93702  1.0000
  H   H1516     1.0  0.47749  0.94391  0.96551  1.0000
  H   H1517     1.0  0.42235  0.95847  0.91676  1.0000
  C   C1519     1.0  0.29759  0.72610  0.74840  1.0000
  C   C1520     1.0  0.49016  0.84544  0.85301  1.0000
  H   H1518     1.0  0.20647  0.77301  0.75197  1.0000
  H   H1519     1.0  0.14425  0.66277  0.84958  1.0000
  H   H1520     1.0  0.49153  0.96171  0.97216  1.0000
  C   C1521     1.0  0.33057  0.69180  0.79279  1.0000
  S   S512      1.0  0.40066  0.91266  0.94563  1.0000
  C   C1522     1.0  0.49253  0.76599  0.82936  1.0000
  C   C1523     1.0  0.29762  0.81694  0.74341  1.0000
  C   C1524     1.0  0.28363  0.77187  0.75450  1.0000
  C   C1525     1.0  0.19961  0.66806  0.80940  1.0000
  N   N127      1.0  0.47869  0.97074  0.95645  1.0000
  H   H1521     1.0  0.40041  0.97419  0.97984  1.0000
  S   S513      1.0  0.35884  0.65805  0.83534  1.0000
  C   C1526     1.0  0.48868  0.90002  0.92885  1.0000
  N   N128      1.0  0.14725  0.66439  0.82991  1.0000
  C   C1527     1.0  0.34503  0.69995  0.79004  1.0000
  C   C1528     1.0  0.46936  0.76115  0.86350  1.0000
  H   H1522     1.0  0.35015  0.76169  0.82990  1.0000
  C   C1529     1.0  0.35679  0.80654  0.74023  1.0000
  H   H1523     1.0  0.42606  0.86939  0.97852  1.0000
  C   C1530     1.0  0.45543  0.90383  0.96963  1.0000
  H   H1524     1.0  0.37368  0.69658  0.78460  1.0000
  C   C1531     1.0  0.41111  0.92752  0.97428  1.0000
  H   H1525     1.0  0.46288  0.96231  0.92943  1.0000
  Fe  Fe255     1.0  0.38290  0.67065  0.82770  1.0000
  C   C1532     1.0  0.40777  0.92379  0.95426  1.0000
  C   C1533     1.0  0.36249  0.69022  0.78664  1.0000
  H   H1526     1.0  0.46768  0.93827  0.94824  1.0000
  C   C1534     1.0  0.27446  0.78102  0.74490  1.0000
  H   H1527     1.0  0.41928  0.73616  0.80209  1.0000
  H   H1528     1.0  0.29193  0.71905  0.75805  1.0000
  C   C1535     1.0  0.15549  0.67981  0.82613  1.0000
  C   C1536     1.0  0.19537  0.67102  0.78833  1.0000
  N   N129      1.0  0.33668  0.74082  0.83427  1.0000
  C   C1537     1.0  0.34371  0.72380  0.83977  1.0000
  C   C1538     1.0  0.32729  0.74405  0.82505  1.0000
  C   C1539     1.0  0.34121  0.70946  0.83617  1.0000
  C   C1540     1.0  0.32444  0.73002  0.82127  1.0000
  C   C1541     1.0  0.33149  0.71263  0.82686  1.0000
  C   C1542     1.0  0.34002  0.75580  0.83767  1.0000
  H   H1529     1.0  0.35187  0.72126  0.84667  1.0000
  H   H1530     1.0  0.32216  0.75757  0.82046  1.0000
  H   H1531     1.0  0.34710  0.69598  0.84037  1.0000
  H   H1532     1.0  0.31698  0.73270  0.81395  1.0000
  H   H1533     1.0  0.32965  0.70160  0.82388  1.0000
  H   H1534     1.0  0.49324  0.74979  0.81671  1.0000
  H   H1535     1.0  0.36352  0.80115  0.74809  1.0000
  H   H1536     1.0  0.45058  0.86204  0.89747  1.0000
  H   H1537     1.0  0.49020  0.77901  0.84420  1.0000
  H   H1538     1.0  0.38868  0.96845  0.96331  1.0000
  H   H1539     1.0  0.48496  0.90724  0.92002  1.0000
  C   C1543     1.0  0.49677  0.82186  0.84170  1.0000
  H   H1540     1.0  0.40610  0.97883  0.95239  1.0000
  C   C1544     1.0  0.39460  0.98808  0.97669  1.0000
  C   C1545     1.0  0.49779  0.89966  0.94781  1.0000
  S   S514      1.0  0.49709  0.85815  0.86047  1.0000
  C   C1546     1.0  0.28522  0.82929  0.73679  1.0000
  C   C1547     1.0  0.28169  0.75424  0.73708  1.0000
  C   C1548     1.0  0.47570  0.98417  0.94627  1.0000
  H   H1541     1.0  0.48503  0.79954  0.87568  1.0000
  H   H1542     1.0  0.50115  0.88498  0.87274  1.0000
  C   C1549     1.0  0.27906  0.66272  0.76571  1.0000
  C   C1550     1.0  0.38392  0.66302  0.78250  1.0000
  H   H1543     1.0  0.22431  0.78309  0.75118  1.0000
  H   H1544     1.0  0.49997  0.87475  0.96130  1.0000
  H   H1545     1.0  0.24159  0.66587  0.79187  1.0000
  C   C1551     1.0  0.26288  0.65776  0.76724  1.0000
  H   H1546     1.0  0.50117  0.77411  0.82247  1.0000
  C   C1552     1.0  0.41821  0.98182  0.92396  1.0000
  H   H1547     1.0  0.40545  0.97998  0.93008  1.0000
  H   H1548     1.0  0.47254  0.98034  0.97320  1.0000
  C   C1553     1.0  0.27381  0.77229  0.73594  1.0000
  H   H1549     1.0  0.14900  0.66278  0.81096  1.0000
  H   H1550     1.0  0.46346  0.98847  0.90126  1.0000
  C   C1554     1.0  0.45086  0.98658  0.90764  1.0000
  H   H1551     1.0  0.26394  0.66213  0.79422  1.0000
  H   H1552     1.0  0.40847  0.92403  0.98450  1.0000
  H   H1553     1.0  0.22883  0.80809  0.73478  1.0000
  Fe  Fe256     1.0  0.56667  0.12244  0.02436  1.0000
  S   S515      1.0  0.54132  0.11423  0.02600  1.0000
  Fe  Fe257     1.0  0.55580  0.13011  0.05071  1.0000
  S   S516      1.0  0.52936  0.12253  0.05446  1.0000
  S   S517      1.0  0.56210  0.13639  0.06723  1.0000
  Fe  Fe258     1.0  0.54465  0.09974  0.04544  1.0000
  S   S518      1.0  0.53668  0.07354  0.05303  1.0000
  Fe  Fe259     1.0  0.52828  0.13778  0.03476  1.0000
  N   N130      1.0  0.80913  0.32290  0.20778  1.0000
  S   S519      1.0  0.57138  0.10575  0.04326  1.0000
  S   S520      1.0  0.55344  0.14744  0.03163  1.0000
  Fe  Fe260     1.0  0.57816  0.24651  0.09747  1.0000
  S   S521      1.0  0.57051  0.23273  0.11768  1.0000
  S   S522      1.0  0.58299  0.27419  0.09249  1.0000
  Fe  Fe261     1.0  0.58080  0.21359  0.08760  1.0000
  S   S523      1.0  0.57453  0.19703  0.10722  1.0000
  S   S524      1.0  0.58320  0.20582  0.06914  1.0000
  Fe  Fe262     1.0  0.55319  0.22112  0.11083  1.0000
  S   S525      1.0  0.52430  0.22087  0.12015  1.0000
  Fe  Fe263     1.0  0.59259  0.21043  0.11205  1.0000
  S   S526      1.0  0.61203  0.19907  0.12508  1.0000
  S   S527      1.0  0.55869  0.23715  0.09110  1.0000
  S   S528      1.0  0.60113  0.22461  0.09200  1.0000
  C   C1555     1.0  0.68569  0.21333  0.21512  1.0000
  H   H1554     1.0  0.56330  0.04249  0.98866  1.0000
  Fe  Fe264     1.0  0.65073  0.28362  0.16888  1.0000
  S   S529      1.0  0.64077  0.26826  0.18820  1.0000
  S   S530      1.0  0.65842  0.30934  0.16710  1.0000
  Fe  Fe265     1.0  0.64509  0.25764  0.15558  1.0000
  S   S531      1.0  0.63554  0.23968  0.17388  1.0000
  S   S532      1.0  0.64390  0.25577  0.13613  1.0000
  Fe  Fe266     1.0  0.61976  0.26486  0.17985  1.0000
  S   S533      1.0  0.59061  0.26857  0.18905  1.0000
  Fe  Fe267     1.0  0.65778  0.24460  0.18056  1.0000
  S   S534      1.0  0.67513  0.22289  0.19244  1.0000
  S   S535      1.0  0.62789  0.28262  0.16126  1.0000
  S   S536      1.0  0.66906  0.26016  0.16150  1.0000
  H   H1555     1.0  0.60508  0.15316  0.06476  1.0000
  C   C1556     1.0  0.67976  0.23317  0.22935  1.0000
  H   H1556     1.0  0.79474  0.30502  0.20660  1.0000
  C   C1557     1.0  0.63908  0.20895  0.21357  1.0000
  N   N131      1.0  0.73067  0.24688  0.21029  1.0000
  H   H1557     1.0  0.50592  0.17448  0.04904  1.0000
  H   H1558     1.0  0.70885  0.25245  0.20137  1.0000
  H   H1559     1.0  0.69197  0.20540  0.23369  1.0000
  H   H1560     1.0  0.58972  0.26828  0.12802  1.0000
  C   C1558     1.0  0.58744  0.29383  0.15302  1.0000
  C   C1559     1.0  0.67992  0.30492  0.17022  1.0000
  C   C1560     1.0  0.68881  0.28744  0.17405  1.0000
  C   C1561     1.0  0.70591  0.28382  0.17658  1.0000
  C   C1562     1.0  0.71392  0.29765  0.17582  1.0000
  H   H1561     1.0  0.81848  0.30012  0.19967  1.0000
  C   C1563     1.0  0.50501  0.20906  0.07752  1.0000
  H   H1562     1.0  0.68262  0.27664  0.17498  1.0000
  H   H1563     1.0  0.71297  0.27025  0.17907  1.0000
  H   H1564     1.0  0.52824  0.12789  0.08339  1.0000
  H   H1565     1.0  0.76193  0.26914  0.20903  1.0000
  C   C1564     1.0  0.58192  0.29141  0.18708  1.0000
  C   C1565     1.0  0.56428  0.29841  0.18551  1.0000
  N   N132      1.0  0.62546  0.23641  0.22031  1.0000
  H   H1566     1.0  0.53059  0.04355  0.99418  1.0000
  H   H1567     1.0  0.52221  0.08617  0.01271  1.0000
  C   C1566     1.0  0.59303  0.30277  0.18614  1.0000
  H   H1568     1.0  0.55570  0.28967  0.18615  1.0000
  H   H1569     1.0  0.71885  0.22921  0.20571  1.0000
  H   H1570     1.0  0.54050  0.28142  0.13221  1.0000
  H   H1571     1.0  0.60670  0.29742  0.18727  1.0000
  S   S537      1.0  0.57737  0.02152  0.01603  1.0000
  C   C1567     1.0  0.72540  0.24169  0.22311  1.0000
  C   C1568     1.0  0.67291  0.24718  0.22021  1.0000
  C   C1569     1.0  0.67234  0.24428  0.20861  1.0000
  C   C1570     1.0  0.67821  0.22727  0.20615  1.0000
  H   H1572     1.0  0.51063  0.11656  0.00168  1.0000
  H   H1573     1.0  0.58817  0.05053  0.99567  1.0000
  H   H1574     1.0  0.66795  0.26033  0.22214  1.0000
  H   H1575     1.0  0.66734  0.25524  0.20159  1.0000
  H   H1576     1.0  0.71512  0.23403  0.22717  1.0000
  N   N133      1.0  0.50698  0.14922  0.07845  1.0000
  C   C1571     1.0  0.61816  0.21548  0.12970  1.0000
  C   C1572     1.0  0.62727  0.21084  0.13961  1.0000
  C   C1573     1.0  0.63412  0.22349  0.14233  1.0000
  C   C1574     1.0  0.63238  0.24066  0.13486  1.0000
  C   C1575     1.0  0.62300  0.24531  0.12513  1.0000
  C   C1576     1.0  0.61547  0.23295  0.12279  1.0000
  H   H1577     1.0  0.62941  0.19734  0.14499  1.0000
  H   H1578     1.0  0.64158  0.21969  0.14974  1.0000
  H   H1579     1.0  0.62198  0.25842  0.11912  1.0000
  H   H1580     1.0  0.60851  0.23666  0.11512  1.0000
  C   C1577     1.0  0.57130  0.28587  0.10447  1.0000
  C   C1578     1.0  0.55798  0.27921  0.11412  1.0000
  C   C1579     1.0  0.55026  0.28713  0.12453  1.0000
  C   C1580     1.0  0.55533  0.30217  0.12514  1.0000
  C   C1581     1.0  0.56774  0.30966  0.11510  1.0000
  C   C1582     1.0  0.57589  0.30137  0.10480  1.0000
  H   H1581     1.0  0.55364  0.26790  0.11360  1.0000
  C   C1583     1.0  0.50144  0.12222  0.00935  1.0000
  H   H1582     1.0  0.56077  0.25568  0.15921  1.0000
  H   H1583     1.0  0.58602  0.30671  0.09726  1.0000
  C   C1584     1.0  0.51601  0.20554  0.11603  1.0000
  N   N134      1.0  0.56087  0.06401  0.99706  1.0000
  C   C1585     1.0  0.59700  0.29869  0.14070  1.0000
  Fe  Fe268     1.0  0.75427  0.31435  0.20881  1.0000
  C   C1586     1.0  0.51976  0.18349  0.10389  1.0000
  C   C1587     1.0  0.52696  0.19476  0.10776  1.0000
  C   C1588     1.0  0.68654  0.21627  0.22670  1.0000
  C   C1589     1.0  0.57006  0.11467  0.99217  1.0000
  H   H1584     1.0  0.52825  0.17543  0.09732  1.0000
  H   H1585     1.0  0.54088  0.19536  0.10409  1.0000
  Fe  Fe269     1.0  0.74175  0.31324  0.18600  1.0000
  C   C1590     1.0  0.54816  0.05881  0.04300  1.0000
  C   C1591     1.0  0.56329  0.06236  0.03373  1.0000
  C   C1592     1.0  0.54206  0.04353  0.04417  1.0000
  H   H1586     1.0  0.56819  0.07402  0.03286  1.0000
  H   H1587     1.0  0.53048  0.04064  0.05143  1.0000
  C   C1593     1.0  0.56497  0.15709  0.06790  1.0000
  C   C1594     1.0  0.56669  0.15938  0.07940  1.0000
  C   C1595     1.0  0.57139  0.17470  0.08003  1.0000
  C   C1596     1.0  0.57469  0.18772  0.06910  1.0000
  C   C1597     1.0  0.57221  0.18578  0.05769  1.0000
  C   C1598     1.0  0.56716  0.17059  0.05711  1.0000
  H   H1588     1.0  0.56494  0.14902  0.08782  1.0000
  H   H1589     1.0  0.57319  0.17606  0.08888  1.0000
  H   H1590     1.0  0.57460  0.19591  0.04921  1.0000
  H   H1591     1.0  0.56577  0.16897  0.04821  1.0000
  C   C1599     1.0  0.51289  0.15890  0.06671  1.0000
  C   C1600     1.0  0.55093  0.03195  0.03595  1.0000
  H   H1592     1.0  0.61160  0.25519  0.23178  1.0000
  C   C1601     1.0  0.51974  0.13998  0.08664  1.0000
  H   H1593     1.0  0.50986  0.06588  0.00596  1.0000
  H   H1594     1.0  0.58444  0.05307  0.01888  1.0000
  C   C1602     1.0  0.60550  0.16119  0.02807  1.0000
  H   H1595     1.0  0.51846  0.13900  0.00934  1.0000
  H   H1596     1.0  0.69148  0.30327  0.21672  1.0000
  N   N135      1.0  0.64669  0.23791  0.09635  1.0000
  C   C1603     1.0  0.65641  0.24477  0.10145  1.0000
  C   C1604     1.0  0.64653  0.22025  0.09990  1.0000
  C   C1605     1.0  0.66634  0.23385  0.11031  1.0000
  C   C1606     1.0  0.65626  0.20897  0.10876  1.0000
  C   C1607     1.0  0.66615  0.21586  0.11403  1.0000
  C   C1608     1.0  0.63512  0.24980  0.08794  1.0000
  H   H1597     1.0  0.65592  0.25888  0.09913  1.0000
  H   H1598     1.0  0.63820  0.21488  0.09636  1.0000
  H   H1599     1.0  0.67330  0.23950  0.11480  1.0000
  H   H1600     1.0  0.65529  0.19518  0.11201  1.0000
  H   H1601     1.0  0.67308  0.20743  0.12133  1.0000
  H   H1602     1.0  0.64065  0.26160  0.08247  1.0000
  H   H1603     1.0  0.63368  0.24302  0.08100  1.0000
  H   H1604     1.0  0.62152  0.25440  0.09359  1.0000
  S   S538      1.0  0.73532  0.29251  0.17914  1.0000
  C   C1609     1.0  0.55797  0.31681  0.18251  1.0000
  C   C1610     1.0  0.51692  0.23169  0.08648  1.0000
  C   C1611     1.0  0.75176  0.26129  0.21306  1.0000
  C   C1612     1.0  0.52921  0.22093  0.07864  1.0000
  C   C1613     1.0  0.52320  0.20944  0.07424  1.0000
  H   H1605     1.0  0.51140  0.08171  0.03746  1.0000
  H   H1606     1.0  0.52168  0.24030  0.09013  1.0000
  H   H1607     1.0  0.60353  0.30976  0.13812  1.0000
  H   H1608     1.0  0.54337  0.22119  0.07621  1.0000
  H   H1609     1.0  0.53269  0.20070  0.06845  1.0000
  C   C1614     1.0  0.61330  0.24024  0.21284  1.0000
  H   H1610     1.0  0.50508  0.10938  0.04257  1.0000
  H   H1611     1.0  0.67508  0.29075  0.20649  1.0000
  H   H1612     1.0  0.51414  0.30249  0.12113  1.0000
  C   C1615     1.0  0.50581  0.13499  0.01361  1.0000
  C   C1616     1.0  0.74356  0.25671  0.20522  1.0000
  H   H1613     1.0  0.74763  0.26102  0.19506  1.0000
  S   S539      1.0  0.76900  0.30831  0.18997  1.0000
  H   H1614     1.0  0.55484  0.08500  0.00679  1.0000
  C   C1617     1.0  0.60471  0.13035  0.03221  1.0000
  C   C1618     1.0  0.56613  0.03545  0.02671  1.0000
  C   C1619     1.0  0.50150  0.18325  0.10807  1.0000
  H   H1615     1.0  0.55803  0.11766  0.99923  1.0000
  H   H1616     1.0  0.50166  0.06451  0.04854  1.0000
  H   H1617     1.0  0.54452  0.32223  0.18087  1.0000
  H   H1618     1.0  0.60512  0.17406  0.02170  1.0000
  C   C1620     1.0  0.61365  0.22841  0.20563  1.0000
  H   H1619     1.0  0.62763  0.20380  0.19998  1.0000
  H   H1620     1.0  0.51885  0.32355  0.11992  1.0000
  H   H1621     1.0  0.60412  0.23162  0.19959  1.0000
  C   C1621     1.0  0.70486  0.31520  0.17235  1.0000
  C   C1622     1.0  0.67317  0.30497  0.20516  1.0000
  H   H1622     1.0  0.82111  0.30175  0.22115  1.0000
  H   H1623     1.0  0.52851  0.14875  0.08648  1.0000
  H   H1624     1.0  0.54617  0.02021  0.03690  1.0000
  H   H1625     1.0  0.51279  0.13618  0.09666  1.0000
  H   H1626     1.0  0.65458  0.31086  0.19311  1.0000
  H   H1627     1.0  0.80385  0.31798  0.19151  1.0000
  H   H1628     1.0  0.60288  0.14834  0.01430  1.0000
  C   C1623     1.0  0.60720  0.15885  0.04052  1.0000
  C   C1624     1.0  0.60924  0.14036  0.06164  1.0000
  Fe  Fe270     1.0  0.56578  0.99847  0.01692  1.0000
  H   H1629     1.0  0.58645  0.30115  0.16006  1.0000
  C   C1625     1.0  0.57186  0.25506  0.15071  1.0000
  H   H1630     1.0  0.62344  0.13444  0.06226  1.0000
  C   C1626     1.0  0.73329  0.24605  0.23122  1.0000
  C   C1627     1.0  0.60598  0.12856  0.04467  1.0000
  C   C1628     1.0  0.57242  0.05053  0.02576  1.0000
  C   C1629     1.0  0.60425  0.14681  0.02392  1.0000
  C   C1630     1.0  0.58659  0.11604  0.99372  1.0000
  C   C1631     1.0  0.57929  0.27937  0.15623  1.0000
  C   C1632     1.0  0.81697  0.31597  0.21800  1.0000
  H   H1631     1.0  0.69042  0.20013  0.21324  1.0000
  C   C1633     1.0  0.72171  0.24269  0.20201  1.0000
  H   H1632     1.0  0.73017  0.24301  0.19231  1.0000
  C   C1634     1.0  0.53586  0.05264  0.99700  1.0000
  C   C1635     1.0  0.58006  0.06403  0.99277  1.0000
  H   H1633     1.0  0.58398  0.07316  0.99688  1.0000
  H   H1634     1.0  0.60395  0.11908  0.02897  1.0000
  C   C1636     1.0  0.54960  0.07596  0.00391  1.0000
  H   H1635     1.0  0.60054  0.13159  0.06840  1.0000
  H   H1636     1.0  0.58218  0.24270  0.15258  1.0000
  H   H1637     1.0  0.56601  0.25458  0.14290  1.0000
  C   C1637     1.0  0.63816  0.22094  0.22082  1.0000
  H   H1638     1.0  0.60540  0.29294  0.12209  1.0000
  S   S540      1.0  0.51391  0.99855  0.99912  1.0000
  C   C1638     1.0  0.58937  0.27517  0.13516  1.0000
  C   C1639     1.0  0.74666  0.25578  0.22614  1.0000
  S   S541      1.0  0.58900  0.12205  0.00706  1.0000
  H   H1639     1.0  0.64973  0.19712  0.21353  1.0000
  N   N136      1.0  0.60713  0.14274  0.04869  1.0000
  C   C1640     1.0  0.53113  0.07664  0.00736  1.0000
  N   N137      1.0  0.58011  0.27042  0.14727  1.0000
  H   H1640     1.0  0.60819  0.17008  0.04368  1.0000
  C   C1641     1.0  0.52422  0.06508  0.00370  1.0000
  H   H1641     1.0  0.52682  0.16000  0.06360  1.0000
  H   H1642     1.0  0.60587  0.11580  0.05115  1.0000
  S   S542      1.0  0.76251  0.29397  0.22540  1.0000
  H   H1643     1.0  0.57221  0.27548  0.16590  1.0000
  H   H1644     1.0  0.60340  0.25265  0.21224  1.0000
  C   C1642     1.0  0.62677  0.21276  0.20590  1.0000
  C   C1643     1.0  0.55427  0.05224  0.99379  1.0000
  C   C1644     1.0  0.66170  0.31644  0.19751  1.0000
  S   S543      1.0  0.54698  0.31007  0.13912  1.0000
  S   S544      1.0  0.72711  0.31715  0.20535  1.0000
  C   C1645     1.0  0.59811  0.28924  0.13172  1.0000
  C   C1646     1.0  0.68241  0.31200  0.21085  1.0000
  C   C1647     1.0  0.77430  0.29985  0.23411  1.0000
  C   C1648     1.0  0.80640  0.31093  0.20106  1.0000
  C   C1649     1.0  0.50787  0.31635  0.12207  1.0000
  H   H1645     1.0  0.75306  0.25903  0.23234  1.0000
  H   H1646     1.0  0.50324  0.03772  0.98753  1.0000
  S   S545      1.0  0.50171  0.15420  0.03118  1.0000
  H   H1647     1.0  0.63158  0.26034  0.22044  1.0000
  S   S546      1.0  0.56471  0.99498  0.99800  1.0000
  H   H1648     1.0  0.61473  0.11378  0.98535  1.0000
  C   C1650     1.0  0.68793  0.31884  0.16938  1.0000
  H   H1649     1.0  0.57164  0.32134  0.11553  1.0000
  H   H1650     1.0  0.82528  0.32152  0.23304  1.0000
  C   C1651     1.0  0.58646  0.32114  0.18367  1.0000
  C   C1652     1.0  0.62550  0.24951  0.22716  1.0000
  S   S547      1.0  0.53759  0.99541  0.02630  1.0000
  H   H1651     1.0  0.64802  0.21801  0.22655  1.0000
  C   C1653     1.0  0.79188  0.30782  0.24972  1.0000
  S   S548      1.0  0.52378  0.01950  0.42395  1.0000
  C   C1654     1.0  0.76234  0.27323  0.29004  1.0000
  C   C1655     1.0  0.53965  0.12337  0.41808  1.0000
  S   S549      1.0  0.54852  0.03941  0.46578  1.0000
  C   C1656     1.0  0.74520  0.26262  0.28007  1.0000
  C   C1657     1.0  0.69173  0.01235  0.34887  1.0000
  Fe  Fe271     1.0  0.55981  0.10101  0.44856  1.0000
  S   S550      1.0  0.58406  0.11185  0.43693  1.0000
  S   S551      1.0  0.55990  0.08320  0.46780  1.0000
  Fe  Fe272     1.0  0.69547  0.21902  0.25794  1.0000
  S   S552      1.0  0.70286  0.23345  0.26963  1.0000
  Fe  Fe273     1.0  0.71535  0.18368  0.27070  1.0000
  S   S553      1.0  0.72491  0.19539  0.28290  1.0000
  S   S554      1.0  0.72224  0.15410  0.27500  1.0000
  Fe  Fe274     1.0  0.69672  0.21108  0.28589  1.0000
  S   S555      1.0  0.68199  0.21453  0.30540  1.0000
  Fe  Fe275     1.0  0.73029  0.21634  0.26551  1.0000
  S   S556      1.0  0.75369  0.22977  0.25812  1.0000
  S   S557      1.0  0.68662  0.19818  0.27475  1.0000
  S   S558      1.0  0.72343  0.20316  0.25275  1.0000
  Fe  Fe276     1.0  0.80857  0.10890  0.29397  1.0000
  S   S559      1.0  0.79531  0.11152  0.31383  1.0000
  S   S560      1.0  0.80362  0.13328  0.27887  1.0000
  Fe  Fe277     1.0  0.82579  0.06980  0.30179  1.0000
  S   S561      1.0  0.81436  0.06957  0.32236  1.0000
  S   S562      1.0  0.84073  0.04473  0.29487  1.0000
  Fe  Fe278     1.0  0.78906  0.08515  0.31598  1.0000
  S   S563      1.0  0.76259  0.07699  0.32256  1.0000
  Fe  Fe279     1.0  0.82205  0.09602  0.31804  1.0000
  S   S564      1.0  0.83421  0.10408  0.33114  1.0000
  S   S565      1.0  0.80021  0.08388  0.29566  1.0000
  S   S566      1.0  0.83577  0.09492  0.29792  1.0000
  Fe  Fe280     1.0  0.89957  0.16845  0.32243  1.0000
  S   S567      1.0  0.92848  0.17056  0.31462  1.0000
  S   S568      1.0  0.88812  0.15660  0.31088  1.0000
  Fe  Fe281     1.0  0.89467  0.19108  0.34149  1.0000
  S   S569      1.0  0.92270  0.19521  0.33500  1.0000
  S   S570      1.0  0.87516  0.20313  0.35720  1.0000
  Fe  Fe282     1.0  0.91854  0.19906  0.31555  1.0000
  S   S571      1.0  0.93045  0.21979  0.30037  1.0000
  Fe  Fe283     1.0  0.93045  0.16645  0.33470  1.0000
  S   S572      1.0  0.95533  0.15236  0.34221  1.0000
  S   S573      1.0  0.88951  0.19763  0.32197  1.0000
  S   S574      1.0  0.90246  0.16160  0.34273  1.0000
  C   C1658     1.0  0.75580  0.28891  0.26970  1.0000
  C   C1659     1.0  0.55551  0.00882  0.39093  1.0000
  Fe  Fe284     1.0  0.85377  0.26342  0.27241  1.0000
  S   S575      1.0  0.88142  0.25570  0.26094  1.0000
  Fe  Fe285     1.0  0.94037  0.29508  0.34978  1.0000
  S   S576      1.0  0.63183  0.01557  0.34120  1.0000
  Fe  Fe286     1.0  0.64590  0.13242  0.34600  1.0000
  S   S577      1.0  0.64818  0.12731  0.36622  1.0000
  S   S578      1.0  0.63380  0.15900  0.33530  1.0000
  Fe  Fe287     1.0  0.66286  0.09440  0.34367  1.0000
  S   S579      1.0  0.66680  0.08589  0.36355  1.0000
  S   S580      1.0  0.67403  0.07635  0.32995  1.0000
  Fe  Fe288     1.0  0.63896  0.10225  0.36859  1.0000
  S   S581      1.0  0.61832  0.08965  0.38409  1.0000
  Fe  Fe289     1.0  0.67567  0.11146  0.35940  1.0000
  S   S582      1.0  0.70167  0.11365  0.36250  1.0000
  S   S583      1.0  0.63434  0.10876  0.34880  1.0000
  S   S584      1.0  0.67394  0.11868  0.33906  1.0000
  Fe  Fe290     1.0  0.54372  0.06905  0.46195  1.0000
  H   H1652     1.0  0.77135  0.29707  0.27928  1.0000
  C   C1660     1.0  0.59507  0.12387  0.48144  1.0000
  S   S585      1.0  0.67922  0.23750  0.24396  1.0000
  S   S586      1.0  0.89644  0.25791  0.37857  1.0000
  H   H1653     1.0  0.73645  0.29100  0.25352  1.0000
  C   C1661     1.0  0.76767  0.04475  0.28741  1.0000
  C   C1662     1.0  0.79209  0.23897  0.27109  1.0000
  H   H1654     1.0  0.53101  0.12677  0.42677  1.0000
  H   H1655     1.0  0.81092  0.16892  0.27392  1.0000
  C   C1663     1.0  0.87829  0.24673  0.31204  1.0000
  H   H1656     1.0  0.78878  0.17582  0.28311  1.0000
  C   C1664     1.0  0.64363  0.03244  0.33790  1.0000
  C   C1665     1.0  0.66027  0.03173  0.32942  1.0000
  C   C1666     1.0  0.66939  0.04545  0.32682  1.0000
  C   C1667     1.0  0.66208  0.05970  0.33289  1.0000
  C   C1668     1.0  0.64555  0.06030  0.34148  1.0000
  C   C1669     1.0  0.63625  0.04679  0.34386  1.0000
  H   H1657     1.0  0.66593  0.02082  0.32466  1.0000
  H   H1658     1.0  0.68219  0.04494  0.32018  1.0000
  H   H1659     1.0  0.63987  0.07119  0.34626  1.0000
  H   H1660     1.0  0.62339  0.04739  0.35043  1.0000
  C   C1670     1.0  0.95425  0.27300  0.31653  1.0000
  H   H1661     1.0  0.64201  0.17143  0.28871  1.0000
  H   H1662     1.0  0.94399  0.18286  0.28549  1.0000
  H   H1663     1.0  0.58474  0.11647  0.38053  1.0000
  C   C1671     1.0  0.97231  0.16453  0.33534  1.0000
  H   H1664     1.0  0.58955  0.13683  0.48372  1.0000
  C   C1672     1.0  0.97262  0.23799  0.31867  1.0000
  C   C1673     1.0  0.90153  0.29804  0.40443  1.0000
  N   N138      1.0  0.57309  0.00317  0.38292  1.0000
  C   C1674     1.0  0.97096  0.17782  0.32443  1.0000
  S   S587      1.0  0.90528  0.30062  0.31812  1.0000
  C   C1675     1.0  0.93355  0.18660  0.28011  1.0000
  H   H1665     1.0  0.58337  0.02963  0.43749  1.0000
  H   H1666     1.0  0.95996  0.18011  0.31985  1.0000
  C   C1676     1.0  0.91743  0.22915  0.28898  1.0000
  C   C1677     1.0  0.92152  0.24369  0.27947  1.0000
  C   C1678     1.0  0.91056  0.25178  0.27069  1.0000
  C   C1679     1.0  0.89537  0.24549  0.27162  1.0000
  C   C1680     1.0  0.89145  0.23080  0.28100  1.0000
  C   C1681     1.0  0.90268  0.22244  0.28953  1.0000
  H   H1667     1.0  0.93298  0.24886  0.27899  1.0000
  H   H1668     1.0  0.91356  0.26317  0.26341  1.0000
  H   H1669     1.0  0.87987  0.22575  0.28158  1.0000
  H   H1670     1.0  0.89985  0.21085  0.29654  1.0000
  C   C1682     1.0  0.89060  0.24319  0.37214  1.0000
  C   C1683     1.0  0.87611  0.23533  0.37886  1.0000
  C   C1684     1.0  0.87137  0.22329  0.37405  1.0000
  C   C1685     1.0  0.88144  0.21856  0.36270  1.0000
  C   C1686     1.0  0.89617  0.22615  0.35607  1.0000
  C   C1687     1.0  0.90055  0.23870  0.36066  1.0000
  H   H1671     1.0  0.86837  0.23872  0.38774  1.0000
  H   H1672     1.0  0.85996  0.21749  0.37923  1.0000
  H   H1673     1.0  0.90390  0.22278  0.34724  1.0000
  H   H1674     1.0  0.91188  0.24456  0.35547  1.0000
  C   C1688     1.0  0.82729  0.02935  0.29709  1.0000
  H   H1675     1.0  0.56285  0.12622  0.46969  1.0000
  H   H1676     1.0  0.86134  0.04748  0.34359  1.0000
  C   C1689     1.0  0.72219  0.00657  0.33601  1.0000
  C   C1690     1.0  0.79888  0.02005  0.30553  1.0000
  C   C1691     1.0  0.80974  0.03188  0.30428  1.0000
  C   C1692     1.0  0.99494  0.30825  0.34793  1.0000
  H   H1677     1.0  0.72130  0.11857  0.32177  1.0000
  H   H1678     1.0  0.78524  0.02231  0.31098  1.0000
  H   H1679     1.0  0.80440  0.04306  0.30882  1.0000
  C   C1693     1.0  0.84922  0.11866  0.32540  1.0000
  C   C1694     1.0  0.85502  0.12442  0.33403  1.0000
  C   C1695     1.0  0.86694  0.13603  0.32978  1.0000
  C   C1696     1.0  0.87324  0.14190  0.31682  1.0000
  C   C1697     1.0  0.86749  0.13607  0.30819  1.0000
  C   C1698     1.0  0.85554  0.12452  0.31244  1.0000
  H   H1680     1.0  0.85021  0.11995  0.34408  1.0000
  H   H1681     1.0  0.87127  0.14041  0.33651  1.0000
  H   H1682     1.0  0.87226  0.14057  0.29815  1.0000
  H   H1683     1.0  0.85118  0.12024  0.30568  1.0000
  C   C1699     1.0  0.74637  0.08673  0.33417  1.0000
  C   C1700     1.0  0.75004  0.09820  0.34006  1.0000
  C   C1701     1.0  0.73646  0.10608  0.34912  1.0000
  C   C1702     1.0  0.71923  0.10260  0.35216  1.0000
  C   C1703     1.0  0.71566  0.09118  0.34621  1.0000
  C   C1704     1.0  0.72921  0.08319  0.33731  1.0000
  H   H1684     1.0  0.76331  0.10094  0.33768  1.0000
  H   H1685     1.0  0.73923  0.11500  0.35366  1.0000
  H   H1686     1.0  0.70244  0.08848  0.34843  1.0000
  H   H1687     1.0  0.72629  0.07442  0.33271  1.0000
  C   C1705     1.0  0.76809  0.22833  0.26793  1.0000
  H   H1688     1.0  0.60520  0.04437  0.45095  1.0000
  H   H1689     1.0  0.83138  0.16112  0.32101  1.0000
  C   C1706     1.0  0.57330  0.10966  0.38415  1.0000
  C   C1707     1.0  0.77714  0.21873  0.28812  1.0000
  C   C1708     1.0  0.76605  0.21839  0.28036  1.0000
  C   C1709     1.0  0.99516  0.24342  0.32749  1.0000
  H   H1690     1.0  0.77551  0.21114  0.29775  1.0000
  H   H1691     1.0  0.75586  0.21063  0.28402  1.0000
  C   C1710     1.0  0.74503  0.14791  0.27557  1.0000
  C   C1711     1.0  0.75626  0.15982  0.26945  1.0000
  C   C1712     1.0  0.77434  0.15515  0.27029  1.0000
  C   C1713     1.0  0.78110  0.13878  0.27756  1.0000
  C   C1714     1.0  0.76975  0.12701  0.28385  1.0000
  C   C1715     1.0  0.75186  0.13140  0.28263  1.0000
  H   H1692     1.0  0.75113  0.17255  0.26388  1.0000
  H   H1693     1.0  0.78304  0.16426  0.26530  1.0000
  H   H1694     1.0  0.77474  0.11444  0.28958  1.0000
  H   H1695     1.0  0.74331  0.12206  0.28726  1.0000
  C   C1716     1.0  0.66911  0.19864  0.31372  1.0000
  C   C1717     1.0  0.65228  0.20401  0.32126  1.0000
  C   C1718     1.0  0.64168  0.19168  0.32797  1.0000
  C   C1719     1.0  0.64824  0.17372  0.32781  1.0000
  C   C1720     1.0  0.66543  0.16815  0.32070  1.0000
  C   C1721     1.0  0.67556  0.18071  0.31325  1.0000
  H   H1696     1.0  0.64722  0.21784  0.32166  1.0000
  H   H1697     1.0  0.62838  0.19609  0.33338  1.0000
  H   H1698     1.0  0.67061  0.15430  0.32054  1.0000
  H   H1699     1.0  0.68846  0.17651  0.30732  1.0000
  C   C1722     1.0  0.59462  0.10487  0.42259  1.0000
  C   C1723     1.0  0.59035  0.09077  0.41985  1.0000
  C   C1724     1.0  0.59811  0.08601  0.40813  1.0000
  C   C1725     1.0  0.61024  0.09526  0.39903  1.0000
  C   C1726     1.0  0.61482  0.10917  0.40182  1.0000
  C   C1727     1.0  0.60704  0.11393  0.41360  1.0000
  H   H1700     1.0  0.58109  0.08349  0.42675  1.0000
  H   H1701     1.0  0.59461  0.07516  0.40605  1.0000
  H   H1702     1.0  0.62419  0.11637  0.39487  1.0000
  H   H1703     1.0  0.61049  0.12481  0.41566  1.0000
  C   C1728     1.0  0.52941  0.02433  0.43639  1.0000
  C   C1729     1.0  0.53832  0.01100  0.44492  1.0000
  C   C1730     1.0  0.54354  0.01547  0.45441  1.0000
  C   C1731     1.0  0.54000  0.03322  0.45522  1.0000
  C   C1732     1.0  0.53041  0.04626  0.44705  1.0000
  C   C1733     1.0  0.52519  0.04188  0.43761  1.0000
  H   H1704     1.0  0.66497  0.01849  0.36018  1.0000
  H   H1705     1.0  0.55063  0.00527  0.46093  1.0000
  H   H1706     1.0  0.52703  0.05978  0.44796  1.0000
  H   H1707     1.0  0.51795  0.05215  0.43120  1.0000
  S   S588      1.0  0.80333  0.23012  0.29348  1.0000
  C   C1734     1.0  0.89130  0.25414  0.32640  1.0000
  C   C1735     1.0  0.86751  0.29123  0.30414  1.0000
  C   C1736     1.0  0.86301  0.24487  0.32161  1.0000
  H   H1708     1.0  0.80220  0.27976  0.25435  1.0000
  H   H1709     1.0  0.84761  0.01253  0.28586  1.0000
  S   S589      1.0  0.97032  0.29198  0.34535  1.0000
  H   H1710     1.0  0.58417  0.99844  0.43805  1.0000
  H   H1711     1.0  0.57914  0.09519  0.38590  1.0000
  C   C1737     1.0  0.57542  0.13129  0.46634  1.0000
  N   N139      1.0  0.91421  0.18258  0.37460  1.0000
  C   C1738     1.0  0.91300  0.19650  0.37981  1.0000
  C   C1739     1.0  0.92944  0.17683  0.36625  1.0000
  C   C1740     1.0  0.92698  0.20554  0.37625  1.0000
  C   C1741     1.0  0.94370  0.18550  0.36251  1.0000
  C   C1742     1.0  0.94239  0.20002  0.36748  1.0000
  C   C1743     1.0  0.89948  0.17322  0.37838  1.0000
  H   H1712     1.0  0.90099  0.20100  0.38652  1.0000
  H   H1713     1.0  0.93056  0.16556  0.36232  1.0000
  H   H1714     1.0  0.92568  0.21697  0.38008  1.0000
  H   H1715     1.0  0.95564  0.18102  0.35574  1.0000
  H   H1716     1.0  0.95330  0.20696  0.36453  1.0000
  H   H1717     1.0  0.90221  0.16132  0.38595  1.0000
  H   H1718     1.0  0.88644  0.18193  0.38174  1.0000
  H   H1719     1.0  0.89783  0.16911  0.37016  1.0000
  N   N140      1.0  0.65873  0.15190  0.29986  1.0000
  C   C1744     1.0  0.67625  0.14783  0.29360  1.0000
  C   C1745     1.0  0.65095  0.13906  0.30856  1.0000
  H   H1720     1.0  0.55969  0.13706  0.41778  1.0000
  C   C1746     1.0  0.66081  0.12169  0.31132  1.0000
  C   C1747     1.0  0.67874  0.11748  0.30514  1.0000
  H   H1721     1.0  0.89572  0.20152  0.26157  1.0000
  H   H1722     1.0  0.75710  0.29989  0.26166  1.0000
  C   C1748     1.0  0.87557  0.25269  0.33563  1.0000
  H   H1723     1.0  0.69760  0.05645  0.35285  1.0000
  H   H1724     1.0  0.83497  0.25871  0.34089  1.0000
  H   H1725     1.0  0.90784  0.22711  0.25001  1.0000
  H   H1726     1.0  0.75130  0.26985  0.25222  1.0000
  H   H1727     1.0  0.73843  0.25255  0.28013  1.0000
  C   C1749     1.0  0.72719  0.12972  0.31537  1.0000
  H   H1728     1.0  0.90444  0.25285  0.30710  1.0000
  C   C1750     1.0  0.53496  0.11274  0.41209  1.0000
  S   S590      1.0  0.82963  0.26310  0.26604  1.0000
  C   C1751     1.0  0.97695  0.30691  0.35109  1.0000
  C   C1752     1.0  0.86542  0.30913  0.38613  1.0000
  C   C1753     1.0  0.78534  0.28638  0.24107  1.0000
  C   C1754     1.0  0.79409  0.29034  0.24885  1.0000
  H   H1729     1.0  0.91872  0.16719  0.29227  1.0000
  H   H1730     1.0  0.52269  0.10784  0.41616  1.0000
  H   H1731     1.0  0.74199  0.12569  0.31449  1.0000
  H   H1732     1.0  0.80242  0.19174  0.27528  1.0000
  H   H1733     1.0  0.59167  0.09884  0.46303  1.0000
  C   C1755     1.0  0.58732  0.01939  0.44537  1.0000
  C   C1756     1.0  0.79690  0.01195  0.26813  1.0000
  C   C1757     1.0  0.79601  0.05330  0.27773  1.0000
  H   H1734     1.0  0.70046  0.12752  0.29124  1.0000
  H   H1735     1.0  0.95052  0.31639  0.36145  1.0000
  H   H1736     1.0  0.71699  0.00085  0.33013  1.0000
  H   H1737     1.0  0.72863  0.27094  0.26132  1.0000
  H   H1738     1.0  0.68244  0.15793  0.28661  1.0000
  H   H1739     1.0  0.68991  0.00005  0.34768  1.0000
  H   H1740     1.0  0.75195  0.24957  0.29820  1.0000
  C   C1758     1.0  0.74042  0.27714  0.25872  1.0000
  C   C1759     1.0  0.85431  0.29318  0.32592  1.0000
  S   S591      1.0  0.88873  0.30293  0.35524  1.0000
  C   C1760     1.0  0.99588  0.28062  0.37880  1.0000
  H   H1741     1.0  0.81475  0.14109  0.31789  1.0000
  C   C1761     1.0  0.88323  0.29507  0.30524  1.0000
  H   H1742     1.0  0.80153  0.14918  0.29899  1.0000
  C   C1762     1.0  0.80277  0.17777  0.28044  1.0000
  H   H1743     1.0  0.56556  0.11324  0.37662  1.0000
  H   H1744     1.0  0.99625  0.22958  0.33312  1.0000
  H   H1745     1.0  0.83428  0.18926  0.30520  1.0000
  H   H1746     1.0  0.82104  0.19676  0.28643  1.0000
  H   H1747     1.0  0.80199  0.24698  0.26742  1.0000
  N   N141      1.0  0.70747  0.01783  0.34324  1.0000
  C   C1763     1.0  0.70975  0.03333  0.34479  1.0000
  H   H1748     1.0  0.57981  0.13251  0.45592  1.0000
  C   C1764     1.0  0.80168  0.03861  0.27211  1.0000
  C   C1765     1.0  0.96445  0.31712  0.35916  1.0000
  C   C1766     1.0  0.59605  0.10255  0.47010  1.0000
  C   C1767     1.0  0.80540  0.00559  0.29960  1.0000
  C   C1768     1.0  0.95710  0.24358  0.31374  1.0000
  H   H1749     1.0  0.89443  0.29569  0.29721  1.0000
  C   C1769     1.0  0.67763  0.02262  0.35608  1.0000
  N   N142      1.0  0.74687  0.27647  0.26990  1.0000
  H   H1750     1.0  0.54649  0.00013  0.39144  1.0000
  H   H1751     1.0  0.93575  0.26581  0.30892  1.0000
  C   C1770     1.0  0.77373  0.03024  0.28159  1.0000
  H   H1752     1.0  0.58596  0.04526  0.46408  1.0000
  C   C1771     1.0  0.93399  0.20048  0.26944  1.0000
  H   H1753     1.0  0.72900  0.99543  0.34261  1.0000
  H   H1754     1.0  0.87100  0.29890  0.33593  1.0000
  H   H1755     1.0  0.81092  0.00533  0.26899  1.0000
  H   H1756     1.0  0.95239  0.23431  0.31064  1.0000
  H   H1757     1.0  0.84766  0.24470  0.35255  1.0000
  H   H1758     1.0  0.63711  0.14228  0.31362  1.0000
  H   H1759     1.0  0.84243  0.06559  0.34083  1.0000
  C   C1772     1.0  0.57607  0.00993  0.37017  1.0000
  C   C1773     1.0  0.79003  0.22924  0.28353  1.0000
  N   N143      1.0  0.86241  0.06092  0.32445  1.0000
  C   C1774     1.0  0.87087  0.07437  0.32277  1.0000
  C   C1775     1.0  0.86375  0.05352  0.31453  1.0000
  C   C1776     1.0  0.88057  0.08111  0.31085  1.0000
  C   C1777     1.0  0.87349  0.05983  0.30249  1.0000
  C   C1778     1.0  0.88185  0.07378  0.30065  1.0000
  C   C1779     1.0  0.85213  0.05435  0.33704  1.0000
  H   H1760     1.0  0.86971  0.08029  0.33063  1.0000
  H   H1761     1.0  0.85705  0.04286  0.31578  1.0000
  H   H1762     1.0  0.88679  0.09213  0.30953  1.0000
  H   H1763     1.0  0.87418  0.05413  0.29461  1.0000
  H   H1764     1.0  0.88914  0.07901  0.29130  1.0000
  C   C1780     1.0  0.77891  0.05632  0.28547  1.0000
  H   H1765     1.0  0.76879  0.27166  0.29775  1.0000
  H   H1766     1.0  0.99260  0.25669  0.37539  1.0000
  H   H1767     1.0  0.92801  0.22998  0.25243  1.0000
  C   C1781     1.0  0.98401  0.18806  0.31926  1.0000
  H   H1768     1.0  0.94711  0.28675  0.31575  1.0000
  H   H1769     1.0  0.98299  0.19807  0.31068  1.0000
  C   C1782     1.0  0.70864  0.14608  0.33169  1.0000
  C   C1783     1.0  0.67977  0.03853  0.35759  1.0000
  H   H1770     1.0  0.77450  0.06735  0.29021  1.0000
  H   H1771     1.0  0.87870  0.24543  0.30266  1.0000
  H   H1772     1.0  0.87422  0.25598  0.34461  1.0000
  H   H1773     1.0  0.85174  0.24188  0.31951  1.0000
  C   C1784     1.0  0.70152  0.16170  0.33618  1.0000
  C   C1785     1.0  0.87009  0.29685  0.32705  1.0000
  Fe  Fe291     1.0  0.81892  0.25196  0.28645  1.0000
  H   H1774     1.0  0.97990  0.22435  0.31927  1.0000
  H   H1775     1.0  0.59510  0.00993  0.35223  1.0000
  H   H1776     1.0  0.79623  0.01622  0.25800  1.0000
  S   S592      1.0  0.79037  0.99245  0.30034  1.0000
  H   H1777     1.0  0.58249  0.05152  0.44837  1.0000
  H   H1778     1.0  0.73225  0.01403  0.32956  1.0000
  C   C1786     1.0  0.59581  0.01081  0.46521  1.0000
  H   H1779     1.0  0.85133  0.31037  0.39157  1.0000
  C   C1787     1.0  0.89035  0.29658  0.39722  1.0000
  H   H1780     1.0  0.55666  0.00818  0.40068  1.0000
  C   C1788     1.0  0.76378  0.28744  0.27970  1.0000
  H   H1781     1.0  0.76513  0.02100  0.28345  1.0000
  H   H1782     1.0  0.57235  0.14475  0.46828  1.0000
  S   S593      1.0  0.92395  0.31950  0.33983  1.0000
  C   C1789     1.0  0.82309  0.00279  0.29261  1.0000
  N   N144      1.0  0.81031  0.17351  0.29171  1.0000
  C   C1790     1.0  0.80860  0.15806  0.30037  1.0000
  C   C1791     1.0  0.81953  0.18456  0.29332  1.0000
  C   C1792     1.0  0.81602  0.15343  0.31107  1.0000
  C   C1793     1.0  0.82710  0.18037  0.30393  1.0000
  C   C1794     1.0  0.82535  0.16468  0.31283  1.0000
  Fe  Fe292     1.0  0.53338  0.10094  0.47376  1.0000
  S   S594      1.0  0.54597  0.08537  0.44214  1.0000
  Fe  Fe293     1.0  0.81845  0.28953  0.27139  1.0000
  H   H1783     1.0  0.84421  0.04501  0.33684  1.0000
  H   H1784     1.0  0.70029  0.18978  0.33192  1.0000
  S   S595      1.0  0.92733  0.27636  0.34573  1.0000
  H   H1785     1.0  0.94495  0.20734  0.26662  1.0000
  H   H1786     1.0  0.66876  0.04686  0.36288  1.0000
  C   C1795     1.0  0.68654  0.13061  0.29620  1.0000
  Fe  Fe294     1.0  0.52031  0.10251  0.45037  1.0000
  H   H1787     1.0  0.90200  0.25839  0.32825  1.0000
  N   N145      1.0  0.56174  0.11451  0.39585  1.0000
  C   C1796     1.0  0.92149  0.21991  0.25153  1.0000
  C   C1797     1.0  0.56652  0.12481  0.40173  1.0000
  H   H1788     1.0  0.61338  0.07689  0.47477  1.0000
  H   H1789     1.0  0.78873  0.00176  0.27280  1.0000
  S   S596      1.0  0.83380  0.28361  0.31390  1.0000
  S   S597      1.0  0.84377  0.29087  0.27608  1.0000
  H   H1790     1.0  0.78304  0.24587  0.25367  1.0000
  H   H1791     1.0  0.57900  0.12932  0.39790  1.0000
  C   C1798     1.0  0.78131  0.23835  0.26330  1.0000
  H   H1792     1.0  0.75453  0.04676  0.29365  1.0000
  H   H1793     1.0  0.68652  0.10404  0.30733  1.0000
  C   C1799     1.0  0.98680  0.16161  0.34109  1.0000
  H   H1794     1.0  0.84314  0.29244  0.33396  1.0000
  C   C1800     1.0  0.54628  0.10834  0.40095  1.0000
  H   H1795     1.0  0.54265  0.09992  0.39642  1.0000
  C   C1801     1.0  0.55560  0.12931  0.41296  1.0000
  N   N146      1.0  0.59126  0.02370  0.45511  1.0000
  S   S598      1.0  0.80622  0.27840  0.29149  1.0000
  Fe  Fe295     1.0  0.90778  0.27953  0.36391  1.0000
  C   C1802     1.0  0.90650  0.19726  0.26666  1.0000
  S   S599      1.0  0.84443  0.24964  0.29244  1.0000
  N   N147      1.0  0.86190  0.24764  0.33327  1.0000
  H   H1796     1.0  0.70477  0.13402  0.33747  1.0000
  H   H1797     1.0  0.63719  0.17306  0.30509  1.0000
  H   H1798     1.0  0.82830  0.99163  0.28805  1.0000
  C   C1803     1.0  0.88469  0.29761  0.31675  1.0000
  C   C1804     1.0  0.71804  0.17729  0.31705  1.0000
  N   N148      1.0  0.97862  0.24954  0.32263  1.0000
  N   N149      1.0  0.79062  0.02723  0.27416  1.0000
  C   C1805     1.0  0.89263  0.25110  0.31452  1.0000
  H   H1799     1.0  0.69221  0.16158  0.34528  1.0000
  C   C1806     1.0  0.85306  0.29008  0.31453  1.0000
  N   N150      1.0  0.92051  0.20569  0.26291  1.0000
  H   H1800     1.0  0.84038  0.23479  0.34300  1.0000
  H   H1801     1.0  0.72138  0.18957  0.31114  1.0000
  H   H1802     1.0  0.89434  0.17687  0.28053  1.0000
  S   S600      1.0  0.92269  0.29561  0.36903  1.0000
  N   N151      1.0  0.58937  0.11908  0.47267  1.0000
  S   S601      1.0  0.53434  0.11995  0.45499  1.0000
  H   H1803     1.0  0.59879  0.01426  0.47297  1.0000
  S   S602      1.0  0.51709  0.08512  0.46975  1.0000
  C   C1807     1.0  0.84537  0.24646  0.34293  1.0000
  S   S603      1.0  0.80259  0.31290  0.25961  1.0000
  N   N152      1.0  0.72008  0.14609  0.32013  1.0000
  C   C1808     1.0  0.90563  0.18335  0.27732  1.0000
  Fe  Fe296     1.0  0.83269  0.27717  0.29576  1.0000
  H   H1804     1.0  0.65466  0.11156  0.31831  1.0000
  C   C1809     1.0  0.64806  0.16993  0.29684  1.0000
  H   H1805     1.0  0.86670  0.28888  0.29532  1.0000
  H   H1806     1.0  0.92917  0.21437  0.24312  1.0000
  C   C1810     1.0  0.91931  0.17795  0.28400  1.0000
  C   C1811     1.0  0.83400  0.01465  0.29138  1.0000
  Fe  Fe297     1.0  0.90926  0.30087  0.33720  1.0000
  H   H1807     1.0  0.65647  0.17989  0.29450  1.0000
  C   C1812     1.0  0.72491  0.16139  0.31284  1.0000
  H   H1808     1.0  0.73386  0.16139  0.30361  1.0000
  C   C1813     1.0  0.70619  0.17743  0.32877  1.0000
  H   H1809     1.0  0.72406  0.13174  0.30598  1.0000
  H   H1810     1.0  0.72223  0.03770  0.34040  1.0000
  C   C1814     1.0  0.75283  0.26084  0.29031  1.0000
  C   C1815     1.0  0.69592  0.04393  0.35194  1.0000
  H   H1811     1.0  0.80507  0.06192  0.27642  1.0000
  H   H1812     1.0  0.54917  0.02273  0.38716  1.0000
  C   C1816     1.0  0.59135  0.04212  0.45454  1.0000
  C   C1817     1.0  0.96979  0.26692  0.32146  1.0000
  H   H1813     1.0  0.78708  0.27279  0.24050  1.0000
  H   H1814     1.0  0.81517  0.03607  0.26641  1.0000
  H   H1815     1.0  0.54146  0.99736  0.44407  1.0000
  C   C1818     1.0  0.94783  0.26121  0.31272  1.0000
  H   H1816     1.0  0.91236  0.28704  0.40687  1.0000
  H   H1817     1.0  0.89266  0.28427  0.39418  1.0000
  H   H1818     1.0  0.97470  0.27619  0.32438  1.0000
  H   H1819     1.0  0.98792  0.15135  0.34954  1.0000
  H   H1820     1.0  0.98437  0.28887  0.37510  1.0000
  Fe  Fe298     1.0  0.90528  0.31905  0.35890  1.0000
  C   C1819     1.0  0.00050  0.31942  0.35308  1.0000
  C   C1820     1.0  0.58776  0.00177  0.44563  1.0000
  C   C1821     1.0  0.99829  0.18544  0.32512  1.0000
  H   H1821     1.0  0.56561  0.01954  0.36595  1.0000
  H   H1822     1.0  0.72910  0.24185  0.24137  1.0000
  C   C1822     1.0  0.89877  0.31385  0.40830  1.0000
  C   C1823     1.0  0.60847  0.09014  0.47660  1.0000
  C   C1824     1.0  0.59638  0.99306  0.46576  1.0000
  N   N153      1.0  0.87696  0.31058  0.39383  1.0000
  C   C1825     1.0  0.78090  0.32142  0.24265  1.0000
  H   H1823     1.0  0.86968  0.29623  0.38313  1.0000
  H   H1824     1.0  0.99564  0.25177  0.33378  1.0000
  H   H1825     1.0  0.90754  0.31536  0.41366  1.0000
  C   C1826     1.0  0.59264  0.00449  0.36235  1.0000
  C   C1827     1.0  0.00035  0.26251  0.37913  1.0000
  H   H1826     1.0  0.86597  0.31983  0.37743  1.0000
  C   C1828     1.0  0.99968  0.17217  0.33606  1.0000
  C   C1829     1.0  0.60608  0.99188  0.36762  1.0000
  C   C1830     1.0  0.77220  0.31745  0.23475  1.0000
  Fe  Fe299     1.0  0.52905  0.99058  0.42532  1.0000
  C   C1831     1.0  0.58611  0.99053  0.38813  1.0000
  H   H1827     1.0  0.63340  0.24358  0.23467  1.0000
  Fe  Fe300     1.0  0.56870  0.08795  0.55537  1.0000
  S   S604      1.0  0.57731  0.11368  0.55170  1.0000
  Fe  Fe301     1.0  0.60320  0.07171  0.53886  1.0000
  S   S605      1.0  0.61416  0.09607  0.53338  1.0000
  S   S606      1.0  0.61911  0.04717  0.53211  1.0000
  Fe  Fe302     1.0  0.60467  0.09685  0.55406  1.0000
  S   S607      1.0  0.62698  0.09479  0.56381  1.0000
  Fe  Fe303     1.0  0.58612  0.11031  0.53153  1.0000
  S   S608      1.0  0.59504  0.07138  0.55955  1.0000
  S   S609      1.0  0.57605  0.08572  0.53522  1.0000
  C   C1832     1.0  0.88732  0.06479  0.64035  1.0000
  Fe  Fe304     1.0  0.71723  0.20213  0.66207  1.0000
  S   S610      1.0  0.72985  0.18290  0.67749  1.0000
  S   S611      1.0  0.70908  0.19534  0.64635  1.0000
  Fe  Fe305     1.0  0.72678  0.23375  0.66741  1.0000
  S   S612      1.0  0.74063  0.21692  0.68276  1.0000
  S   S613      1.0  0.72528  0.26310  0.66104  1.0000
  Fe  Fe306     1.0  0.75215  0.19764  0.67005  1.0000
  S   S614      1.0  0.78162  0.18608  0.66462  1.0000
  Fe  Fe307     1.0  0.71696  0.20411  0.68887  1.0000
  S   S615      1.0  0.70597  0.19913  0.70995  1.0000
  S   S616      1.0  0.74042  0.21567  0.65403  1.0000
  S   S617      1.0  0.70220  0.22221  0.67410  1.0000
  Fe  Fe308     1.0  0.82409  0.10287  0.61120  1.0000
  S   S618      1.0  0.81130  0.08498  0.62814  1.0000
  S   S619      1.0  0.81718  0.11032  0.59218  1.0000
  Fe  Fe309     1.0  0.85078  0.10772  0.62436  1.0000
  S   S620      1.0  0.84055  0.08987  0.64260  1.0000
  S   S621      1.0  0.87363  0.12211  0.61916  1.0000
  Fe  Fe310     1.0  0.83935  0.07223  0.63050  1.0000
  S   S622      1.0  0.84706  0.04250  0.63628  1.0000
  Fe  Fe311     1.0  0.81332  0.10396  0.63878  1.0000
  S   S623      1.0  0.78990  0.11093  0.65428  1.0000
  S   S624      1.0  0.85226  0.08857  0.61256  1.0000
  S   S625      1.0  0.82346  0.12329  0.62147  1.0000
  Fe  Fe312     1.0  0.91917  0.20842  0.62623  1.0000
  S   S626      1.0  0.93493  0.21832  0.63551  1.0000
  S   S627      1.0  0.91355  0.22049  0.60692  1.0000
  Fe  Fe313     1.0  0.91264  0.17743  0.64770  1.0000
  S   S628      1.0  0.92812  0.18410  0.65922  1.0000
  S   S629      1.0  0.89694  0.15561  0.65559  1.0000
  Fe  Fe314     1.0  0.91412  0.21216  0.65306  1.0000
  S   S630      1.0  0.90673  0.23111  0.66598  1.0000
  Fe  Fe315     1.0  0.94821  0.18993  0.64112  1.0000
  S   S631      1.0  0.97807  0.18333  0.64037  1.0000
  S   S632      1.0  0.89674  0.20530  0.64316  1.0000
  S   S633      1.0  0.93435  0.18022  0.63010  1.0000
  S   S634      1.0  0.78764  0.28117  0.70672  1.0000
  S   S635      1.0  0.82319  0.24867  0.68742  1.0000
  H   H1828     1.0  0.89834  0.25422  0.64164  1.0000
  C   C1833     1.0  0.88593  0.05121  0.63534  1.0000
  C   C1834     1.0  0.98377  0.24007  0.61481  1.0000
  H   H1829     1.0  0.57871  0.04023  0.53302  1.0000
  C   C1835     1.0  0.99886  0.31154  0.61563  1.0000
  H   H1830     1.0  0.88327  0.06414  0.65046  1.0000
  Fe  Fe316     1.0  0.66088  0.00555  0.58777  1.0000
  S   S636      1.0  0.65173  0.03338  0.59098  1.0000
  C   C1836     1.0  0.53015  0.12973  0.54576  1.0000
  Fe  Fe317     1.0  0.67482  0.12167  0.60399  1.0000
  S   S637      1.0  0.67452  0.10305  0.62296  1.0000
  S   S638      1.0  0.64820  0.13389  0.59790  1.0000
  Fe  Fe318     1.0  0.71526  0.11812  0.59898  1.0000
  S   S639      1.0  0.71813  0.09877  0.61720  1.0000
  S   S640      1.0  0.73822  0.12662  0.58399  1.0000
  Fe  Fe319     1.0  0.69888  0.08646  0.61280  1.0000
  S   S641      1.0  0.70257  0.05688  0.61532  1.0000
  Fe  Fe320     1.0  0.69368  0.11734  0.62549  1.0000
  S   S642      1.0  0.69135  0.12399  0.64431  1.0000
  S   S643      1.0  0.69823  0.10427  0.59376  1.0000
  S   S644      1.0  0.69185  0.13752  0.60740  1.0000
  H   H1831     1.0  0.64614  0.04349  0.63025  1.0000
  C   C1837     1.0  0.50729  0.06528  0.54796  1.0000
  C   C1838     1.0  0.62835  0.08603  0.60739  1.0000
  C   C1839     1.0  0.86923  0.18818  0.62714  1.0000
  C   C1840     1.0  0.97780  0.18834  0.67658  1.0000
  Fe  Fe321     1.0  0.81118  0.31469  0.68006  1.0000
  C   C1841     1.0  0.94977  0.21761  0.67870  1.0000
  H   H1832     1.0  0.61036  0.05754  0.60039  1.0000
  C   C1842     1.0  0.64081  0.05561  0.62408  1.0000
  C   C1843     1.0  0.75001  0.31326  0.72595  1.0000
  H   H1833     1.0  0.75537  0.01105  0.61828  1.0000
  H   H1834     1.0  0.77902  0.27518  0.65641  1.0000
  H   H1835     1.0  0.96842  0.19679  0.61463  1.0000
  C   C1844     1.0  0.66669  0.03951  0.59728  1.0000
  C   C1845     1.0  0.66859  0.05709  0.59394  1.0000
  C   C1846     1.0  0.67951  0.06256  0.59943  1.0000
  C   C1847     1.0  0.68868  0.05043  0.60832  1.0000
  C   C1848     1.0  0.68669  0.03285  0.61175  1.0000
  C   C1849     1.0  0.67566  0.02744  0.60631  1.0000
  H   H1836     1.0  0.66143  0.06654  0.58718  1.0000
  H   H1837     1.0  0.68073  0.07618  0.59680  1.0000
  H   H1838     1.0  0.69335  0.02346  0.61884  1.0000
  H   H1839     1.0  0.67359  0.01409  0.60949  1.0000
  C   C1850     1.0  0.98795  0.19783  0.64428  1.0000
  C   C1851     1.0  0.97823  0.21452  0.64644  1.0000
  C   C1852     1.0  0.98656  0.22575  0.64945  1.0000
  C   C1853     1.0  0.94656  0.20212  0.67725  1.0000
  H   H1840     1.0  0.62354  0.08523  0.49098  1.0000
  H   H1841     1.0  0.60536  0.08136  0.59597  1.0000
  H   H1842     1.0  0.96427  0.21874  0.64590  1.0000
  H   H1843     1.0  0.97891  0.23857  0.65117  1.0000
  C   C1854     1.0  0.77204  0.00120  0.58926  1.0000
  H   H1844     1.0  0.53240  0.05587  0.53592  1.0000
  C   C1855     1.0  0.88371  0.23539  0.67259  1.0000
  C   C1856     1.0  0.87298  0.22460  0.67197  1.0000
  C   C1857     1.0  0.85441  0.22866  0.67671  1.0000
  C   C1858     1.0  0.84652  0.24362  0.68195  1.0000
  C   C1859     1.0  0.85729  0.25438  0.68261  1.0000
  C   C1860     1.0  0.87591  0.25018  0.67803  1.0000
  H   H1845     1.0  0.87899  0.21296  0.66803  1.0000
  H   H1846     1.0  0.84615  0.22021  0.67631  1.0000
  H   H1847     1.0  0.85137  0.26579  0.68677  1.0000
  H   H1848     1.0  0.88420  0.25853  0.67854  1.0000
  C   C1861     1.0  0.91383  0.24305  0.60177  1.0000
  C   C1862     1.0  0.91596  0.27067  0.60551  1.0000
  C   C1863     1.0  0.91434  0.25297  0.61008  1.0000
  H   H1849     1.0  0.91624  0.27833  0.61191  1.0000
  H   H1850     1.0  0.91354  0.24700  0.61998  1.0000
  C   C1864     1.0  0.84087  0.03093  0.62748  1.0000
  C   C1865     1.0  0.84102  0.01282  0.63199  1.0000
  H   H1851     1.0  0.78449  0.99553  0.58341  1.0000
  C   C1866     1.0  0.83186  0.01194  0.61331  1.0000
  C   C1867     1.0  0.83201  0.02997  0.60872  1.0000
  C   C1868     1.0  0.83629  0.03952  0.61584  1.0000
  H   H1852     1.0  0.84460  0.00611  0.64098  1.0000
  N   N154      1.0  0.74016  0.01282  0.59254  1.0000
  H   H1853     1.0  0.82891  0.03650  0.59959  1.0000
  H   H1854     1.0  0.83637  0.05343  0.61223  1.0000
  C   C1869     1.0  0.88090  0.13009  0.62965  1.0000
  C   C1870     1.0  0.89335  0.14104  0.62461  1.0000
  C   C1871     1.0  0.89864  0.14867  0.63248  1.0000
  C   C1872     1.0  0.89178  0.14511  0.64552  1.0000
  C   C1873     1.0  0.87985  0.13358  0.65063  1.0000
  C   C1874     1.0  0.87426  0.12623  0.64272  1.0000
  H   H1855     1.0  0.89861  0.14401  0.61451  1.0000
  H   H1856     1.0  0.90789  0.15745  0.62844  1.0000
  H   H1857     1.0  0.87462  0.13065  0.66074  1.0000
  H   H1858     1.0  0.86473  0.11773  0.64672  1.0000
  C   C1875     1.0  0.79463  0.11610  0.59092  1.0000
  C   C1876     1.0  0.78053  0.11282  0.60132  1.0000
  C   C1877     1.0  0.76287  0.11639  0.59949  1.0000
  C   C1878     1.0  0.75946  0.12328  0.58729  1.0000
  C   C1879     1.0  0.77355  0.12684  0.57707  1.0000
  C   C1880     1.0  0.79104  0.12318  0.57886  1.0000
  H   H1859     1.0  0.78329  0.10719  0.61066  1.0000
  H   H1860     1.0  0.75200  0.11363  0.60743  1.0000
  H   H1861     1.0  0.77099  0.13218  0.56764  1.0000
  H   H1862     1.0  0.80188  0.12573  0.57081  1.0000
  C   C1881     1.0  0.73193  0.27448  0.66970  1.0000
  C   C1882     1.0  0.74831  0.27554  0.68482  1.0000
  C   C1883     1.0  0.74290  0.26576  0.67841  1.0000
  H   H1863     1.0  0.75668  0.26880  0.69161  1.0000
  H   H1864     1.0  0.74739  0.25155  0.68009  1.0000
  C   C1884     1.0  0.69567  0.21840  0.71596  1.0000
  C   C1885     1.0  0.89808  0.08033  0.61920  1.0000
  C   C1886     1.0  0.89346  0.07942  0.63221  1.0000
  H   H1865     1.0  0.54703  0.15182  0.50545  1.0000
  C   C1887     1.0  0.67892  0.24889  0.71347  1.0000
  C   C1888     1.0  0.68737  0.23373  0.70847  1.0000
  H   H1866     1.0  0.52594  0.14400  0.49625  1.0000
  H   H1867     1.0  0.65936  0.19069  0.61072  1.0000
  H   H1868     1.0  0.67225  0.26059  0.70768  1.0000
  H   H1869     1.0  0.68712  0.23379  0.69891  1.0000
  C   C1889     1.0  0.78476  0.16467  0.66240  1.0000
  C   C1890     1.0  0.79872  0.15868  0.65286  1.0000
  C   C1891     1.0  0.80075  0.14188  0.65057  1.0000
  C   C1892     1.0  0.78870  0.13119  0.65776  1.0000
  C   C1893     1.0  0.77505  0.13701  0.66753  1.0000
  C   C1894     1.0  0.77310  0.15375  0.66986  1.0000
  H   H1870     1.0  0.80759  0.16722  0.64703  1.0000
  H   H1871     1.0  0.81147  0.13731  0.64319  1.0000
  H   H1872     1.0  0.76593  0.12862  0.67326  1.0000
  H   H1873     1.0  0.76276  0.15805  0.67757  1.0000
  C   C1895     1.0  0.70612  0.17444  0.64617  1.0000
  C   C1896     1.0  0.70001  0.16277  0.65727  1.0000
  C   C1897     1.0  0.69595  0.14710  0.65658  1.0000
  C   C1898     1.0  0.69813  0.14292  0.64484  1.0000
  C   C1899     1.0  0.70481  0.15430  0.63378  1.0000
  C   C1900     1.0  0.70873  0.17001  0.63446  1.0000
  H   H1874     1.0  0.69785  0.16610  0.66634  1.0000
  H   H1875     1.0  0.69078  0.13835  0.66519  1.0000
  H   H1876     1.0  0.70666  0.15119  0.62469  1.0000
  H   H1877     1.0  0.71354  0.17894  0.62583  1.0000
  H   H1878     1.0  0.77877  0.25794  0.63518  1.0000
  C   C1901     1.0  0.59748  0.04120  0.50049  1.0000
  C   C1902     1.0  0.60908  0.02694  0.50647  1.0000
  C   C1903     1.0  0.61691  0.02919  0.51550  1.0000
  C   C1904     1.0  0.61288  0.04562  0.51875  1.0000
  C   C1905     1.0  0.60228  0.06018  0.51216  1.0000
  C   C1906     1.0  0.59457  0.05798  0.50301  1.0000
  C   C1907     1.0  0.55785  0.03788  0.57094  1.0000
  H   H1879     1.0  0.62542  0.01803  0.52039  1.0000
  H   H1880     1.0  0.59974  0.07301  0.51433  1.0000
  H   H1881     1.0  0.58573  0.06906  0.49832  1.0000
  C   C1908     1.0  0.63266  0.10761  0.57206  1.0000
  C   C1909     1.0  0.62052  0.12180  0.57678  1.0000
  C   C1910     1.0  0.62558  0.13028  0.58434  1.0000
  C   C1911     1.0  0.64269  0.12451  0.58728  1.0000
  C   C1912     1.0  0.65482  0.11062  0.58228  1.0000
  C   C1913     1.0  0.64988  0.10234  0.57467  1.0000
  H   H1882     1.0  0.60721  0.12603  0.57481  1.0000
  H   H1883     1.0  0.61608  0.14107  0.58813  1.0000
  H   H1884     1.0  0.66804  0.10613  0.58431  1.0000
  H   H1885     1.0  0.65948  0.09165  0.57083  1.0000
  H   H1886     1.0  0.98410  0.23529  0.67774  1.0000
  H   H1887     1.0  0.88525  0.02662  0.62475  1.0000
  C   C1914     1.0  0.72964  0.24681  0.72832  1.0000
  C   C1915     1.0  0.89764  0.26809  0.64195  1.0000
  H   H1888     1.0  0.83380  0.31060  0.63848  1.0000
  C   C1916     1.0  0.72333  0.01787  0.58811  1.0000
  C   C1917     1.0  0.65764  0.16275  0.63910  1.0000
  H   H1889     1.0  0.72640  0.31680  0.67268  1.0000
  H   H1890     1.0  0.79325  0.26268  0.67490  1.0000
  H   H1891     1.0  0.75987  0.27108  0.64428  1.0000
  H   H1892     1.0  0.52605  0.02049  0.56655  1.0000
  C   C1918     1.0  0.54063  0.11710  0.49658  1.0000
  N   N155      1.0  0.62494  0.07027  0.60738  1.0000
  H   H1893     1.0  0.57844  0.09869  0.50827  1.0000
  C   C1919     1.0  0.79235  0.23596  0.67577  1.0000
  H   H1894     1.0  0.83612  0.28166  0.65393  1.0000
  C   C1920     1.0  0.98962  0.31709  0.62685  1.0000
  C   C1921     1.0  0.66634  0.19159  0.63230  1.0000
  C   C1922     1.0  0.58023  0.02694  0.53942  1.0000
  C   C1923     1.0  0.86103  0.18218  0.63974  1.0000
  N   N156      1.0  0.88010  0.27925  0.64023  1.0000
  H   H1895     1.0  0.55058  0.06619  0.54586  1.0000
  N   N157      1.0  0.78939  0.07049  0.59395  1.0000
  C   C1924     1.0  0.78560  0.05925  0.60541  1.0000
  C   C1925     1.0  0.77604  0.07970  0.58761  1.0000
  C   C1926     1.0  0.76799  0.05716  0.61088  1.0000
  C   C1927     1.0  0.75828  0.07803  0.59284  1.0000
  C   C1928     1.0  0.75427  0.06660  0.60452  1.0000
  C   C1929     1.0  0.80802  0.07198  0.58825  1.0000
  H   H1896     1.0  0.79620  0.05187  0.61041  1.0000
  H   H1897     1.0  0.77898  0.08875  0.57858  1.0000
  H   H1898     1.0  0.76501  0.04840  0.62003  1.0000
  H   H1899     1.0  0.74766  0.08585  0.58795  1.0000
  H   H1900     1.0  0.74053  0.06519  0.60867  1.0000
  H   H1901     1.0  0.81541  0.06046  0.58391  1.0000
  H   H1902     1.0  0.80883  0.08431  0.58084  1.0000
  H   H1903     1.0  0.81486  0.07262  0.59548  1.0000
  C   C1930     1.0  0.96026  0.23973  0.60066  1.0000
  C   C1931     1.0  0.96292  0.25593  0.60134  1.0000
  H   H1904     1.0  0.50635  0.99783  0.54504  1.0000
  H   H1905     1.0  0.54300  0.13129  0.53887  1.0000
  H   H1906     1.0  0.93869  0.22904  0.67935  1.0000
  H   H1907     1.0  0.95585  0.26830  0.59635  1.0000
  H   H1908     1.0  0.90240  0.09193  0.61280  1.0000
  S   S645      1.0  0.51163  0.00573  0.51251  1.0000
  N   N158      1.0  0.85017  0.17037  0.64273  1.0000
  C   C1932     1.0  0.84687  0.16453  0.63342  1.0000
  C   C1933     1.0  0.85488  0.17019  0.62074  1.0000
  C   C1934     1.0  0.86615  0.18207  0.61761  1.0000
  C   C1935     1.0  0.84167  0.16432  0.65599  1.0000
  H   H1909     1.0  0.83857  0.15489  0.63577  1.0000
  H   H1910     1.0  0.85289  0.16484  0.61347  1.0000
  H   H1911     1.0  0.82892  0.17384  0.65870  1.0000
  H   H1912     1.0  0.83865  0.15106  0.65761  1.0000
  H   H1913     1.0  0.85079  0.16296  0.66233  1.0000
  H   H1914     1.0  0.78419  0.99871  0.60479  1.0000
  H   H1915     1.0  0.53983  0.06585  0.50395  1.0000
  C   C1936     1.0  0.72866  0.24266  0.71730  1.0000
  C   C1937     1.0  0.87895  0.29492  0.63150  1.0000
  C   C1938     1.0  0.51788  0.04395  0.49330  1.0000
  H   H1916     1.0  0.96259  0.24652  0.67446  1.0000
  S   S646      1.0  0.80207  0.30436  0.72748  1.0000
  N   N159      1.0  0.89043  0.05225  0.62255  1.0000
  H   H1917     1.0  0.70613  0.29794  0.69967  1.0000
  C   C1939     1.0  0.89637  0.06661  0.61450  1.0000
  H   H1918     1.0  0.90885  0.27288  0.63465  1.0000
  H   H1919     1.0  0.73446  0.22942  0.71555  1.0000
  H   H1920     1.0  0.98898  0.17716  0.67534  1.0000
  H   H1921     1.0  0.95854  0.17558  0.67440  1.0000
  C   C1940     1.0  0.98084  0.22412  0.61387  1.0000
  H   H1922     1.0  0.53147  0.03488  0.58174  1.0000
  S   S647      1.0  0.52427  0.11126  0.49167  1.0000
  C   C1941     1.0  0.83634  0.00336  0.62498  1.0000
  Fe  Fe322     1.0  0.96036  0.31124  0.61023  1.0000
  C   C1942     1.0  0.51714  0.10470  0.52732  1.0000
  C   C1943     1.0  0.60756  0.11184  0.48807  1.0000
  C   C1944     1.0  0.51113  0.07064  0.50625  1.0000
  H   H1923     1.0  0.71785  0.29975  0.66083  1.0000
  C   C1945     1.0  0.54948  0.13857  0.50391  1.0000
  H   H1924     1.0  0.54592  0.04196  0.49227  1.0000
  H   H1925     1.0  0.97689  0.26853  0.60914  1.0000
  C   C1946     1.0  0.85702  0.30966  0.66449  1.0000
  C   C1947     1.0  0.52731  0.11202  0.53208  1.0000
  C   C1948     1.0  0.52592  0.06267  0.54360  1.0000
  H   H1926     1.0  0.67844  0.19457  0.62507  1.0000
  C   C1949     1.0  0.69573  0.21842  0.72841  1.0000
  C   C1950     1.0  0.74231  0.29398  0.68279  1.0000
  H   H1927     1.0  0.72737  0.02029  0.61018  1.0000
  Fe  Fe323     1.0  0.92880  0.31133  0.59974  1.0000
  C   C1951     1.0  0.73122  0.30258  0.67420  1.0000
  N   N160      1.0  0.51924  0.12211  0.54093  1.0000
  H   H1928     1.0  0.64873  0.16719  0.60621  1.0000
  H   H1929     1.0  0.89099  0.29907  0.62554  1.0000
  S   S648      1.0  0.79892  0.29563  0.67576  1.0000
  C   C1952     1.0  0.98048  0.20395  0.67829  1.0000
  Fe  Fe324     1.0  0.77608  0.30220  0.69173  1.0000
  C   C1953     1.0  0.52880  0.06203  0.50218  1.0000
  H   H1930     1.0  0.75887  0.24951  0.64375  1.0000
  C   C1954     1.0  0.55173  0.02217  0.55387  1.0000
  S   S649      1.0  0.92076  0.30000  0.58652  1.0000
  H   H1931     1.0  0.50307  0.08624  0.57152  1.0000
  S   S650      1.0  0.55472  0.01368  0.51909  1.0000
  C   C1955     1.0  0.63089  0.05518  0.61565  1.0000
  H   H1932     1.0  0.89426  0.09025  0.63592  1.0000
  H   H1933     1.0  0.56010  0.04464  0.57732  1.0000
  H   H1934     1.0  0.90046  0.03397  0.61035  1.0000
  N   N161      1.0  0.66032  0.17742  0.62980  1.0000
  N   N162      1.0  0.74958  0.13732  0.64630  1.0000
  C   C1956     1.0  0.76051  0.13283  0.63541  1.0000
  C   C1957     1.0  0.74723  0.15386  0.64841  1.0000
  C   C1958     1.0  0.76939  0.14508  0.62627  1.0000
  C   C1959     1.0  0.75581  0.16647  0.63946  1.0000
  C   C1960     1.0  0.76697  0.16201  0.62833  1.0000
  C   C1961     1.0  0.74072  0.12406  0.65576  1.0000
  H   H1935     1.0  0.76271  0.11957  0.63391  1.0000
  H   H1936     1.0  0.73876  0.15743  0.65709  1.0000
  H   H1937     1.0  0.77818  0.14137  0.61771  1.0000
  H   H1938     1.0  0.75377  0.17958  0.64121  1.0000
  H   H1939     1.0  0.77378  0.17163  0.62134  1.0000
  H   H1940     1.0  0.73178  0.12952  0.66392  1.0000
  H   H1941     1.0  0.73238  0.11924  0.65147  1.0000
  H   H1942     1.0  0.75099  0.11271  0.65941  1.0000
  Fe  Fe325     1.0  0.57496  0.01313  0.50083  1.0000
  H   H1943     1.0  0.57828  0.01748  0.53462  1.0000
  H   H1944     1.0  0.95116  0.23972  0.59501  1.0000
  C   C1962     1.0  0.76817  0.25752  0.64397  1.0000
  C   C1963     1.0  0.52814  0.07725  0.55921  1.0000
  C   C1964     1.0  0.86225  0.30628  0.63058  1.0000
  S   S651      1.0  0.93941  0.29513  0.61676  1.0000
  H   H1945     1.0  0.74964  0.30984  0.71735  1.0000
  H   H1946     1.0  0.59420  0.02245  0.54092  1.0000
  H   H1947     1.0  0.52297  0.14309  0.54747  1.0000
  S   S652      1.0  0.67777  0.00202  0.56877  1.0000
  C   C1965     1.0  0.65710  0.17915  0.61813  1.0000
  H   H1948     1.0  0.86146  0.31897  0.62396  1.0000
  C   C1966     1.0  0.72632  0.29291  0.66754  1.0000
  C   C1967     1.0  0.75569  0.00984  0.60886  1.0000
  C   C1968     1.0  0.78726  0.22494  0.67038  1.0000
  H   H1949     1.0  0.62877  0.04254  0.61534  1.0000
  C   C1969     1.0  0.61623  0.06944  0.59768  1.0000
  H   H1950     1.0  0.58289  0.04008  0.55777  1.0000
  N   N163      1.0  0.96662  0.21844  0.67906  1.0000
  H   H1951     1.0  0.66048  0.16114  0.64829  1.0000
  H   H1952     1.0  0.96462  0.23607  0.69062  1.0000
  C   C1970     1.0  0.97471  0.25606  0.60851  1.0000
  H   H1953     1.0  0.88078  0.04005  0.64174  1.0000
  H   H1954     1.0  0.97563  0.20292  0.59765  1.0000
  H   H1955     1.0  0.89944  0.06770  0.60436  1.0000
  S   S653      1.0  0.78685  0.32362  0.69451  1.0000
  H   H1956     1.0  0.70326  0.28095  0.69333  1.0000
  H   H1957     1.0  0.87657  0.04357  0.61255  1.0000
  H   H1958     1.0  0.54913  0.01622  0.54717  1.0000
  H   H1959     1.0  0.68697  0.28771  0.70674  1.0000
  H   H1960     1.0  0.52068  0.03345  0.48823  1.0000
  H   H1961     1.0  0.86393  0.18654  0.64714  1.0000
  H   H1962     1.0  0.67482  0.03607  0.52835  1.0000
  N   N164      1.0  0.56739  0.02772  0.55148  1.0000
  S   S654      1.0  0.74693  0.30641  0.69171  1.0000
  H   H1963     1.0  0.50827  0.08119  0.51125  1.0000
  C   C1971     1.0  0.84674  0.30155  0.63870  1.0000
  N   N165      1.0  0.77628  0.25011  0.65506  1.0000
  H   H1964     1.0  0.91407  0.24333  0.58253  1.0000
  C   C1972     1.0  0.53626  0.06874  0.54913  1.0000
  C   C1973     1.0  0.64462  0.07159  0.62399  1.0000
  C   C1974     1.0  0.86492  0.27428  0.64797  1.0000
  C   C1975     1.0  0.96962  0.23487  0.68060  1.0000
  C   C1976     1.0  0.63825  0.08695  0.61565  1.0000
  N   N166      1.0  0.64461  0.03606  0.55613  1.0000
  C   C1977     1.0  0.64674  0.05069  0.55905  1.0000
  C   C1978     1.0  0.65449  0.03086  0.54522  1.0000
  C   C1979     1.0  0.65929  0.06034  0.55109  1.0000
  C   C1980     1.0  0.66715  0.04021  0.53702  1.0000
  C   C1981     1.0  0.66955  0.05504  0.54000  1.0000
  C   C1982     1.0  0.63087  0.02655  0.56430  1.0000
  H   H1965     1.0  0.63869  0.05505  0.56757  1.0000
  H   H1966     1.0  0.65234  0.01962  0.54268  1.0000
  H   H1967     1.0  0.66081  0.07199  0.55346  1.0000
  H   H1968     1.0  0.67920  0.06252  0.53369  1.0000
  H   H1969     1.0  0.62868  0.02751  0.57430  1.0000
  H   H1970     1.0  0.61814  0.03212  0.56095  1.0000
  H   H1971     1.0  0.63501  0.01226  0.56406  1.0000
  C   C1983     1.0  0.91451  0.25096  0.58898  1.0000
  H   H1972     1.0  0.64396  0.14055  0.62296  1.0000
  H   H1973     1.0  0.87284  0.18621  0.60785  1.0000
  H   H1974     1.0  0.61195  0.01411  0.50422  1.0000
  H   H1975     1.0  0.62373  0.09791  0.60079  1.0000
  N   N167      1.0  0.71166  0.27208  0.71102  1.0000
  C   C1984     1.0  0.57061  0.03539  0.55986  1.0000
  H   H1976     1.0  0.67011  0.18785  0.64166  1.0000
  H   H1977     1.0  0.64132  0.09945  0.61530  1.0000
  Fe  Fe326     1.0  0.80025  0.30200  0.70842  1.0000
  Fe  Fe327     1.0  0.81149  0.27603  0.69101  1.0000
  C   C1985     1.0  0.78151  0.26100  0.66017  1.0000
  C   C1986     1.0  0.64834  0.15099  0.62494  1.0000
  C   C1987     1.0  0.73990  0.01488  0.60427  1.0000
  C   C1988     1.0  0.77930  0.23226  0.65991  1.0000
  H   H1978     1.0  0.71819  0.03244  0.58665  1.0000
  H   H1979     1.0  0.87830  0.19711  0.62481  1.0000
  C   C1989     1.0  0.96072  0.18748  0.67600  1.0000
  C   C1990     1.0  0.55555  0.10437  0.49989  1.0000
  N   N168      1.0  0.96894  0.22413  0.60707  1.0000
  H   H1980     1.0  0.89983  0.26824  0.65126  1.0000
  H   H1981     1.0  0.84973  0.30108  0.67197  1.0000
  C   C1991     1.0  0.56400  0.12570  0.50769  1.0000
  C   C1992     1.0  0.65101  0.16600  0.61553  1.0000
  H   H1982     1.0  0.65287  0.07198  0.63014  1.0000
  H   H1983     1.0  0.91709  0.27453  0.57448  1.0000
  C   C1993     1.0  0.84803  0.28538  0.64740  1.0000
  H   H1984     1.0  0.77541  0.22357  0.65576  1.0000
  H   H1985     1.0  0.65033  0.13738  0.64404  1.0000
  H   H1986     1.0  0.99390  0.20463  0.67845  1.0000
  H   H1987     1.0  0.95222  0.20858  0.60525  1.0000
  C   C1994     1.0  0.70150  0.28531  0.70224  1.0000
  S   S655      1.0  0.57807  0.13131  0.51499  1.0000
  C   C1995     1.0  0.71951  0.25551  0.70872  1.0000
  H   H1988     1.0  0.98810  0.21173  0.61864  1.0000
  C   C1996     1.0  0.96621  0.20729  0.60607  1.0000
  S   S656      1.0  0.82543  0.29463  0.69427  1.0000
  C   C1997     1.0  0.65175  0.14928  0.63678  1.0000
  H   H1989     1.0  0.79849  0.23048  0.68393  1.0000
  H   H1990     1.0  0.88250  0.29152  0.66524  1.0000
  C   C1998     1.0  0.91624  0.26859  0.58443  1.0000
  C   C1999     1.0  0.91723  0.27840  0.59264  1.0000
  H   H1991     1.0  0.65553  0.20376  0.63217  1.0000
  C   C2000     1.0  0.78950  0.25408  0.67064  1.0000
  H   H1992     1.0  0.78939  0.21083  0.67436  1.0000
  C   C2001     1.0  0.56706  0.10859  0.50562  1.0000
  H   H1993     1.0  0.62633  0.06885  0.58866  1.0000
  S   S657      1.0  0.54114  0.08425  0.56663  1.0000
  H   H1994     1.0  0.54171  0.10949  0.52870  1.0000
  H   H1995     1.0  0.93316  0.20163  0.67694  1.0000
  H   H1996     1.0  0.86585  0.26184  0.65483  1.0000
  C   C2002     1.0  0.88816  0.03840  0.61728  1.0000
  C   C2003     1.0  0.71253  0.27625  0.72180  1.0000
  H   H1997     1.0  0.55780  0.09109  0.49847  1.0000
  S   S658      1.0  0.98967  0.29935  0.60924  1.0000
  C   C2004     1.0  0.67922  0.24901  0.72584  1.0000
  S   S659      1.0  0.58540  0.03772  0.49082  1.0000
  H   H1998     1.0  0.97686  0.31365  0.63173  1.0000
  C   C2005     1.0  0.75598  0.00623  0.58500  1.0000
  S   S660      1.0  0.82589  0.00072  0.60416  1.0000
  C   C2006     1.0  0.53867  0.02444  0.56486  1.0000
  H   H1999     1.0  0.71833  0.25199  0.70038  1.0000
  H   H2000     1.0  0.70587  0.28923  0.72375  1.0000
  H   H2001     1.0  0.53328  0.12100  0.55475  1.0000
  S   S661      1.0  0.66892  0.26848  0.73161  1.0000
  C   C2007     1.0  0.72154  0.26371  0.73062  1.0000
  H   H2002     1.0  0.61155  0.11555  0.49532  1.0000
  C   C2008     1.0  0.54174  0.03246  0.57339  1.0000
  C   C2009     1.0  0.53223  0.04861  0.49565  1.0000
  C   C2010     1.0  0.53761  0.13418  0.49863  1.0000
  H   H2003     1.0  0.52362  0.09673  0.52030  1.0000
  H   H2004     1.0  0.87750  0.30602  0.69477  1.0000
  H   H2005     1.0  0.72498  0.01371  0.57913  1.0000
  C   C2011     1.0  0.77185  0.00293  0.60129  1.0000
  H   H2006     1.0  0.71305  0.01126  0.59518  1.0000
  C   C2012     1.0  0.87562  0.30420  0.66060  1.0000
  S   S662      1.0  0.55999  0.00044  0.49281  1.0000
  C   C2013     1.0  0.61419  0.09483  0.48568  1.0000
  C   C2014     1.0  0.86561  0.31654  0.69408  1.0000
  C   C2015     1.0  0.88530  0.31491  0.65060  1.0000
  Fe  Fe328     1.0  0.92243  0.31744  0.62598  1.0000
  S   S663      1.0  0.90851  0.30728  0.64592  1.0000
  H   H2007     1.0  0.99302  0.23999  0.62038  1.0000
  C   C2016     1.0  0.50947  0.07979  0.56365  1.0000
  H   H2008     1.0  0.75619  0.00435  0.57576  1.0000
  Fe  Fe329     1.0  0.54133  0.99837  0.51186  1.0000
  C   C2017     1.0  0.68780  0.23380  0.73327  1.0000
  H   H2009     1.0  0.85053  0.30625  0.71251  1.0000
  C   C2018     1.0  0.85055  0.31666  0.70401  1.0000
  H   H2010     1.0  0.76295  0.28696  0.73400  1.0000
  H   H2011     1.0  0.70224  0.20661  0.73420  1.0000
  Fe  Fe330     1.0  0.53624  0.10693  0.93541  1.0000
  S   S664      1.0  0.53348  0.10946  0.95532  1.0000
  S   S665      1.0  0.52352  0.12996  0.92172  1.0000
  Fe  Fe331     1.0  0.55500  0.06789  0.94054  1.0000
  S   S666      1.0  0.55434  0.06713  0.96068  1.0000
  C   C2019     1.0  0.55091  0.15264  0.93100  1.0000
  Fe  Fe332     1.0  0.52625  0.08290  0.96083  1.0000
  C   C2020     1.0  0.59603  0.30077  0.79419  1.0000
  Fe  Fe333     1.0  0.56177  0.09361  0.95341  1.0000
  S   S667      1.0  0.58476  0.10031  0.95792  1.0000
  S   S668      1.0  0.52628  0.08175  0.94120  1.0000
  S   S669      1.0  0.56518  0.09304  0.93299  1.0000
  Fe  Fe334     1.0  0.69487  0.27367  0.76619  1.0000
  S   S670      1.0  0.67930  0.29348  0.75272  1.0000
  S   S671      1.0  0.72358  0.27374  0.76488  1.0000
  Fe  Fe335     1.0  0.66412  0.25493  0.77928  1.0000
  S   S672      1.0  0.64613  0.27295  0.76655  1.0000
  S   S673      1.0  0.65642  0.23294  0.79565  1.0000
  Fe  Fe336     1.0  0.67064  0.27006  0.75094  1.0000
  Fe  Fe337     1.0  0.65644  0.29450  0.76963  1.0000
  C   C2021     1.0  0.51771  0.07187  0.91503  1.0000
  S   S674      1.0  0.68788  0.25002  0.76332  1.0000
  S   S675      1.0  0.67291  0.27664  0.78333  1.0000
  H   H2012     1.0  0.67271  0.20220  0.78120  1.0000
  H   H2013     1.0  0.50449  0.19281  0.88242  1.0000
  C   C2022     1.0  0.56026  0.01455  0.92835  1.0000
  C   C2023     1.0  0.52886  0.05660  0.91121  1.0000
  C   C2024     1.0  0.61113  0.26640  0.82364  1.0000
  N   N169      1.0  0.58233  0.13992  0.92505  1.0000
  C   C2025     1.0  0.52432  0.02166  0.94082  1.0000
  C   C2026     1.0  0.68472  0.31187  0.79653  1.0000
  H   H2014     1.0  0.54048  0.17580  0.91791  1.0000
  C   C2027     1.0  0.62591  0.23919  0.76120  1.0000
  H   H2015     1.0  0.55633  0.10883  0.98003  1.0000
  H   H2016     1.0  0.57921  0.27710  0.81846  1.0000
  H   H2017     1.0  0.79635  0.31475  0.75094  1.0000
  H   H2018     1.0  0.61743  0.24977  0.75576  1.0000
  H   H2019     1.0  0.58348  0.06833  0.98231  1.0000
  C   C2028     1.0  0.55347  0.02941  0.93383  1.0000
  N   N170      1.0  0.57026  0.99830  0.95834  1.0000
  H   H2020     1.0  0.76475  0.29558  0.76445  1.0000
  C   C2029     1.0  0.56619  0.13974  0.93342  1.0000
  H   H2021     1.0  0.53576  0.25432  0.82478  1.0000
  H   H2022     1.0  0.61066  0.23925  0.85773  1.0000
  Fe  Fe338     1.0  0.55678  0.23486  0.86667  1.0000
  S   S676      1.0  0.54305  0.24532  0.85045  1.0000
  S   S677      1.0  0.56244  0.25188  0.87734  1.0000
  Fe  Fe339     1.0  0.56208  0.19679  0.86508  1.0000
  S   S678      1.0  0.54942  0.20404  0.84822  1.0000
  S   S679      1.0  0.57361  0.16869  0.87423  1.0000
  Fe  Fe340     1.0  0.56478  0.22571  0.84099  1.0000
  S   S680      1.0  0.57397  0.23757  0.82035  1.0000
  Fe  Fe341     1.0  0.52868  0.22313  0.85885  1.0000
  C   C2030     1.0  0.56884  0.16610  0.91161  1.0000
  S   S681      1.0  0.57970  0.21668  0.85671  1.0000
  S   S682      1.0  0.54024  0.21443  0.87624  1.0000
  H   H2023     1.0  0.53017  0.04405  0.94465  1.0000
  C   C2031     1.0  0.64412  0.23403  0.75603  1.0000
  H   H2024     1.0  0.56506  0.12949  0.94198  1.0000
  H   H2025     1.0  0.53800  0.15209  0.93744  1.0000
  H   H2026     1.0  0.59534  0.00226  0.95916  1.0000
  C   C2032     1.0  0.54162  0.01163  0.96968  1.0000
  H   H2027     1.0  0.55438  0.99194  0.92475  1.0000
  H   H2028     1.0  0.51654  0.19877  0.84888  1.0000
  C   C2033     1.0  0.61872  0.23074  0.77339  1.0000
  H   H2029     1.0  0.59646  0.15286  0.90744  1.0000
  H   H2030     1.0  0.63966  0.23872  0.84184  1.0000
  H   H2031     1.0  0.61017  0.12728  0.92020  1.0000
  H   H2032     1.0  0.54073  0.31152  0.88578  1.0000
  S   S683      1.0  0.73810  0.32246  0.79503  1.0000
  C   C2034     1.0  0.52150  0.04221  0.91232  1.0000
  S   S684      1.0  0.56771  0.04348  0.93248  1.0000
  C   C2035     1.0  0.65961  0.19862  0.78258  1.0000
  H   H2033     1.0  0.59532  0.11281  0.92921  1.0000
  H   H2034     1.0  0.57414  0.01185  0.92339  1.0000
  H   H2035     1.0  0.50996  0.27425  0.83579  1.0000
  C   C2036     1.0  0.54326  0.30351  0.87890  1.0000
  C   C2037     1.0  0.55046  0.28526  0.88199  1.0000
  C   C2038     1.0  0.55337  0.27471  0.87327  1.0000
  C   C2039     1.0  0.54946  0.28256  0.86133  1.0000
  C   C2040     1.0  0.54274  0.30087  0.85811  1.0000
  C   C2041     1.0  0.60194  0.11271  0.98429  1.0000
  H   H2036     1.0  0.55351  0.27927  0.89122  1.0000
  H   H2037     1.0  0.55176  0.27461  0.85453  1.0000
  H   H2038     1.0  0.52353  0.08303  0.91408  1.0000
  H   H2039     1.0  0.58255  0.25677  0.85141  1.0000
  H   H2040     1.0  0.63983  0.25638  0.81988  1.0000
  C   C2042     1.0  0.53591  0.29253  0.80249  1.0000
  C   C2043     1.0  0.72597  0.28735  0.77388  1.0000
  C   C2044     1.0  0.73601  0.27999  0.78324  1.0000
  C   C2045     1.0  0.73944  0.29088  0.78976  1.0000
  H   H2041     1.0  0.65372  0.19682  0.79290  1.0000
  C   C2046     1.0  0.65500  0.22063  0.76322  1.0000
  H   H2042     1.0  0.73642  0.23687  0.73517  1.0000
  H   H2043     1.0  0.74128  0.26585  0.78541  1.0000
  H   H2044     1.0  0.74720  0.28506  0.79701  1.0000
  H   H2045     1.0  0.54363  0.29773  0.79331  1.0000
  H   H2046     1.0  0.50475  0.17513  0.84590  1.0000
  N   N171      1.0  0.75823  0.30469  0.74616  1.0000
  C   C2047     1.0  0.71937  0.30567  0.77103  1.0000
  H   H2047     1.0  0.56722  0.26923  0.83380  1.0000
  H   H2048     1.0  0.66916  0.21670  0.75915  1.0000
  H   H2049     1.0  0.62432  0.21101  0.78985  1.0000
  C   C2048     1.0  0.59804  0.12613  0.92787  1.0000
  H   H2050     1.0  0.68572  0.29773  0.79813  1.0000
  H   H2051     1.0  0.62232  0.29084  0.78397  1.0000
  C   C2049     1.0  0.53551  0.03283  0.94020  1.0000
  C   C2050     1.0  0.58462  0.10641  0.97188  1.0000
  C   C2051     1.0  0.63353  0.23483  0.80286  1.0000
  C   C2052     1.0  0.62043  0.24752  0.79721  1.0000
  C   C2053     1.0  0.60220  0.24803  0.80262  1.0000
  C   C2054     1.0  0.59695  0.23633  0.81397  1.0000
  C   C2055     1.0  0.61001  0.22391  0.81985  1.0000
  C   C2056     1.0  0.62829  0.22298  0.81417  1.0000
  H   H2052     1.0  0.62429  0.25667  0.78851  1.0000
  H   H2053     1.0  0.59213  0.25758  0.79802  1.0000
  H   H2054     1.0  0.60602  0.21477  0.82859  1.0000
  H   H2055     1.0  0.63837  0.21310  0.81858  1.0000
  C   C2057     1.0  0.59507  0.25673  0.84446  1.0000
  C   C2058     1.0  0.53172  0.26810  0.82024  1.0000
  C   C2059     1.0  0.55230  0.16593  0.92005  1.0000
  C   C2060     1.0  0.61101  0.24682  0.84809  1.0000
  H   H2056     1.0  0.51037  0.02449  0.94558  1.0000
  H   H2057     1.0  0.61129  0.27399  0.81405  1.0000
  C   C2061     1.0  0.60097  0.10793  0.97347  1.0000
  H   H2058     1.0  0.61304  0.10535  0.96630  1.0000
  H   H2059     1.0  0.53003  0.03014  0.90965  1.0000
  H   H2060     1.0  0.64978  0.24048  0.74652  1.0000
  S   S685      1.0  0.51644  0.99370  0.93569  1.0000
  C   C2062     1.0  0.61329  0.30216  0.78719  1.0000
  C   C2063     1.0  0.62734  0.25658  0.82693  1.0000
  N   N172      1.0  0.59524  0.26599  0.83229  1.0000
  H   H2061     1.0  0.51711  0.16447  0.87513  1.0000
  H   H2062     1.0  0.66188  0.18594  0.77963  1.0000
  H   H2063     1.0  0.72196  0.26699  0.73927  1.0000
  C   C2064     1.0  0.76710  0.29113  0.75550  1.0000
  H   H2064     1.0  0.68840  0.23389  0.74271  1.0000
  C   C2065     1.0  0.57836  0.27603  0.82864  1.0000
  C   C2066     1.0  0.53744  0.14003  0.90815  1.0000
  C   C2067     1.0  0.53039  0.15673  0.90134  1.0000
  C   C2068     1.0  0.54133  0.16550  0.89081  1.0000
  C   C2069     1.0  0.55933  0.15752  0.88692  1.0000
  C   C2070     1.0  0.56629  0.14062  0.89355  1.0000
  C   C2071     1.0  0.55541  0.13194  0.90420  1.0000
  H   H2065     1.0  0.51651  0.16306  0.90439  1.0000
  H   H2066     1.0  0.53588  0.17847  0.88575  1.0000
  H   H2067     1.0  0.58019  0.13433  0.89054  1.0000
  H   H2068     1.0  0.56093  0.11899  0.90928  1.0000
  C   C2072     1.0  0.54911  0.00321  0.92916  1.0000
  C   C2073     1.0  0.58379  0.15284  0.91423  1.0000
  H   H2069     1.0  0.60103  0.12692  0.93678  1.0000
  C   C2074     1.0  0.55984  0.01130  0.96454  1.0000
  C   C2075     1.0  0.62722  0.24661  0.83921  1.0000
  H   H2070     1.0  0.54317  0.05579  0.90767  1.0000
  N   N173      1.0  0.52167  0.30344  0.80855  1.0000
  H   H2071     1.0  0.55283  0.26624  0.80361  1.0000
  H   H2072     1.0  0.60459  0.23470  0.77758  1.0000
  N   N174      1.0  0.64793  0.21267  0.77526  1.0000
  H   H2073     1.0  0.53335  0.02186  0.97464  1.0000
  C   C2076     1.0  0.53106  0.00685  0.93530  1.0000
  H   H2074     1.0  0.57502  0.28953  0.83056  1.0000
  C   C2077     1.0  0.53939  0.31135  0.86695  1.0000
  C   C2078     1.0  0.62997  0.21732  0.78030  1.0000
  H   H2075     1.0  0.56994  0.17608  0.90286  1.0000
  C   C2079     1.0  0.61865  0.31824  0.78421  1.0000
  C   C2080     1.0  0.51718  0.27927  0.82635  1.0000
  C   C2081     1.0  0.51222  0.29700  0.82029  1.0000
  C   C2082     1.0  0.75171  0.32170  0.74784  1.0000
  C   C2083     1.0  0.73332  0.30925  0.78671  1.0000
  H   H2076     1.0  0.78179  0.28799  0.75165  1.0000
  H   H2077     1.0  0.59182  0.28845  0.79607  1.0000
  C   C2084     1.0  0.56907  0.10979  0.98124  1.0000
  S   S686      1.0  0.56277  0.31287  0.80741  1.0000
  C   C2085     1.0  0.72317  0.31662  0.77736  1.0000
  H   H2078     1.0  0.54002  0.30680  0.84884  1.0000
  H   H2079     1.0  0.67244  0.31811  0.78064  1.0000
  H   H2080     1.0  0.56555  0.02161  0.96539  1.0000
  C   C2086     1.0  0.69178  0.31851  0.80390  1.0000
  C   C2087     1.0  0.58423  0.31525  0.79867  1.0000
  H   H2081     1.0  0.71172  0.31143  0.76372  1.0000
  H   H2082     1.0  0.69844  0.30958  0.81121  1.0000
  C   C2088     1.0  0.54122  0.27476  0.80827  1.0000
  H   H2083     1.0  0.76188  0.27887  0.75785  1.0000
  C   C2089     1.0  0.58922  0.99848  0.95277  1.0000
  S   S687      1.0  0.63992  0.32026  0.77472  1.0000
  H   H2084     1.0  0.59040  0.00817  0.94356  1.0000
  C   C2090     1.0  0.53404  0.99877  0.96823  1.0000
  H   H2085     1.0  0.51987  0.99905  0.97198  1.0000
  C   C2091     1.0  0.50323  0.04311  0.91739  1.0000
  S   S688      1.0  0.50452  0.07410  0.97677  1.0000
  C   C2092     1.0  0.51631  0.32196  0.80215  1.0000
  C   C2093     1.0  0.50236  0.19928  0.85167  1.0000
  C   C2094     1.0  0.50290  0.16806  0.87925  1.0000
  C   C2095     1.0  0.67725  0.32348  0.78662  1.0000
  H   H2086     1.0  0.50927  0.32280  0.79466  1.0000
  C   C2096     1.0  0.75743  0.30037  0.73541  1.0000
  H   H2087     1.0  0.77386  0.51013  0.13910  1.0000
  C   C2097     1.0  0.98787  0.45822  0.99790  1.0000
  Fe  Fe342     1.0  0.89239  0.46165  0.02389  1.0000
  S   S689      1.0  0.89638  0.47242  0.00287  1.0000
  S   S690      1.0  0.86431  0.46861  0.03517  1.0000
  Fe  Fe343     1.0  0.93233  0.44829  0.02288  1.0000
  S   S691      1.0  0.93949  0.45805  0.00196  1.0000
  Fe  Fe344     1.0  0.91862  0.48235  0.00543  1.0000
  C   C2098     1.0  0.72089  0.65565  0.18103  1.0000
  C   C2099     1.0  0.98100  0.44551  0.03958  1.0000
  C   C2100     1.0  0.74551  0.61181  0.19247  1.0000
  S   S692      1.0  0.91322  0.47345  0.02650  1.0000
  S   S693      1.0  0.91089  0.43525  0.02238  1.0000
  Fe  Fe345     1.0  0.94229  0.61048  0.00508  1.0000
  S   S694      1.0  0.95846  0.58269  0.00684  1.0000
  H   H2088     1.0  0.63545  0.35211  0.19240  1.0000
  Fe  Fe346     1.0  0.93810  0.61040  0.03277  1.0000
  S   S695      1.0  0.95428  0.58268  0.03693  1.0000
  S   S696      1.0  0.92718  0.62856  0.04638  1.0000
  Fe  Fe347     1.0  0.97271  0.59070  0.01838  1.0000
  S   S697      1.0  0.74068  0.34204  0.17747  1.0000
  Fe  Fe348     1.0  0.93843  0.57739  0.02510  1.0000
  S   S698      1.0  0.92550  0.55400  0.03281  1.0000
  S   S699      1.0  0.95808  0.61894  0.01522  1.0000
  S   S700      1.0  0.92082  0.60462  0.02231  1.0000
  Fe  Fe349     1.0  0.85554  0.59538  0.10453  1.0000
  S   S701      1.0  0.85496  0.57123  0.12019  1.0000
  S   S702      1.0  0.87737  0.61018  0.10042  1.0000
  Fe  Fe350     1.0  0.81743  0.59837  0.10232  1.0000
  S   S703      1.0  0.81369  0.57475  0.11801  1.0000
  S   S704      1.0  0.79644  0.61548  0.09167  1.0000
  Fe  Fe351     1.0  0.82752  0.58578  0.12796  1.0000
  S   S705      1.0  0.81790  0.58459  0.14882  1.0000
  Fe  Fe352     1.0  0.84132  0.56256  0.10858  1.0000
  S   S706      1.0  0.84804  0.53442  0.10634  1.0000
  S   S707      1.0  0.82881  0.61058  0.11308  1.0000
  S   S708      1.0  0.84437  0.58556  0.09210  1.0000
  Fe  Fe353     1.0  0.77267  0.45503  0.09879  1.0000
  S   S709      1.0  0.76074  0.46527  0.11649  1.0000
  S   S710      1.0  0.75860  0.45353  0.08448  1.0000
  Fe  Fe354     1.0  0.81063  0.44698  0.10265  1.0000
  S   S711      1.0  0.80183  0.45581  0.12127  1.0000
  S   S712      1.0  0.83940  0.43611  0.09336  1.0000
  Fe  Fe355     1.0  0.77939  0.44157  0.12533  1.0000
  S   S713      1.0  0.76371  0.42862  0.14386  1.0000
  Fe  Fe356     1.0  0.78382  0.47860  0.11103  1.0000
  S   S714      1.0  0.77846  0.50720  0.11192  1.0000
  S   S715      1.0  0.78989  0.43040  0.10784  1.0000
  S   S716      1.0  0.79387  0.47081  0.09235  1.0000
  Fe  Fe357     1.0  0.66514  0.45451  0.12202  1.0000
  S   S717      1.0  0.68115  0.44616  0.13715  1.0000
  S   S718      1.0  0.67435  0.46362  0.10114  1.0000
  Fe  Fe358     1.0  0.63130  0.44459  0.13996  1.0000
  S   S719      1.0  0.64393  0.43628  0.15683  1.0000
  S   S720      1.0  0.60310  0.44241  0.14095  1.0000
  Fe  Fe359     1.0  0.65606  0.46041  0.14848  1.0000
  S   S721      1.0  0.65569  0.47918  0.16041  1.0000
  Fe  Fe360     1.0  0.66767  0.42309  0.14401  1.0000
  S   S722      1.0  0.68059  0.39437  0.14868  1.0000
  S   S723      1.0  0.64085  0.47014  0.13288  1.0000
  S   S724      1.0  0.65436  0.43000  0.12771  1.0000
  H   H2089     1.0  0.68711  0.33602  0.21323  1.0000
  S   S725      1.0  0.53022  0.34638  0.15582  1.0000
  C   C2101     1.0  0.97192  0.53349  0.02602  1.0000
  Fe  Fe361     1.0  0.56572  0.37006  0.13167  1.0000
  S   S726      1.0  0.54588  0.38253  0.14689  1.0000
  S   S727      1.0  0.58939  0.38219  0.12051  1.0000
  Fe  Fe362     1.0  0.55229  0.35562  0.15914  1.0000
  Fe  Fe363     1.0  0.52586  0.37201  0.14178  1.0000
  H   H2090     1.0  0.60050  0.64388  0.15654  1.0000
  S   S728      1.0  0.57306  0.34348  0.14426  1.0000
  S   S729      1.0  0.54506  0.36195  0.12524  1.0000
  C   C2102     1.0  0.78031  0.54351  0.14851  1.0000
  H   H2091     1.0  0.76648  0.54941  0.15217  1.0000
  S   S730      1.0  0.70407  0.36755  0.20082  1.0000
  Fe  Fe364     1.0  0.68840  0.58581  0.16194  1.0000
  S   S731      1.0  0.70742  0.56119  0.16977  1.0000
  S   S732      1.0  0.66472  0.59934  0.17493  1.0000
  Fe  Fe365     1.0  0.71190  0.58961  0.13557  1.0000
  S   S733      1.0  0.73233  0.56557  0.14130  1.0000
  S   S734      1.0  0.71672  0.60586  0.11575  1.0000
  Fe  Fe366     1.0  0.70905  0.55284  0.15178  1.0000
  S   S735      1.0  0.71423  0.52530  0.14788  1.0000
  Fe  Fe367     1.0  0.72867  0.57627  0.15844  1.0000
  S   S736      1.0  0.75345  0.57964  0.16274  1.0000
  S   S737      1.0  0.68851  0.57647  0.14475  1.0000
  S   S738      1.0  0.70969  0.60121  0.15198  1.0000
  H   H2092     1.0  0.89253  0.55859  0.00716  1.0000
  Fe  Fe368     1.0  0.75957  0.64434  0.19884  1.0000
  N   N175      1.0  0.78429  0.53009  0.14223  1.0000
  C   C2103     1.0  0.85685  0.61059  0.05191  1.0000
  C   C2104     1.0  0.73006  0.39527  0.14046  1.0000
  C   C2105     1.0  0.73424  0.59369  0.18349  1.0000
  N   N176      1.0  0.98926  0.53240  0.01703  1.0000
  H   H2093     1.0  0.72389  0.58706  0.18381  1.0000
  C   C2106     1.0  0.65329  0.62008  0.16768  1.0000
  H   H2094     1.0  0.65390  0.34720  0.15088  1.0000
  H   H2095     1.0  0.66592  0.61678  0.14870  1.0000
  S   S739      1.0  0.99638  0.49139  0.03476  1.0000
  H   H2096     1.0  0.91564  0.64462  0.06741  1.0000
  C   C2107     1.0  0.63173  0.64801  0.16944  1.0000
  H   H2097     1.0  0.72041  0.60349  0.20039  1.0000
  C   C2108     1.0  0.70252  0.64104  0.17469  1.0000
  N   N177      1.0  0.76647  0.62471  0.13214  1.0000
  C   C2109     1.0  0.81358  0.44988  0.04839  1.0000
  H   H2098     1.0  0.73391  0.64814  0.17645  1.0000
  H   H2099     1.0  0.50756  0.37151  0.11853  1.0000
  Fe  Fe369     1.0  0.76653  0.33763  0.18345  1.0000
  H   H2100     1.0  0.80816  0.37242  0.15023  1.0000
  H   H2101     1.0  0.99168  0.63516  0.99957  1.0000
  C   C2110     1.0  0.76345  0.60054  0.17396  1.0000
  C   C2111     1.0  0.87751  0.62943  0.04836  1.0000
  C   C2112     1.0  0.80604  0.43782  0.07078  1.0000
  H   H2102     1.0  0.94129  0.53808  0.99134  1.0000
  H   H2103     1.0  0.83923  0.42846  0.03053  1.0000
  C   C2113     1.0  0.67112  0.49322  0.15565  1.0000
  C   C2114     1.0  0.68729  0.48955  0.14696  1.0000
  C   C2115     1.0  0.70021  0.49973  0.14449  1.0000
  C   C2116     1.0  0.69693  0.51395  0.15042  1.0000
  C   C2117     1.0  0.68052  0.51800  0.15878  1.0000
  C   C2118     1.0  0.66777  0.50752  0.16151  1.0000
  H   H2104     1.0  0.69012  0.47846  0.14251  1.0000
  H   H2105     1.0  0.71300  0.49625  0.13822  1.0000
  H   H2106     1.0  0.67785  0.52886  0.16346  1.0000
  H   H2107     1.0  0.65529  0.51042  0.16826  1.0000
  C   C2119     1.0  0.69581  0.37516  0.18696  1.0000
  C   C2120     1.0  0.68835  0.39312  0.18298  1.0000
  C   C2121     1.0  0.68318  0.39919  0.17129  1.0000
  C   C2122     1.0  0.68531  0.38719  0.16374  1.0000
  C   C2123     1.0  0.69200  0.36917  0.16801  1.0000
  C   C2124     1.0  0.69726  0.36319  0.17959  1.0000
  H   H2108     1.0  0.68710  0.40237  0.18874  1.0000
  H   H2109     1.0  0.67787  0.41312  0.16801  1.0000
  H   H2110     1.0  0.69358  0.35989  0.16219  1.0000
  H   H2111     1.0  0.70249  0.34925  0.18284  1.0000
  C   C2125     1.0  0.59959  0.42485  0.13597  1.0000
  C   C2126     1.0  0.61390  0.41199  0.13132  1.0000
  C   C2127     1.0  0.61066  0.39867  0.12686  1.0000
  C   C2128     1.0  0.59308  0.39803  0.12712  1.0000
  C   C2129     1.0  0.57875  0.41068  0.13198  1.0000
  C   C2130     1.0  0.58201  0.42406  0.13635  1.0000
  H   H2112     1.0  0.62747  0.41229  0.13105  1.0000
  H   H2113     1.0  0.62181  0.38894  0.12310  1.0000
  H   H2114     1.0  0.56516  0.41055  0.13199  1.0000
  H   H2115     1.0  0.57085  0.43397  0.13991  1.0000
  H   H2116     1.0  0.55768  0.63745  0.16834  1.0000
  H   H2117     1.0  0.66922  0.47481  0.18409  1.0000
  C   C2131     1.0  0.81936  0.32708  0.22477  1.0000
  C   C2132     1.0  0.77169  0.40674  0.15143  1.0000
  C   C2133     1.0  0.78906  0.39734  0.14728  1.0000
  H   H2118     1.0  0.66917  0.45377  0.18190  1.0000
  C   C2134     1.0  0.98815  0.44072  0.00439  1.0000
  C   C2135     1.0  0.76566  0.38083  0.16776  1.0000
  C   C2136     1.0  0.76008  0.39848  0.16172  1.0000
  H   H2119     1.0  0.79811  0.40367  0.13938  1.0000
  H   H2120     1.0  0.75654  0.37457  0.17564  1.0000
  H   H2121     1.0  0.74664  0.40567  0.16498  1.0000
  C   C2137     1.0  0.73514  0.45696  0.08919  1.0000
  C   C2138     1.0  0.72631  0.45928  0.10140  1.0000
  C   C2139     1.0  0.70760  0.46149  0.10509  1.0000
  C   C2140     1.0  0.69768  0.46148  0.09656  1.0000
  C   C2141     1.0  0.70646  0.45955  0.08426  1.0000
  C   C2142     1.0  0.72518  0.45717  0.08061  1.0000
  H   H2122     1.0  0.73382  0.45928  0.10803  1.0000
  H   H2123     1.0  0.70084  0.46356  0.11445  1.0000
  H   H2124     1.0  0.69883  0.45964  0.07760  1.0000
  H   H2125     1.0  0.73194  0.45546  0.07114  1.0000
  C   C2143     1.0  0.81668  0.60380  0.15390  1.0000
  C   C2144     1.0  0.81038  0.60422  0.16672  1.0000
  C   C2145     1.0  0.80982  0.61923  0.17102  1.0000
  C   C2146     1.0  0.81585  0.63374  0.16252  1.0000
  C   C2147     1.0  0.82190  0.63345  0.14967  1.0000
  C   C2148     1.0  0.82237  0.61848  0.14538  1.0000
  H   H2126     1.0  0.80594  0.59291  0.17339  1.0000
  H   H2127     1.0  0.80510  0.61940  0.18097  1.0000
  H   H2128     1.0  0.78864  0.45933  0.06086  1.0000
  H   H2129     1.0  0.82758  0.61823  0.13555  1.0000
  C   C2149     1.0  0.77468  0.61148  0.09820  1.0000
  C   C2150     1.0  0.77040  0.60125  0.11040  1.0000
  C   C2151     1.0  0.75271  0.59924  0.11579  1.0000
  C   C2152     1.0  0.73919  0.60737  0.10898  1.0000
  C   C2153     1.0  0.74348  0.61744  0.09673  1.0000
  C   C2154     1.0  0.76115  0.61956  0.09138  1.0000
  H   H2130     1.0  0.78050  0.59548  0.11593  1.0000
  H   H2131     1.0  0.74951  0.59191  0.12536  1.0000
  N   N178      1.0  0.88183  0.54103  0.98678  1.0000
  C   C2155     1.0  0.64097  0.63142  0.17514  1.0000
  C   C2156     1.0  0.82923  0.52714  0.10604  1.0000
  C   C2157     1.0  0.83028  0.50903  0.10754  1.0000
  C   C2158     1.0  0.81486  0.50287  0.10867  1.0000
  C   C2159     1.0  0.79831  0.51481  0.10850  1.0000
  C   C2160     1.0  0.79740  0.53296  0.10649  1.0000
  C   C2161     1.0  0.81289  0.53912  0.10507  1.0000
  H   H2132     1.0  0.84294  0.49971  0.10817  1.0000
  H   H2133     1.0  0.81571  0.48885  0.11011  1.0000
  H   H2134     1.0  0.78470  0.54228  0.10612  1.0000
  H   H2135     1.0  0.81213  0.55314  0.10325  1.0000
  C   C2162     1.0  0.91401  0.62197  0.06144  1.0000
  C   C2163     1.0  0.91001  0.63297  0.06998  1.0000
  C   C2164     1.0  0.89890  0.62897  0.08189  1.0000
  C   C2165     1.0  0.89125  0.61418  0.08529  1.0000
  C   C2166     1.0  0.89500  0.60312  0.07674  1.0000
  C   C2167     1.0  0.90666  0.60687  0.06484  1.0000
  H   H2136     1.0  0.79684  0.43786  0.07987  1.0000
  C   C2168     1.0  0.97136  0.48098  0.02765  1.0000
  H   H2137     1.0  0.88924  0.59155  0.07938  1.0000
  H   H2138     1.0  0.90972  0.59831  0.05825  1.0000
  C   C2169     1.0  0.92477  0.52174  0.00549  1.0000
  C   C2170     1.0  0.93414  0.53544  0.00109  1.0000
  C   C2171     1.0  0.93430  0.54569  0.00935  1.0000
  C   C2172     1.0  0.92510  0.54220  0.02197  1.0000
  C   C2173     1.0  0.91541  0.52883  0.02622  1.0000
  C   C2174     1.0  0.91515  0.51872  0.01799  1.0000
  H   H2139     1.0  0.70355  0.64193  0.20416  1.0000
  H   H2140     1.0  0.94160  0.55617  0.00595  1.0000
  H   H2141     1.0  0.90789  0.52645  0.03587  1.0000
  H   H2142     1.0  0.90690  0.50907  0.02122  1.0000
  C   C2175     1.0  0.85881  0.45990  0.05148  1.0000
  C   C2176     1.0  0.84298  0.46839  0.05851  1.0000
  C   C2177     1.0  0.83752  0.46160  0.07143  1.0000
  C   C2178     1.0  0.84746  0.44594  0.07744  1.0000
  C   C2179     1.0  0.86364  0.43761  0.07047  1.0000
  C   C2180     1.0  0.86938  0.44463  0.05748  1.0000
  H   H2143     1.0  0.83487  0.48033  0.05395  1.0000
  H   H2144     1.0  0.82560  0.46859  0.07669  1.0000
  H   H2145     1.0  0.87150  0.42551  0.07505  1.0000
  H   H2146     1.0  0.88164  0.43798  0.05208  1.0000
  S   S740      1.0  0.78980  0.34905  0.17090  1.0000
  C   C2181     1.0  0.84201  0.43774  0.03511  1.0000
  C   C2182     1.0  0.99329  0.52304  0.00774  1.0000
  S   S741      1.0  0.56164  0.35107  0.17702  1.0000
  H   H2147     1.0  0.62794  0.33339  0.15477  1.0000
  C   C2183     1.0  0.88811  0.57255  0.98860  1.0000
  S   S742      1.0  0.81698  0.65176  0.16798  1.0000
  C   C2184     1.0  0.76105  0.61066  0.18292  1.0000
  C   C2185     1.0  0.58867  0.64785  0.16399  1.0000
  H   H2148     1.0  0.62218  0.65666  0.17523  1.0000
  Fe  Fe370     1.0  0.91666  0.44701  0.00148  1.0000
  N   N179      1.0  0.70717  0.64516  0.18422  1.0000
  C   C2186     1.0  0.79473  0.37969  0.15344  1.0000
  H   H2149     1.0  0.80022  0.36646  0.20803  1.0000
  H   H2150     1.0  0.80997  0.45937  0.04009  1.0000
  H   H2151     1.0  0.95119  0.47303  0.02230  1.0000
  S   S743      1.0  0.74231  0.62420  0.20395  1.0000
  H   H2152     1.0  0.72183  0.63207  0.13388  1.0000
  H   H2153     1.0  0.65515  0.35708  0.18056  1.0000
  H   H2154     1.0  0.79080  0.56055  0.15527  1.0000
  C   C2187     1.0  0.80177  0.52285  0.13744  1.0000
  S   S744      1.0  0.95442  0.43573  0.03355  1.0000
  C   C2188     1.0  0.64695  0.64179  0.14885  1.0000
  C   C2189     1.0  0.99068  0.45772  0.03966  1.0000
  H   H2155     1.0  0.78017  0.37252  0.13321  1.0000
  C   C2190     1.0  0.96668  0.45099  0.03337  1.0000
  C   C2191     1.0  0.81580  0.52902  0.13889  1.0000
  C   C2192     1.0  0.81185  0.54254  0.14543  1.0000
  H   H2156     1.0  0.82962  0.52357  0.13473  1.0000
  H   H2157     1.0  0.82256  0.54758  0.14656  1.0000
  C   C2193     1.0  0.78298  0.37137  0.16362  1.0000
  N   N180      1.0  0.82978  0.43809  0.04748  1.0000
  C   C2194     1.0  0.75408  0.37009  0.14481  1.0000
  C   C2195     1.0  0.74888  0.62385  0.13711  1.0000
  C   C2196     1.0  0.86156  0.58104  0.15278  1.0000
  H   H2158     1.0  0.84209  0.64970  0.07679  1.0000
  C   C2197     1.0  0.75961  0.39554  0.12827  1.0000
  H   H2159     1.0  0.87336  0.51653  0.99479  1.0000
  H   H2160     1.0  0.84062  0.45115  0.02881  1.0000
  N   N181      1.0  0.65999  0.33438  0.19522  1.0000
  H   H2161     1.0  0.76252  0.65252  0.10397  1.0000
  C   C2198     1.0  0.73600  0.37843  0.14754  1.0000
  C   C2199     1.0  0.88900  0.55791  0.99867  1.0000
  H   H2162     1.0  0.87984  0.61179  0.03636  1.0000
  H   H2163     1.0  0.87014  0.64750  0.13528  1.0000
  H   H2164     1.0  0.58634  0.39909  0.16007  1.0000
  H   H2165     1.0  0.76430  0.62757  0.08197  1.0000
  H   H2166     1.0  0.77983  0.62150  0.14684  1.0000
  C   C2200     1.0  0.65645  0.62542  0.15452  1.0000
  H   H2167     1.0  0.74509  0.61544  0.14631  1.0000
  H   H2168     1.0  0.97857  0.43380  0.00371  1.0000
  C   C2201     1.0  0.68180  0.62459  0.18997  1.0000
  H   H2169     1.0  0.87341  0.59646  0.12876  1.0000
  H   H2170     1.0  0.85871  0.63662  0.15825  1.0000
  C   C2202     1.0  0.86020  0.61028  0.15617  1.0000
  H   H2171     1.0  0.72117  0.42373  0.12338  1.0000
  H   H2172     1.0  0.85625  0.43361  0.03605  1.0000
  C   C2203     1.0  0.63457  0.65312  0.15626  1.0000
  H   H2173     1.0  0.85045  0.62803  0.08570  1.0000
  C   C2204     1.0  0.80148  0.44995  0.06006  1.0000
  C   C2205     1.0  0.88572  0.54219  0.99760  1.0000
  C   C2206     1.0  0.78005  0.61458  0.13948  1.0000
  S   S745      1.0  0.93758  0.62888  0.98681  1.0000
  C   C2207     1.0  0.67999  0.33033  0.20890  1.0000
  C   C2208     1.0  0.64031  0.35491  0.15312  1.0000
  C   C2209     1.0  0.86247  0.62773  0.15175  1.0000
  H   H2174     1.0  0.96733  0.49474  0.02321  1.0000
  C   C2210     1.0  0.69943  0.63918  0.19657  1.0000
  C   C2211     1.0  0.84724  0.61704  0.06275  1.0000
  C   C2212     1.0  0.76598  0.37867  0.13512  1.0000
  C   C2213     1.0  0.63732  0.37255  0.15392  1.0000
  N   N182      1.0  0.74180  0.40350  0.13085  1.0000
  C   C2214     1.0  0.73551  0.42138  0.12378  1.0000
  C   C2215     1.0  0.96208  0.46870  0.02722  1.0000
  C   C2216     1.0  0.80510  0.35228  0.21085  1.0000
  N   N183      1.0  0.72466  0.52968  0.11371  1.0000
  C   C2217     1.0  0.70641  0.53424  0.11765  1.0000
  C   C2218     1.0  0.73481  0.54216  0.11053  1.0000
  C   C2219     1.0  0.69783  0.55178  0.11821  1.0000
  C   C2220     1.0  0.72664  0.55987  0.11089  1.0000
  C   C2221     1.0  0.70802  0.56467  0.11469  1.0000
  C   C2222     1.0  0.73357  0.51119  0.11343  1.0000
  H   H2175     1.0  0.69840  0.52428  0.12057  1.0000
  H   H2176     1.0  0.74932  0.53843  0.10770  1.0000
  H   H2177     1.0  0.68340  0.55531  0.12152  1.0000
  H   H2178     1.0  0.73465  0.56982  0.10835  1.0000
  H   H2179     1.0  0.70149  0.57833  0.11504  1.0000
  H   H2180     1.0  0.74440  0.51036  0.10478  1.0000
  H   H2181     1.0  0.73966  0.50516  0.12183  1.0000
  H   H2182     1.0  0.72410  0.50328  0.11338  1.0000
  S   S746      1.0  0.92426  0.50911  0.99518  1.0000
  H   H2183     1.0  0.89615  0.63751  0.08846  1.0000
  H   H2184     1.0  0.77759  0.60110  0.14414  1.0000
  S   S747      1.0  0.92233  0.42979  0.98745  1.0000
  H   H2185     1.0  0.79664  0.34630  0.19620  1.0000
  H   H2186     1.0  0.64914  0.64566  0.13864  1.0000
  H   H2187     1.0  0.88669  0.53076  0.00536  1.0000
  H   H2188     1.0  0.87258  0.64457  0.06245  1.0000
  Fe  Fe371     1.0  0.55042  0.33668  0.13959  1.0000
  H   H2189     1.0  0.69736  0.48499  0.17876  1.0000
  N   N184      1.0  0.85275  0.62931  0.06633  1.0000
  N   N185      1.0  0.86387  0.59933  0.14795  1.0000
  C   C2223     1.0  0.68976  0.63073  0.17741  1.0000
  H   H2190     1.0  0.72722  0.48454  0.16446  1.0000
  Fe  Fe372     1.0  0.72816  0.34563  0.19733  1.0000
  H   H2191     1.0  0.80496  0.51237  0.13233  1.0000
  H   H2192     1.0  0.73308  0.62383  0.09142  1.0000
  C   C2224     1.0  0.98570  0.47551  0.03383  1.0000
  H   H2193     1.0  0.73713  0.43133  0.12832  1.0000
  N   N186      1.0  0.89690  0.48218  0.06068  1.0000
  C   C2225     1.0  0.90502  0.49609  0.05832  1.0000
  C   C2226     1.0  0.90701  0.46556  0.05992  1.0000
  C   C2227     1.0  0.92374  0.49344  0.05546  1.0000
  C   C2228     1.0  0.92576  0.46243  0.05715  1.0000
  C   C2229     1.0  0.93414  0.47645  0.05500  1.0000
  C   C2230     1.0  0.87728  0.48529  0.06332  1.0000
  H   H2194     1.0  0.89703  0.50935  0.05865  1.0000
  H   H2195     1.0  0.90059  0.45463  0.06140  1.0000
  H   H2196     1.0  0.93015  0.50451  0.05355  1.0000
  H   H2197     1.0  0.93377  0.44924  0.05650  1.0000
  H   H2198     1.0  0.94868  0.47417  0.05288  1.0000
  H   H2199     1.0  0.87086  0.49655  0.06813  1.0000
  H   H2200     1.0  0.87269  0.48817  0.05433  1.0000
  H   H2201     1.0  0.87244  0.47352  0.06971  1.0000
  N   N187      1.0  0.62046  0.45300  0.10475  1.0000
  C   C2231     1.0  0.60421  0.44883  0.10659  1.0000
  C   C2232     1.0  0.63591  0.44244  0.09956  1.0000
  C   C2233     1.0  0.60310  0.43374  0.10318  1.0000
  C   C2234     1.0  0.63532  0.42711  0.09619  1.0000
  C   C2235     1.0  0.61878  0.42277  0.09802  1.0000
  C   C2236     1.0  0.62107  0.46911  0.10819  1.0000
  H   H2202     1.0  0.59203  0.45694  0.11105  1.0000
  H   H2203     1.0  0.64883  0.44571  0.09811  1.0000
  H   H2204     1.0  0.59024  0.43019  0.10496  1.0000
  H   H2205     1.0  0.64762  0.41859  0.09231  1.0000
  H   H2206     1.0  0.61808  0.41072  0.09574  1.0000
  H   H2207     1.0  0.61455  0.48098  0.10197  1.0000
  H   H2208     1.0  0.61399  0.46908  0.11819  1.0000
  H   H2209     1.0  0.63507  0.47021  0.10724  1.0000
  H   H2210     1.0  0.85482  0.60580  0.16616  1.0000
  H   H2211     1.0  0.66700  0.35562  0.19946  1.0000
  C   C2237     1.0  0.64851  0.34628  0.18677  1.0000
  H   H2212     1.0  0.89073  0.58481  0.98925  1.0000
  C   C2238     1.0  0.82250  0.42578  0.06977  1.0000
  H   H2213     1.0  0.63850  0.62734  0.18534  1.0000
  C   C2239     1.0  0.87208  0.61685  0.04469  1.0000
  H   H2214     1.0  0.96281  0.52707  0.02375  1.0000
  H   H2215     1.0  0.79374  0.61269  0.13340  1.0000
  N   N188      1.0  0.60545  0.37456  0.15872  1.0000
  C   C2240     1.0  0.60827  0.35725  0.15804  1.0000
  C   C2241     1.0  0.61968  0.38220  0.15687  1.0000
  H   H2216     1.0  0.71600  0.40170  0.14270  1.0000
  C   C2242     1.0  0.80310  0.34080  0.20421  1.0000
  C   C2243     1.0  0.77134  0.63525  0.12054  1.0000
  C   C2244     1.0  0.58701  0.38465  0.16189  1.0000
  H   H2217     1.0  0.59696  0.35118  0.15965  1.0000
  H   H2218     1.0  0.61746  0.39594  0.15742  1.0000
  H   H2219     1.0  0.77583  0.59905  0.16696  1.0000
  C   C2245     1.0  0.86869  0.63389  0.13885  1.0000
  H   H2220     1.0  0.58628  0.63580  0.17131  1.0000
  H   H2221     1.0  0.99842  0.54784  0.02564  1.0000
  H   H2222     1.0  0.82925  0.63293  0.08109  1.0000
  H   H2223     1.0  0.53145  0.65307  0.15872  1.0000
  C   C2246     1.0  0.79401  0.54985  0.15029  1.0000
  C   C2247     1.0  0.75000  0.59219  0.17414  1.0000
  N   N189      1.0  0.69473  0.46087  0.17564  1.0000
  C   C2248     1.0  0.70357  0.47401  0.17405  1.0000
  C   C2249     1.0  0.70246  0.44719  0.16952  1.0000
  C   C2250     1.0  0.72051  0.47380  0.16600  1.0000
  C   C2251     1.0  0.71938  0.44657  0.16140  1.0000
  C   C2252     1.0  0.72842  0.45999  0.15963  1.0000
  C   C2253     1.0  0.67729  0.46103  0.18447  1.0000
  H   H2224     1.0  0.69552  0.43670  0.17085  1.0000
  H   H2225     1.0  0.72550  0.43576  0.15651  1.0000
  H   H2226     1.0  0.74151  0.45970  0.15329  1.0000
  H   H2227     1.0  0.67920  0.45491  0.19425  1.0000
  H   H2228     1.0  0.98367  0.51633  0.00690  1.0000
  C   C2254     1.0  0.73223  0.60309  0.19283  1.0000
  H   H2229     1.0  0.78530  0.63580  0.11652  1.0000
  H   H2230     1.0  0.97825  0.46492  0.99197  1.0000
  H   H2231     1.0  0.72670  0.37199  0.15519  1.0000
  C   C2255     1.0  0.76974  0.52424  0.13990  1.0000
  H   H2232     1.0  0.75761  0.52550  0.14767  1.0000
  H   H2233     1.0  0.76608  0.53236  0.13089  1.0000
  C   C2256     1.0  0.87030  0.60515  0.13531  1.0000
  H   H2234     1.0  0.68612  0.62738  0.16986  1.0000
  H   H2235     1.0  0.64858  0.37877  0.15217  1.0000
  C   C2257     1.0  0.87973  0.52404  0.98558  1.0000
  S   S748      1.0  0.75409  0.34338  0.20275  1.0000
  C   C2258     1.0  0.74057  0.64374  0.11827  1.0000
  C   C2259     1.0  0.62572  0.34716  0.15526  1.0000
  H   H2236     1.0  0.77148  0.61710  0.18268  1.0000
  H   H2237     1.0  0.85261  0.60066  0.04921  1.0000
  H   H2238     1.0  0.87406  0.57229  0.15541  1.0000
  C   C2260     1.0  0.75849  0.64485  0.11341  1.0000
  H   H2239     1.0  0.84715  0.41680  0.05729  1.0000
  C   C2261     1.0  0.87272  0.62252  0.13057  1.0000
  H   H2240     1.0  0.85023  0.58011  0.16116  1.0000
  H   H2241     1.0  0.73056  0.65054  0.11264  1.0000
  H   H2242     1.0  0.76904  0.40235  0.12102  1.0000
  H   H2243     1.0  0.74327  0.42344  0.11383  1.0000
  H   H2244     1.0  0.83543  0.61206  0.06835  1.0000
  C   C2262     1.0  0.86777  0.63538  0.05937  1.0000
  C   C2263     1.0  0.66861  0.34139  0.20104  1.0000
  H   H2245     1.0  0.82650  0.64470  0.14307  1.0000
  H   H2246     1.0  0.75898  0.35718  0.15039  1.0000
  H   H2247     1.0  0.98453  0.43183  0.04440  1.0000
  H   H2248     1.0  0.88959  0.63409  0.04297  1.0000
  H   H2249     1.0  0.67204  0.61639  0.19217  1.0000
  H   H2250     1.0  0.87753  0.62713  0.12050  1.0000
  H   H2251     1.0  0.58099  0.37997  0.17201  1.0000
  C   C2264     1.0  0.68661  0.62884  0.19963  1.0000
  H   H2252     1.0  0.82633  0.41665  0.07816  1.0000
  H   H2253     1.0  0.70879  0.64562  0.16491  1.0000
  C   C2265     1.0  0.73568  0.63330  0.13023  1.0000
  H   H2254     1.0  0.81470  0.35402  0.22659  1.0000
  S   S749      1.0  0.78651  0.64223  0.20284  1.0000
  H   H2255     1.0  0.57868  0.38278  0.15606  1.0000
  H   H2256     1.0  0.68113  0.33239  0.16639  1.0000
  H   H2257     1.0  0.98881  0.59858  0.03628  1.0000
  H   H2258     1.0  0.71118  0.32589  0.17154  1.0000
  C   C2266     1.0  0.83426  0.42604  0.05796  1.0000
  H   H2259     1.0  0.85810  0.57615  0.14560  1.0000
  C   C2267     1.0  0.55826  0.64981  0.16147  1.0000
  H   H2260     1.0  0.68075  0.62384  0.20944  1.0000
  H   H2261     1.0  0.51176  0.33153  0.13939  1.0000
  C   C2268     1.0  0.00065  0.43224  0.01199  1.0000
  H   H2262     1.0  0.76351  0.32793  0.22947  1.0000
  H   H2263     1.0  0.97394  0.52671  0.03571  1.0000
  C   C2269     1.0  0.81329  0.34534  0.22120  1.0000
  H   H2264     1.0  0.64598  0.33916  0.18044  1.0000
  C   C2270     1.0  0.84313  0.63529  0.07805  1.0000
  H   H2265     1.0  0.96509  0.54751  0.02602  1.0000
  C   C2271     1.0  0.56902  0.32816  0.18167  1.0000
  H   H2266     1.0  0.00064  0.41870  0.01712  1.0000
  H   H2267     1.0  0.90588  0.40360  0.98540  1.0000
  H   H2268     1.0  0.59507  0.32990  0.18294  1.0000
  H   H2269     1.0  0.00006  0.48058  0.99394  1.0000
  C   C2272     1.0  0.00004  0.46703  0.99907  1.0000
  H   H2270     1.0  0.59207  0.65681  0.16853  1.0000
  H   H2271     1.0  0.82637  0.65666  0.22998  1.0000
  Fe  Fe373     1.0  0.92825  0.42346  0.40781  1.0000
  S   S750      1.0  0.90659  0.40762  0.41510  1.0000
  S   S751      1.0  0.92859  0.45117  0.39634  1.0000
  Fe  Fe374     1.0  0.95458  0.39530  0.42171  1.0000
  S   S752      1.0  0.93561  0.37721  0.43013  1.0000
  S   S753      1.0  0.98176  0.38993  0.42580  1.0000
  Fe  Fe375     1.0  0.92923  0.38437  0.41081  1.0000
  S   S754      1.0  0.93331  0.36044  0.40244  1.0000
  Fe  Fe376     1.0  0.91503  0.40173  0.43372  1.0000
  S   S755      1.0  0.89866  0.40185  0.45359  1.0000
  S   S756      1.0  0.95011  0.40082  0.40214  1.0000
  S   S757      1.0  0.93481  0.41914  0.42655  1.0000
  Fe  Fe377     1.0  0.92404  0.54425  0.45071  1.0000
  S   S758      1.0  0.93953  0.51953  0.44412  1.0000
  S   S759      1.0  0.91543  0.54528  0.47128  1.0000
  Fe  Fe378     1.0  0.92117  0.56531  0.42399  1.0000
  S   S760      1.0  0.93630  0.54212  0.41496  1.0000
  H   H2272     1.0  0.99356  0.42985  0.47719  1.0000
  Fe  Fe379     1.0  0.92006  0.52603  0.43150  1.0000
  S   S761      1.0  0.90621  0.50409  0.43344  1.0000
  Fe  Fe380     1.0  0.95427  0.53758  0.42841  1.0000
  S   S762      1.0  0.98414  0.53179  0.42409  1.0000
  S   S763      1.0  0.90324  0.54965  0.43936  1.0000
  S   S764      1.0  0.94048  0.56182  0.43616  1.0000
  H   H2273     1.0  0.89836  0.60581  0.45425  1.0000
  C   C2273     1.0  0.00035  0.41266  0.42737  1.0000
  H   H2274     1.0  0.91771  0.64134  0.37765  1.0000
  H   H2275     1.0  0.96579  0.38534  0.36204  1.0000
  C   C2274     1.0  0.92069  0.43267  0.47239  1.0000
  H   H2276     1.0  0.98812  0.46646  0.47153  1.0000
  C   C2275     1.0  0.99788  0.58232  0.42586  1.0000
  C   C2276     1.0  0.95330  0.60943  0.43710  1.0000
  C   C2277     1.0  0.98224  0.38433  0.46252  1.0000
  H   H2277     1.0  0.88726  0.53076  0.46957  1.0000
  C   C2278     1.0  0.93417  0.36084  0.34596  1.0000
  H   H2278     1.0  0.97204  0.34921  0.39284  1.0000
  C   C2279     1.0  0.91219  0.42953  0.45412  1.0000
  H   H2279     1.0  0.90443  0.62879  0.39987  1.0000
  C   C2280     1.0  0.87413  0.32610  0.39761  1.0000
  H   H2280     1.0  0.98034  0.32783  0.41195  1.0000
  H   H2281     1.0  0.95412  0.41027  0.48219  1.0000
  S   S765      1.0  0.89275  0.34368  0.36704  1.0000
  C   C2281     1.0  0.98151  0.56749  0.41815  1.0000
  H   H2282     1.0  0.90200  0.39675  0.47943  1.0000
  H   H2283     1.0  0.92456  0.32495  0.37684  1.0000
  C   C2282     1.0  0.97660  0.64138  0.36851  1.0000
  C   C2283     1.0  0.95799  0.56107  0.47452  1.0000
  C   C2284     1.0  0.99792  0.39009  0.46104  1.0000
  C   C2285     1.0  0.87782  0.64601  0.36028  1.0000
  H   H2284     1.0  0.97125  0.56237  0.46898  1.0000
  C   C2286     1.0  0.98957  0.55114  0.42475  1.0000
  H   H2285     1.0  0.94180  0.38993  0.36734  1.0000
  C   C2287     1.0  0.88886  0.51658  0.47315  1.0000
  H   H2286     1.0  0.97777  0.35353  0.33029  1.0000
  C   C2288     1.0  0.99752  0.40310  0.46728  1.0000
  H   H2287     1.0  0.94043  0.45401  0.42854  1.0000
  Fe  Fe381     1.0  0.93575  0.65364  0.34931  1.0000
  C   C2289     1.0  0.88705  0.50586  0.46585  1.0000
  H   H2288     1.0  0.88413  0.51193  0.45656  1.0000
  C   C2290     1.0  0.91989  0.43840  0.45963  1.0000
  H   H2289     1.0  0.90061  0.47486  0.45519  1.0000
  H   H2290     1.0  0.96064  0.46934  0.46393  1.0000
  C   C2291     1.0  0.94872  0.60270  0.45981  1.0000
  H   H2291     1.0  0.97220  0.61094  0.44716  1.0000
  C   C2292     1.0  0.92259  0.62764  0.38179  1.0000
  S   S766      1.0  0.99412  0.34419  0.36754  1.0000
  C   C2293     1.0  0.96641  0.39157  0.47024  1.0000
  N   N190      1.0  0.95211  0.37214  0.35472  1.0000
  C   C2294     1.0  0.95930  0.60802  0.44795  1.0000
  H   H2292     1.0  0.96147  0.61367  0.42787  1.0000
  C   C2295     1.0  0.93584  0.36938  0.35475  1.0000
  C   C2296     1.0  0.97564  0.48663  0.48253  1.0000
  H   H2293     1.0  0.98219  0.37486  0.45725  1.0000
  H   H2294     1.0  0.93966  0.33161  0.39090  1.0000
  H   H2295     1.0  0.96963  0.43509  0.47978  1.0000
  C   C2297     1.0  0.90957  0.59512  0.45110  1.0000
  H   H2296     1.0  0.91574  0.62445  0.34322  1.0000
  H   H2297     1.0  0.92438  0.59408  0.46990  1.0000
  C   C2298     1.0  0.94931  0.35517  0.33706  1.0000
  H   H2298     1.0  0.88527  0.46381  0.46780  1.0000
  H   H2299     1.0  0.98341  0.37677  0.38506  1.0000
  C   C2299     1.0  0.93693  0.60508  0.43824  1.0000
  C   C2300     1.0  0.98965  0.43308  0.44156  1.0000
  C   C2301     1.0  0.94524  0.50051  0.48188  1.0000
  C   C2302     1.0  0.93478  0.59198  0.39265  1.0000
  C   C2303     1.0  0.94229  0.59912  0.38007  1.0000
  C   C2304     1.0  0.96490  0.45041  0.41443  1.0000
  H   H2300     1.0  0.93942  0.57818  0.39674  1.0000
  H   H2301     1.0  0.95275  0.59075  0.37452  1.0000
  C   C2305     1.0  0.98595  0.46743  0.41388  1.0000
  H   H2302     1.0  0.86386  0.33736  0.39460  1.0000
  N   N191      1.0  0.99783  0.37110  0.39966  1.0000
  H   H2303     1.0  0.97215  0.56811  0.41253  1.0000
  N   N192      1.0  0.92681  0.59950  0.44992  1.0000
  C   C2306     1.0  0.92177  0.46657  0.40618  1.0000
  C   C2307     1.0  0.92875  0.48192  0.40266  1.0000
  C   C2308     1.0  0.92418  0.49361  0.41093  1.0000
  C   C2309     1.0  0.91228  0.49016  0.42259  1.0000
  C   C2310     1.0  0.90502  0.47506  0.42592  1.0000
  C   C2311     1.0  0.90986  0.46323  0.41781  1.0000
  H   H2304     1.0  0.93797  0.48455  0.39366  1.0000
  H   H2305     1.0  0.92977  0.50529  0.40826  1.0000
  H   H2306     1.0  0.89566  0.47236  0.43483  1.0000
  H   H2307     1.0  0.90426  0.45155  0.42054  1.0000
  C   C2312     1.0  0.98408  0.40727  0.43142  1.0000
  C   C2313     1.0  0.97024  0.41528  0.44022  1.0000
  C   C2314     1.0  0.97308  0.42812  0.44537  1.0000
  C   C2315     1.0  0.96998  0.32824  0.36430  1.0000
  C   C2316     1.0  0.95378  0.37944  0.36484  1.0000
  C   C2317     1.0  0.96698  0.36686  0.34590  1.0000
  H   H2308     1.0  0.95773  0.41089  0.44362  1.0000
  H   H2309     1.0  0.96264  0.43378  0.45253  1.0000
  C   C2318     1.0  0.93239  0.59850  0.46063  1.0000
  H   H2310     1.0  0.90057  0.59446  0.38512  1.0000
  C   C2319     1.0  0.92131  0.35649  0.39278  1.0000
  C   C2320     1.0  0.90584  0.36822  0.38948  1.0000
  C   C2321     1.0  0.89699  0.36415  0.38165  1.0000
  C   C2322     1.0  0.90378  0.34855  0.37695  1.0000
  C   C2323     1.0  0.91923  0.33697  0.38029  1.0000
  C   C2324     1.0  0.92781  0.34082  0.38826  1.0000
  H   H2311     1.0  0.90066  0.38032  0.39298  1.0000
  H   H2312     1.0  0.88499  0.37321  0.37914  1.0000
  H   H2313     1.0  0.88367  0.61024  0.39274  1.0000
  H   H2314     1.0  0.77906  0.33500  0.24333  1.0000
  S   S767      1.0  0.94504  0.62500  0.35852  1.0000
  C   C2325     1.0  0.94702  0.55432  0.46995  1.0000
  C   C2326     1.0  0.92974  0.55300  0.47694  1.0000
  C   C2327     1.0  0.92100  0.60261  0.39979  1.0000
  H   H2315     1.0  0.95195  0.55021  0.46101  1.0000
  C   C2328     1.0  0.88782  0.47696  0.46226  1.0000
  H   H2316     1.0  0.91054  0.43478  0.44452  1.0000
  S   S768      1.0  0.91003  0.59367  0.41511  1.0000
  H   H2317     1.0  0.92126  0.35837  0.34623  1.0000
  C   C2329     1.0  0.97896  0.48787  0.42813  1.0000
  C   C2330     1.0  0.96063  0.47776  0.47003  1.0000
  H   H2318     1.0  0.96025  0.33611  0.37051  1.0000
  H   H2319     1.0  0.97979  0.59560  0.41328  1.0000
  C   C2331     1.0  0.99674  0.34341  0.41457  1.0000
  C   C2332     1.0  0.98142  0.45518  0.40919  1.0000
  H   H2320     1.0  0.99362  0.48741  0.42550  1.0000
  C   C2333     1.0  0.98576  0.58305  0.41864  1.0000
  C   C2334     1.0  0.93612  0.61691  0.37457  1.0000
  H   H2321     1.0  0.93252  0.60592  0.42972  1.0000
  C   C2335     1.0  0.98799  0.32943  0.36130  1.0000
  S   S769      1.0  0.93019  0.44466  0.47876  1.0000
  H   H2322     1.0  0.87743  0.59683  0.38475  1.0000
  H   H2323     1.0  0.96114  0.44102  0.41083  1.0000
  C   C2336     1.0  0.96652  0.40451  0.47637  1.0000
  H   H2324     1.0  0.90810  0.59337  0.44199  1.0000
  H   H2325     1.0  0.90846  0.58244  0.45807  1.0000
  H   H2326     1.0  0.95505  0.36871  0.37342  1.0000
  C   C2337     1.0  0.87684  0.63322  0.37159  1.0000
  C   C2338     1.0  0.97603  0.47606  0.47436  1.0000
  N   N193      1.0  0.88904  0.48796  0.47032  1.0000
  H   H2327     1.0  0.99186  0.39915  0.39472  1.0000
  C   C2339     1.0  0.98549  0.33983  0.40842  1.0000
  C   C2340     1.0  0.96168  0.65186  0.37488  1.0000
  C   C2341     1.0  0.91397  0.41781  0.47964  1.0000
  C   C2342     1.0  0.95322  0.45777  0.42432  1.0000
  H   H2328     1.0  0.98001  0.36859  0.34606  1.0000
  H   H2329     1.0  0.94830  0.34815  0.33038  1.0000
  H   H2330     1.0  0.94961  0.64683  0.37945  1.0000
  C   C2343     1.0  0.81197  0.65597  0.24926  1.0000
  H   H2331     1.0  0.92408  0.37356  0.36172  1.0000
  C   C2344     1.0  0.91510  0.62051  0.39438  1.0000
  H   H2332     1.0  0.86595  0.63582  0.37957  1.0000
  C   C2345     1.0  0.94510  0.49001  0.47383  1.0000
  C   C2346     1.0  0.88765  0.60414  0.38435  1.0000
  C   C2347     1.0  0.90625  0.41416  0.46107  1.0000
  H   H2333     1.0  0.99070  0.44933  0.40162  1.0000
  C   C2348     1.0  0.98720  0.36747  0.39338  1.0000
  H   H2334     1.0  0.97186  0.50130  0.42406  1.0000
  H   H2335     1.0  0.92508  0.44987  0.45398  1.0000
  H   H2336     1.0  0.80071  0.65192  0.24797  1.0000
  N   N194      1.0  0.88944  0.61768  0.37259  1.0000
  C   C2349     1.0  0.90316  0.61441  0.36251  1.0000
  H   H2337     1.0  0.95399  0.38765  0.47112  1.0000
  H   H2338     1.0  0.94873  0.47602  0.43622  1.0000
  H   H2339     1.0  0.87683  0.48352  0.45709  1.0000
  C   C2350     1.0  0.90685  0.40848  0.47394  1.0000
  N   N195      1.0  0.97438  0.47460  0.42358  1.0000
  C   C2351     1.0  0.95808  0.47010  0.42870  1.0000
  C   C2352     1.0  0.98076  0.35187  0.39771  1.0000
  C   C2353     1.0  0.89171  0.64273  0.34996  1.0000
  H   H2340     1.0  0.97613  0.62817  0.36812  1.0000
  C   C2354     1.0  0.96582  0.35827  0.33696  1.0000
  N   N196      1.0  0.98188  0.41027  0.47471  1.0000
  C   C2355     1.0  0.90456  0.62691  0.35108  1.0000
  H   H2341     1.0  0.91337  0.60225  0.36331  1.0000
  C   C2356     1.0  0.99192  0.64815  0.36240  1.0000
  C   C2357     1.0  0.88492  0.32794  0.40495  1.0000
  H   H2342     1.0  0.95331  0.60150  0.46832  1.0000
  H   H2343     1.0  0.99880  0.47109  0.40974  1.0000
  S   S770      1.0  0.99445  0.44730  0.44898  1.0000
  H   H2344     1.0  0.89257  0.65254  0.34115  1.0000
  H   H2345     1.0  0.88298  0.34045  0.40761  1.0000
  H   H2346     1.0  0.97515  0.48549  0.43861  1.0000
  C   C2358     1.0  0.89309  0.48028  0.48193  1.0000
  H   H2347     1.0  0.93296  0.49119  0.47071  1.0000
  C   C2359     1.0  0.98145  0.42407  0.48110  1.0000
  H   H2348     1.0  0.00059  0.33419  0.42289  1.0000
  Fe  Fe382     1.0  0.95624  0.43349  0.51582  1.0000
  S   S771      1.0  0.93569  0.44286  0.53207  1.0000
  S   S772      1.0  0.98586  0.42656  0.51404  1.0000
  Fe  Fe383     1.0  0.92909  0.43920  0.49962  1.0000
  S   S773      1.0  0.90599  0.44841  0.51468  1.0000
  H   H2349     1.0  0.87667  0.32968  0.67524  1.0000
  Fe  Fe384     1.0  0.92361  0.46422  0.51726  1.0000
  S   S774      1.0  0.91647  0.49404  0.51340  1.0000
  Fe  Fe385     1.0  0.92005  0.42611  0.52820  1.0000
  S   S775      1.0  0.90633  0.40621  0.54341  1.0000
  S   S776      1.0  0.94576  0.45614  0.50151  1.0000
  S   S777      1.0  0.94165  0.41546  0.51269  1.0000
  Fe  Fe386     1.0  0.97470  0.56910  0.53418  1.0000
  C   C2360     1.0  0.74347  0.33065  0.72756  1.0000
  Fe  Fe387     1.0  0.93871  0.56085  0.53761  1.0000
  S   S778      1.0  0.92442  0.53912  0.54894  1.0000
  S   S779      1.0  0.96548  0.55242  0.52537  1.0000
  S   S780      1.0  0.94860  0.57557  0.54766  1.0000
  N   N197      1.0  0.83489  0.34308  0.69204  1.0000
  S   S781      1.0  0.93054  0.62722  0.53528  1.0000
  H   H2350     1.0  0.93305  0.50983  0.48498  1.0000
  H   H2351     1.0  0.99323  0.64804  0.60938  1.0000
  C   C2361     1.0  0.97094  0.50641  0.53920  1.0000
  C   C2362     1.0  0.99259  0.60886  0.54742  1.0000
  H   H2352     1.0  0.95549  0.35045  0.56217  1.0000
  H   H2353     1.0  0.99923  0.63894  0.52502  1.0000
  H   H2354     1.0  0.88435  0.59908  0.53919  1.0000
  C   C2363     1.0  0.89042  0.59718  0.54714  1.0000
  Fe  Fe388     1.0  0.93392  0.34551  0.60310  1.0000
  H   H2355     1.0  0.82353  0.32992  0.71051  1.0000
  S   S782      1.0  0.93616  0.37359  0.59365  1.0000
  H   H2356     1.0  0.95823  0.37959  0.54956  1.0000
  C   C2364     1.0  0.92360  0.55816  0.48857  1.0000
  H   H2357     1.0  0.89822  0.48453  0.49865  1.0000
  S   S783      1.0  0.94447  0.33237  0.62080  1.0000
  H   H2358     1.0  0.99470  0.39314  0.56825  1.0000
  H   H2359     1.0  0.98997  0.33087  0.64071  1.0000
  C   C2365     1.0  0.99743  0.48634  0.54633  1.0000
  C   C2366     1.0  0.84954  0.34297  0.68222  1.0000
  C   C2367     1.0  0.99710  0.32673  0.63196  1.0000
  C   C2368     1.0  0.94516  0.35092  0.55738  1.0000
  N   N198      1.0  0.96044  0.49885  0.48601  1.0000
  H   H2360     1.0  0.90358  0.62039  0.56269  1.0000
  H   H2361     1.0  0.96541  0.37220  0.53475  1.0000
  H   H2362     1.0  0.98751  0.48488  0.48615  1.0000
  Fe  Fe389     1.0  0.95734  0.57754  0.51168  1.0000
  C   C2369     1.0  0.95172  0.56649  0.48608  1.0000
  H   H2363     1.0  0.88917  0.62499  0.54491  1.0000
  H   H2364     1.0  0.77692  0.36844  0.71945  1.0000
  H   H2365     1.0  0.93118  0.58511  0.57355  1.0000
  C   C2370     1.0  0.94435  0.62670  0.56765  1.0000
  C   C2371     1.0  0.90460  0.57790  0.56387  1.0000
  C   C2372     1.0  0.93423  0.63377  0.54799  1.0000
  C   C2373     1.0  0.85772  0.33694  0.64876  1.0000
  H   H2366     1.0  0.94778  0.60788  0.55626  1.0000
  C   C2374     1.0  0.99406  0.63816  0.59319  1.0000
  H   H2367     1.0  0.95942  0.51593  0.54351  1.0000
  H   H2368     1.0  0.98069  0.41849  0.49136  1.0000
  S   S784      1.0  0.96496  0.57648  0.49103  1.0000
  H   H2369     1.0  0.97498  0.51210  0.52896  1.0000
  H   H2370     1.0  0.95305  0.50380  0.50442  1.0000
  C   C2375     1.0  0.00030  0.64669  0.59986  1.0000
  H   H2371     1.0  0.99814  0.63051  0.57552  1.0000
  H   H2372     1.0  0.97573  0.64836  0.52537  1.0000
  S   S785      1.0  0.93981  0.64981  0.58269  1.0000
  H   H2373     1.0  0.93673  0.32808  0.57056  1.0000
  H   H2374     1.0  0.85084  0.34973  0.64426  1.0000
  S   S786      1.0  0.91012  0.33264  0.60930  1.0000
  H   H2375     1.0  0.90960  0.56455  0.56879  1.0000
  C   C2376     1.0  0.93459  0.56482  0.49316  1.0000
  C   C2377     1.0  0.78780  0.34026  0.72282  1.0000
  C   C2378     1.0  0.97643  0.36235  0.60879  1.0000
  C   C2379     1.0  0.84804  0.32617  0.65876  1.0000
  H   H2376     1.0  0.80982  0.35160  0.68667  1.0000
  C   C2380     1.0  0.83522  0.33010  0.70281  1.0000
  C   C2381     1.0  0.91960  0.50570  0.52350  1.0000
  C   C2382     1.0  0.92007  0.49810  0.53619  1.0000
  C   C2383     1.0  0.92141  0.50841  0.54407  1.0000
  C   C2384     1.0  0.92287  0.52611  0.53914  1.0000
  C   C2385     1.0  0.92310  0.53342  0.52635  1.0000
  C   C2386     1.0  0.92112  0.52334  0.51863  1.0000
  H   H2377     1.0  0.91880  0.48450  0.54003  1.0000
  H   H2378     1.0  0.92128  0.50268  0.55397  1.0000
  H   H2379     1.0  0.92426  0.54702  0.52247  1.0000
  H   H2380     1.0  0.92072  0.52922  0.50884  1.0000
  C   C2387     1.0  0.87632  0.33123  0.64457  1.0000
  H   H2381     1.0  0.96608  0.49424  0.54034  1.0000
  H   H2382     1.0  0.98084  0.52901  0.54810  1.0000
  C   C2388     1.0  0.91653  0.58953  0.57712  1.0000
  H   H2383     1.0  0.82135  0.36905  0.68428  1.0000
  H   H2384     1.0  0.91022  0.55719  0.49400  1.0000
  H   H2385     1.0  0.97774  0.34897  0.60720  1.0000
  H   H2386     1.0  0.97270  0.37885  0.58543  1.0000
  H   H2387     1.0  0.97335  0.48777  0.51834  1.0000
  N   N199      1.0  0.94222  0.36395  0.54697  1.0000
  C   C2389     1.0  0.91379  0.39797  0.55777  1.0000
  C   C2390     1.0  0.90810  0.38321  0.56631  1.0000
  C   C2391     1.0  0.91498  0.37551  0.57731  1.0000
  C   C2392     1.0  0.92722  0.38286  0.57999  1.0000
  C   C2393     1.0  0.93262  0.39782  0.57161  1.0000
  C   C2394     1.0  0.92605  0.40525  0.56050  1.0000
  H   H2388     1.0  0.89852  0.37757  0.56432  1.0000
  H   H2389     1.0  0.91062  0.36405  0.58377  1.0000
  H   H2390     1.0  0.94195  0.40368  0.57370  1.0000
  H   H2391     1.0  0.93043  0.41667  0.55411  1.0000
  H   H2392     1.0  0.91436  0.60192  0.58047  1.0000
  C   C2395     1.0  0.98543  0.37898  0.58724  1.0000
  S   S787      1.0  0.99994  0.55990  0.54147  1.0000
  C   C2396     1.0  0.99205  0.44618  0.51325  1.0000
  C   C2397     1.0  0.97883  0.46091  0.51622  1.0000
  C   C2398     1.0  0.98361  0.47661  0.51572  1.0000
  C   C2399     1.0  0.89298  0.61171  0.55040  1.0000
  C   C2400     1.0  0.93787  0.64434  0.56900  1.0000
  H   H2393     1.0  0.96490  0.46017  0.51917  1.0000
  H   H2394     1.0  0.94600  0.38992  0.53745  1.0000
  H   H2395     1.0  0.95078  0.61702  0.57476  1.0000
  H   H2396     1.0  0.98213  0.63275  0.59749  1.0000
  C   C2401     1.0  0.92782  0.65146  0.54927  1.0000
  N   N200      1.0  0.90696  0.59225  0.56706  1.0000
  C   C2402     1.0  0.98960  0.59358  0.54543  1.0000
  C   C2403     1.0  0.91808  0.35222  0.54573  1.0000
  C   C2404     1.0  0.78107  0.35669  0.72633  1.0000
  H   H2397     1.0  0.92963  0.56908  0.50204  1.0000
  C   C2405     1.0  0.92974  0.65678  0.55970  1.0000
  C   C2406     1.0  0.89617  0.58016  0.55394  1.0000
  N   N201      1.0  0.98613  0.50269  0.54526  1.0000
  H   H2398     1.0  0.84903  0.35279  0.67345  1.0000
  H   H2399     1.0  0.88375  0.33956  0.63685  1.0000
  H   H2400     1.0  0.91237  0.32940  0.56033  1.0000
  C   C2407     1.0  0.94268  0.62147  0.55716  1.0000
  H   H2401     1.0  0.97872  0.36089  0.61838  1.0000
  C   C2408     1.0  0.95361  0.37697  0.54190  1.0000
  C   C2409     1.0  0.92908  0.36454  0.54101  1.0000
  S   S788      1.0  0.82495  0.33386  0.66432  1.0000
  H   H2402     1.0  0.95257  0.52338  0.49193  1.0000
  C   C2410     1.0  0.92085  0.33901  0.55643  1.0000
  H   H2403     1.0  0.81073  0.35969  0.69997  1.0000
  C   C2411     1.0  0.98937  0.51584  0.54935  1.0000
  H   H2404     1.0  0.96243  0.36993  0.60869  1.0000
  H   H2405     1.0  0.96614  0.65173  0.54657  1.0000
  H   H2406     1.0  0.90729  0.35312  0.54122  1.0000
  H   H2407     1.0  0.97687  0.59387  0.54362  1.0000
  N   N202      1.0  0.98927  0.37138  0.59891  1.0000
  C   C2412     1.0  0.93454  0.33828  0.56224  1.0000
  Fe  Fe390     1.0  0.94243  0.59920  0.53220  1.0000
  S   S789      1.0  0.92961  0.58510  0.52333  1.0000
  H   H2408     1.0  0.78878  0.33943  0.71326  1.0000
  H   H2409     1.0  0.97368  0.51014  0.49514  1.0000
  C   C2413     1.0  0.90128  0.60900  0.56046  1.0000
  H   H2410     1.0  0.00035  0.58203  0.48695  1.0000
  H   H2411     1.0  0.98210  0.62072  0.54719  1.0000
  C   C2414     1.0  0.95998  0.50955  0.49480  1.0000
  S   S790      1.0  0.96945  0.59362  0.51926  1.0000
  H   H2412     1.0  0.92661  0.37498  0.53283  1.0000
  H   H2413     1.0  0.89454  0.56872  0.55134  1.0000
  H   H2414     1.0  0.91185  0.57938  0.58540  1.0000
  H   H2415     1.0  0.91442  0.41340  0.48955  1.0000
  C   C2415     1.0  0.81837  0.35651  0.69070  1.0000
  C   C2416     1.0  0.89503  0.49062  0.48945  1.0000
  H   H2416     1.0  0.73801  0.34084  0.72019  1.0000
  H   H2417     1.0  0.89465  0.51701  0.49072  1.0000
  C   C2417     1.0  0.79338  0.32510  0.73165  1.0000
  C   C2418     1.0  0.99782  0.38703  0.57748  1.0000
  H   H2418     1.0  0.99541  0.47620  0.54248  1.0000
  S   S791      1.0  0.95153  0.32537  0.59220  1.0000
  C   C2419     1.0  0.98897  0.65155  0.52420  1.0000
  H   H2419     1.0  0.89494  0.46606  0.48541  1.0000
  C   C2420     1.0  0.89295  0.50888  0.48501  1.0000
  C   C2421     1.0  0.86519  0.32984  0.68315  1.0000
  H   H2420     1.0  0.92040  0.46356  0.93205  1.0000
  S   S792      1.0  0.97052  0.46290  0.94902  1.0000
  H   H2421     1.0  0.93412  0.59554  0.98304  1.0000
  Fe  Fe391     1.0  0.94109  0.56886  0.93210  1.0000
  S   S793      1.0  0.92519  0.59549  0.92427  1.0000
  S   S794      1.0  0.97090  0.56068  0.93125  1.0000
  Fe  Fe392     1.0  0.90785  0.55348  0.94381  1.0000
  S   S795      1.0  0.88917  0.57901  0.93767  1.0000
  S   S796      1.0  0.89845  0.52842  0.95400  1.0000
  Fe  Fe393     1.0  0.90899  0.58042  0.91914  1.0000
  S   S797      1.0  0.90087  0.58697  0.90024  1.0000
  Fe  Fe394     1.0  0.90681  0.59145  0.94340  1.0000
  S   S798      1.0  0.89358  0.61386  0.95326  1.0000
  S   S799      1.0  0.92687  0.55409  0.92505  1.0000
  S   S800      1.0  0.92352  0.56576  0.95156  1.0000
  Fe  Fe395     1.0  0.90158  0.47149  0.91129  1.0000
  S   S801      1.0  0.89426  0.44587  0.91266  1.0000
  S   S802      1.0  0.92979  0.47638  0.90498  1.0000
  Fe  Fe396     1.0  0.86270  0.48898  0.92131  1.0000
  S   S803      1.0  0.85216  0.46485  0.92379  1.0000
  S   S804      1.0  0.84671  0.51491  0.92597  1.0000
  Fe  Fe397     1.0  0.87694  0.45050  0.93151  1.0000
  Fe  Fe398     1.0  0.87022  0.46262  0.90474  1.0000
  S   S805      1.0  0.86226  0.46152  0.88706  1.0000
  S   S806      1.0  0.88579  0.47496  0.93044  1.0000
  S   S807      1.0  0.87915  0.48796  0.90183  1.0000
  Fe  Fe399     1.0  0.61736  0.42766  0.84143  1.0000
  S   S808      1.0  0.60787  0.45503  0.83051  1.0000
  S   S809      1.0  0.60082  0.40665  0.84967  1.0000
  Fe  Fe400     1.0  0.65607  0.43214  0.83540  1.0000
  S   S810      1.0  0.64984  0.45943  0.82363  1.0000
  S   S811      1.0  0.68503  0.42040  0.83589  1.0000
  Fe  Fe401     1.0  0.62568  0.46350  0.83930  1.0000
  S   S812      1.0  0.61903  0.48765  0.84775  1.0000
  Fe  Fe402     1.0  0.63300  0.44833  0.81604  1.0000
  S   S813      1.0  0.63271  0.45284  0.79553  1.0000
  S   S814      1.0  0.63297  0.43655  0.85169  1.0000
  S   S815      1.0  0.64138  0.42056  0.82640  1.0000
  C   C2422     1.0  0.98782  0.58016  0.97599  1.0000
  S   S816      1.0  0.55481  0.39659  0.81509  1.0000
  S   S817      1.0  0.53518  0.36197  0.80665  1.0000
  Fe  Fe403     1.0  0.81435  0.58179  0.88067  1.0000
  S   S818      1.0  0.83170  0.56632  0.86620  1.0000
  S   S819      1.0  0.82297  0.58279  0.89804  1.0000
  Fe  Fe404     1.0  0.78152  0.59049  0.86892  1.0000
  S   S820      1.0  0.79628  0.57567  0.85370  1.0000
  S   S821      1.0  0.75294  0.60464  0.86839  1.0000
  Fe  Fe405     1.0  0.80764  0.55505  0.86894  1.0000
  S   S822      1.0  0.81077  0.52569  0.87194  1.0000
  Fe  Fe406     1.0  0.81863  0.58845  0.85227  1.0000
  S   S823      1.0  0.83153  0.59837  0.83209  1.0000
  S   S824      1.0  0.79106  0.56878  0.88446  1.0000
  S   S825      1.0  0.80313  0.60505  0.86649  1.0000
  Fe  Fe407     1.0  0.74822  0.45005  0.86016  1.0000
  S   S826      1.0  0.76046  0.45708  0.83953  1.0000
  S   S827      1.0  0.71830  0.45344  0.86663  1.0000
  Fe  Fe408     1.0  0.78435  0.44008  0.86793  1.0000
  S   S828      1.0  0.79960  0.44548  0.84779  1.0000
  S   S829      1.0  0.79654  0.43189  0.88521  1.0000
  Fe  Fe409     1.0  0.77755  0.46975  0.84566  1.0000
  S   S830      1.0  0.78206  0.49695  0.83597  1.0000
  Fe  Fe410     1.0  0.78099  0.43200  0.84362  1.0000
  S   S831      1.0  0.79052  0.41183  0.83111  1.0000
  S   S832      1.0  0.76332  0.46522  0.86595  1.0000
  S   S833      1.0  0.76772  0.42419  0.86406  1.0000
  H   H2422     1.0  0.67125  0.46793  0.79754  1.0000
  H   H2423     1.0  0.97454  0.56760  0.96761  1.0000
  H   H2424     1.0  0.77860  0.44606  0.79692  1.0000
  C   C2423     1.0  0.63624  0.64964  0.83750  1.0000
  S   S834      1.0  0.74717  0.63154  0.77379  1.0000
  H   H2425     1.0  0.80635  0.42948  0.80432  1.0000
  C   C2424     1.0  0.99838  0.60222  0.93407  1.0000
  Fe  Fe411     1.0  0.66213  0.56918  0.83011  1.0000
  S   S835      1.0  0.65947  0.56367  0.85102  1.0000
  S   S836      1.0  0.65985  0.54973  0.81973  1.0000
  Fe  Fe412     1.0  0.66982  0.60561  0.82638  1.0000
  S   S837      1.0  0.66762  0.60290  0.84710  1.0000
  S   S838      1.0  0.67391  0.63196  0.81400  1.0000
  Fe  Fe413     1.0  0.68377  0.57536  0.84649  1.0000
  S   S839      1.0  0.70828  0.56086  0.85455  1.0000
  Fe  Fe414     1.0  0.64359  0.59180  0.84942  1.0000
  S   S840      1.0  0.61784  0.59731  0.86379  1.0000
  S   S841      1.0  0.68767  0.57879  0.82557  1.0000
  S   S842      1.0  0.64451  0.59652  0.82878  1.0000
  C   C2425     1.0  0.62403  0.65171  0.84889  1.0000
  C   C2426     1.0  0.56876  0.62858  0.87116  1.0000
  C   C2427     1.0  0.58432  0.61535  0.87201  1.0000
  C   C2428     1.0  0.59873  0.61436  0.86162  1.0000
  C   C2429     1.0  0.59739  0.62675  0.85020  1.0000
  C   C2430     1.0  0.77926  0.35790  0.73882  1.0000
  C   C2431     1.0  0.92985  0.42247  0.93576  1.0000
  H   H2426     1.0  0.58518  0.60584  0.88085  1.0000
  H   H2427     1.0  0.60838  0.62592  0.84206  1.0000
  Fe  Fe415     1.0  0.73733  0.35110  0.78554  1.0000
  C   C2432     1.0  0.72642  0.63172  0.78449  1.0000
  C   C2433     1.0  0.72136  0.61572  0.79093  1.0000
  C   C2434     1.0  0.70515  0.61566  0.79992  1.0000
  C   C2435     1.0  0.69394  0.63162  0.80247  1.0000
  C   C2436     1.0  0.83776  0.64946  0.79232  1.0000
  C   C2437     1.0  0.98178  0.61205  0.96990  1.0000
  H   H2428     1.0  0.73005  0.60334  0.78901  1.0000
  H   H2429     1.0  0.70132  0.60329  0.80476  1.0000
  C   C2438     1.0  0.84724  0.62062  0.92855  1.0000
  C   C2439     1.0  0.58968  0.33126  0.79608  1.0000
  C   C2440     1.0  0.81620  0.61664  0.82563  1.0000
  C   C2441     1.0  0.80617  0.62925  0.83274  1.0000
  H   H2430     1.0  0.88342  0.58256  0.96971  1.0000
  H   H2431     1.0  0.96932  0.50732  0.97357  1.0000
  C   C2442     1.0  0.80148  0.63325  0.80831  1.0000
  C   C2443     1.0  0.81389  0.61868  0.81338  1.0000
  H   H2432     1.0  0.80807  0.62796  0.84212  1.0000
  C   C2444     1.0  0.51717  0.65521  0.84057  1.0000
  H   H2433     1.0  0.55967  0.34940  0.86669  1.0000
  H   H2434     1.0  0.82151  0.60889  0.80787  1.0000
  C   C2445     1.0  0.74034  0.59234  0.86489  1.0000
  C   C2446     1.0  0.72393  0.60088  0.86137  1.0000
  C   C2447     1.0  0.71402  0.59139  0.85809  1.0000
  C   C2448     1.0  0.72040  0.57325  0.85846  1.0000
  C   C2449     1.0  0.73682  0.56473  0.86199  1.0000
  C   C2450     1.0  0.74678  0.57424  0.86517  1.0000
  H   H2435     1.0  0.71893  0.61489  0.86112  1.0000
  H   H2436     1.0  0.70139  0.59807  0.85541  1.0000
  H   H2437     1.0  0.74185  0.55071  0.86231  1.0000
  H   H2438     1.0  0.75937  0.56752  0.86794  1.0000
  C   C2451     1.0  0.78913  0.50517  0.84630  1.0000
  C   C2452     1.0  0.78784  0.52336  0.84445  1.0000
  C   C2453     1.0  0.79379  0.52989  0.85260  1.0000
  C   C2454     1.0  0.80131  0.51822  0.86247  1.0000
  C   C2455     1.0  0.80242  0.50004  0.86436  1.0000
  C   C2456     1.0  0.79627  0.49354  0.85634  1.0000
  H   H2439     1.0  0.78222  0.53243  0.83675  1.0000
  H   H2440     1.0  0.79282  0.54388  0.85106  1.0000
  H   H2441     1.0  0.80830  0.49090  0.87193  1.0000
  H   H2442     1.0  0.79735  0.47946  0.85783  1.0000
  C   C2457     1.0  0.78094  0.39714  0.81511  1.0000
  H   H2443     1.0  0.79332  0.38734  0.81565  1.0000
  H   H2444     1.0  0.99908  0.59652  0.98270  1.0000
  N   N203      1.0  0.72763  0.38647  0.84463  1.0000
  H   H2445     1.0  0.60200  0.43822  0.79519  1.0000
  C   C2458     1.0  0.69883  0.44174  0.80382  1.0000
  H   H2446     1.0  0.88735  0.45864  0.95480  1.0000
  C   C2459     1.0  0.89132  0.44664  0.96142  1.0000
  S   S843      1.0  0.73746  0.40724  0.79939  1.0000
  C   C2460     1.0  0.67854  0.46092  0.79007  1.0000
  C   C2461     1.0  0.86362  0.62830  0.89339  1.0000
  C   C2462     1.0  0.63250  0.50329  0.84016  1.0000
  C   C2463     1.0  0.63572  0.51366  0.84719  1.0000
  C   C2464     1.0  0.64453  0.52768  0.84109  1.0000
  C   C2465     1.0  0.65019  0.53137  0.82791  1.0000
  C   C2466     1.0  0.64754  0.52061  0.82095  1.0000
  C   C2467     1.0  0.63871  0.50663  0.82704  1.0000
  H   H2447     1.0  0.63101  0.51108  0.85735  1.0000
  H   H2448     1.0  0.64658  0.53580  0.84656  1.0000
  H   H2449     1.0  0.65190  0.52339  0.81076  1.0000
  H   H2450     1.0  0.63607  0.49889  0.82153  1.0000
  C   C2468     1.0  0.64745  0.43586  0.78844  1.0000
  C   C2469     1.0  0.66155  0.42461  0.79388  1.0000
  C   C2470     1.0  0.67336  0.41127  0.78796  1.0000
  C   C2471     1.0  0.64514  0.43368  0.77712  1.0000
  H   H2451     1.0  0.66380  0.42657  0.80238  1.0000
  H   H2452     1.0  0.68440  0.40281  0.79209  1.0000
  H   H2453     1.0  0.63443  0.44250  0.77279  1.0000
  C   C2472     1.0  0.69372  0.43148  0.84354  1.0000
  C   C2473     1.0  0.71226  0.43005  0.84095  1.0000
  C   C2474     1.0  0.71982  0.43702  0.84788  1.0000
  C   C2475     1.0  0.70882  0.44560  0.85741  1.0000
  C   C2476     1.0  0.69017  0.44758  0.85975  1.0000
  C   C2477     1.0  0.68260  0.44060  0.85277  1.0000
  H   H2454     1.0  0.72083  0.42296  0.83389  1.0000
  H   H2455     1.0  0.73421  0.43520  0.84615  1.0000
  H   H2456     1.0  0.68158  0.45422  0.86712  1.0000
  H   H2457     1.0  0.66824  0.44179  0.85483  1.0000
  C   C2478     1.0  0.58902  0.40365  0.83950  1.0000
  C   C2479     1.0  0.58491  0.38714  0.84122  1.0000
  C   C2480     1.0  0.57438  0.38481  0.83382  1.0000
  C   C2481     1.0  0.56788  0.39901  0.82467  1.0000
  C   C2482     1.0  0.57214  0.41546  0.82288  1.0000
  C   C2483     1.0  0.58275  0.41777  0.83022  1.0000
  H   H2458     1.0  0.58974  0.37617  0.84838  1.0000
  H   H2459     1.0  0.57126  0.37206  0.83524  1.0000
  H   H2460     1.0  0.56708  0.42652  0.81586  1.0000
  H   H2461     1.0  0.58569  0.43059  0.82891  1.0000
  N   N204      1.0  0.89352  0.53361  0.90144  1.0000
  H   H2462     1.0  0.55776  0.62909  0.87934  1.0000
  C   C2484     1.0  0.84371  0.45342  0.88689  1.0000
  C   C2485     1.0  0.83845  0.45651  0.87539  1.0000
  C   C2486     1.0  0.82382  0.45029  0.87480  1.0000
  C   C2487     1.0  0.81445  0.44069  0.88570  1.0000
  C   C2488     1.0  0.81964  0.43767  0.89722  1.0000
  C   C2489     1.0  0.83415  0.44409  0.89785  1.0000
  H   H2463     1.0  0.84584  0.46354  0.86685  1.0000
  H   H2464     1.0  0.82004  0.45256  0.86587  1.0000
  H   H2465     1.0  0.81251  0.43017  0.90569  1.0000
  H   H2466     1.0  0.83814  0.44150  0.90675  1.0000
  C   C2490     1.0  0.88202  0.52553  0.94744  1.0000
  C   C2491     1.0  0.87607  0.50965  0.95146  1.0000
  C   C2492     1.0  0.86394  0.50682  0.94555  1.0000
  C   C2493     1.0  0.85757  0.51995  0.93577  1.0000
  C   C2494     1.0  0.86260  0.53622  0.93238  1.0000
  C   C2495     1.0  0.87516  0.53882  0.93796  1.0000
  H   H2467     1.0  0.88124  0.49929  0.95882  1.0000
  H   H2468     1.0  0.85983  0.49429  0.94837  1.0000
  H   H2469     1.0  0.85765  0.54641  0.92489  1.0000
  H   H2470     1.0  0.87989  0.55090  0.93457  1.0000
  C   C2496     1.0  0.90589  0.61726  0.96289  1.0000
  C   C2497     1.0  0.90443  0.63455  0.96390  1.0000
  C   C2498     1.0  0.60686  0.33279  0.78874  1.0000
  C   C2499     1.0  0.87958  0.58461  0.89972  1.0000
  C   C2500     1.0  0.86635  0.58196  0.91072  1.0000
  C   C2501     1.0  0.84910  0.58148  0.91000  1.0000
  C   C2502     1.0  0.84497  0.58324  0.89830  1.0000
  C   C2503     1.0  0.85828  0.58554  0.88727  1.0000
  C   C2504     1.0  0.87551  0.58633  0.88798  1.0000
  H   H2471     1.0  0.86922  0.58062  0.91980  1.0000
  H   H2472     1.0  0.83889  0.57958  0.91858  1.0000
  H   H2473     1.0  0.85520  0.58701  0.87819  1.0000
  H   H2474     1.0  0.88562  0.58851  0.87939  1.0000
  S   S844      1.0  0.78604  0.64865  0.77732  1.0000
  H   H2475     1.0  0.56507  0.38533  0.87464  1.0000
  C   C2505     1.0  0.92464  0.62384  0.97841  1.0000
  C   C2506     1.0  0.98085  0.57682  0.93283  1.0000
  C   C2507     1.0  0.97375  0.59485  0.92893  1.0000
  C   C2508     1.0  0.98256  0.60750  0.92947  1.0000
  H   H2476     1.0  0.91325  0.65134  0.97184  1.0000
  C   C2509     1.0  0.96806  0.59607  0.96174  1.0000
  H   H2477     1.0  0.96174  0.59907  0.92515  1.0000
  H   H2478     1.0  0.97719  0.62143  0.92619  1.0000
  C   C2510     1.0  0.70194  0.43828  0.78239  1.0000
  C   C2511     1.0  0.69635  0.44273  0.77095  1.0000
  H   H2479     1.0  0.71328  0.42738  0.78382  1.0000
  H   H2480     1.0  0.70317  0.43520  0.76367  1.0000
  H   H2481     1.0  0.68986  0.44916  0.81103  1.0000
  H   H2482     1.0  0.75524  0.38482  0.83566  1.0000
  H   H2483     1.0  0.89608  0.64550  0.95867  1.0000
  C   C2512     1.0  0.80024  0.46659  0.81467  1.0000
  Fe  Fe416     1.0  0.54730  0.33523  0.81688  1.0000
  C   C2513     1.0  0.82423  0.43971  0.81684  1.0000
  C   C2514     1.0  0.80050  0.44282  0.80585  1.0000
  C   C2515     1.0  0.74486  0.38743  0.84387  1.0000
  Fe  Fe417     1.0  0.73899  0.38759  0.78775  1.0000
  H   H2484     1.0  0.70062  0.39017  0.85524  1.0000
  H   H2485     1.0  0.71967  0.39592  0.82707  1.0000
  H   H2486     1.0  0.68073  0.35578  0.76534  1.0000
  H   H2487     1.0  0.88925  0.62561  0.92625  1.0000
  H   H2488     1.0  0.97057  0.41605  0.95903  1.0000
  H   H2489     1.0  0.97372  0.52771  0.95245  1.0000
  H   H2490     1.0  0.73983  0.58672  0.82838  1.0000
  C   C2516     1.0  0.59913  0.39622  0.79809  1.0000
  C   C2517     1.0  0.61698  0.40735  0.80664  1.0000
  C   C2518     1.0  0.60430  0.37921  0.80522  1.0000
  C   C2519     1.0  0.62237  0.39054  0.81395  1.0000
  C   C2520     1.0  0.61592  0.37641  0.81325  1.0000
  H   H2491     1.0  0.58054  0.34252  0.79949  1.0000
  H   H2492     1.0  0.59882  0.36844  0.80482  1.0000
  H   H2493     1.0  0.63109  0.38865  0.82037  1.0000
  H   H2494     1.0  0.61960  0.36341  0.81912  1.0000
  N   N205      1.0  0.74001  0.63015  0.82330  1.0000
  C   C2521     1.0  0.75320  0.62887  0.82941  1.0000
  C   C2522     1.0  0.73514  0.61526  0.82293  1.0000
  C   C2523     1.0  0.76243  0.61232  0.83489  1.0000
  C   C2524     1.0  0.74396  0.59849  0.82844  1.0000
  C   C2525     1.0  0.75781  0.59705  0.83434  1.0000
  C   C2526     1.0  0.96229  0.62852  0.95513  1.0000
  H   H2495     1.0  0.75660  0.64069  0.83013  1.0000
  Fe  Fe418     1.0  0.75875  0.65434  0.77309  1.0000
  H   H2496     1.0  0.93358  0.47180  0.96725  1.0000
  H   H2497     1.0  0.58068  0.64994  0.84064  1.0000
  H   H2498     1.0  0.76457  0.58416  0.83885  1.0000
  C   C2527     1.0  0.86211  0.62185  0.93236  1.0000
  C   C2528     1.0  0.90152  0.41575  0.97890  1.0000
  H   H2499     1.0  0.95077  0.43287  0.96255  1.0000
  H   H2500     1.0  0.62179  0.41832  0.80741  1.0000
  N   N206      1.0  0.60530  0.41005  0.79899  1.0000
  H   H2501     1.0  0.55884  0.41610  0.86256  1.0000
  H   H2502     1.0  0.86175  0.62038  0.94231  1.0000
  N   N207      1.0  0.69292  0.44719  0.79182  1.0000
  H   H2503     1.0  0.77274  0.61139  0.83985  1.0000
  H   H2504     1.0  0.56083  0.35617  0.88041  1.0000
  H   H2505     1.0  0.97233  0.63322  0.94671  1.0000
  N   N208      1.0  0.95148  0.42151  0.94745  1.0000
  H   H2506     1.0  0.89019  0.62847  0.90360  1.0000
  C   C2529     1.0  0.96335  0.42613  0.93639  1.0000
  C   C2530     1.0  0.88105  0.55529  0.97682  1.0000
  C   C2531     1.0  0.72302  0.38316  0.83384  1.0000
  Fe  Fe419     1.0  0.71260  0.38355  0.77401  1.0000
  H   H2507     1.0  0.95696  0.63880  0.96091  1.0000
  H   H2508     1.0  0.72430  0.61633  0.81843  1.0000
  C   C2532     1.0  0.97655  0.58003  0.96843  1.0000
  H   H2509     1.0  0.91959  0.48798  0.95735  1.0000
  S   S845      1.0  0.71675  0.37268  0.79374  1.0000
  C   C2533     1.0  0.68349  0.34787  0.79142  1.0000
  H   H2510     1.0  0.82108  0.42788  0.82418  1.0000
  C   C2534     1.0  0.87798  0.62649  0.91055  1.0000
  H   H2511     1.0  0.93587  0.45947  0.94900  1.0000
  H   H2512     1.0  0.80593  0.47230  0.81997  1.0000
  H   H2513     1.0  0.90467  0.45888  0.97001  1.0000
  H   H2514     1.0  0.76434  0.47621  0.80112  1.0000
  N   N209      1.0  0.60348  0.55651  0.85475  1.0000
  C   C2535     1.0  0.61067  0.56800  0.84444  1.0000
  C   C2536     1.0  0.59768  0.54281  0.85325  1.0000
  C   C2537     1.0  0.61258  0.56573  0.83221  1.0000
  C   C2538     1.0  0.59918  0.54027  0.84115  1.0000
  C   C2539     1.0  0.60682  0.55174  0.83059  1.0000
  C   C2540     1.0  0.60230  0.55897  0.86742  1.0000
  H   H2515     1.0  0.61528  0.57881  0.84567  1.0000
  H   H2516     1.0  0.59235  0.53340  0.86139  1.0000
  H   H2517     1.0  0.61906  0.57438  0.82407  1.0000
  H   H2518     1.0  0.59532  0.52892  0.84001  1.0000
  H   H2519     1.0  0.60889  0.54941  0.82119  1.0000
  H   H2520     1.0  0.61586  0.55870  0.86860  1.0000
  H   H2521     1.0  0.59353  0.57204  0.86872  1.0000
  H   H2522     1.0  0.59685  0.54849  0.87501  1.0000
  N   N210      1.0  0.84949  0.51176  0.85346  1.0000
  C   C2541     1.0  0.84204  0.50588  0.84619  1.0000
  C   C2542     1.0  0.85025  0.52922  0.85094  1.0000
  C   C2543     1.0  0.83506  0.51761  0.83610  1.0000
  C   C2544     1.0  0.84334  0.54133  0.84095  1.0000
  C   C2545     1.0  0.83564  0.53546  0.83354  1.0000
  C   C2546     1.0  0.85554  0.49940  0.86448  1.0000
  H   H2523     1.0  0.84080  0.49219  0.84851  1.0000
  H   H2524     1.0  0.85571  0.53397  0.85691  1.0000
  H   H2525     1.0  0.82852  0.51301  0.83068  1.0000
  H   H2526     1.0  0.84354  0.55528  0.83917  1.0000
  H   H2527     1.0  0.82977  0.54482  0.82601  1.0000
  H   H2528     1.0  0.84372  0.49608  0.87193  1.0000
  H   H2529     1.0  0.86423  0.48694  0.86189  1.0000
  H   H2530     1.0  0.86334  0.50497  0.86867  1.0000
  N   N211      1.0  0.80644  0.51928  0.90616  1.0000
  C   C2547     1.0  0.82027  0.50472  0.90640  1.0000
  C   C2548     1.0  0.79119  0.51918  0.90273  1.0000
  C   C2549     1.0  0.81898  0.48948  0.90331  1.0000
  C   C2550     1.0  0.78944  0.50411  0.89959  1.0000
  C   C2551     1.0  0.80347  0.48917  0.89988  1.0000
  C   C2552     1.0  0.80839  0.53517  0.90923  1.0000
  H   H2531     1.0  0.83243  0.50486  0.90896  1.0000
  H   H2532     1.0  0.78046  0.53091  0.90208  1.0000
  H   H2533     1.0  0.83000  0.47801  0.90348  1.0000
  H   H2534     1.0  0.77755  0.50420  0.89657  1.0000
  H   H2535     1.0  0.80246  0.47748  0.89728  1.0000
  H   H2536     1.0  0.79550  0.54504  0.91052  1.0000
  H   H2537     1.0  0.81319  0.53166  0.91819  1.0000
  H   H2538     1.0  0.81826  0.54158  0.90154  1.0000
  N   N212      1.0  0.94027  0.49701  0.96111  1.0000
  C   C2553     1.0  0.94270  0.50799  0.94941  1.0000
  C   C2554     1.0  0.95010  0.49634  0.96954  1.0000
  C   C2555     1.0  0.95487  0.51909  0.94608  1.0000
  C   C2556     1.0  0.96205  0.50751  0.96665  1.0000
  C   C2557     1.0  0.96439  0.51901  0.95485  1.0000
  C   C2558     1.0  0.92691  0.48602  0.96492  1.0000
  H   H2539     1.0  0.93509  0.50835  0.94265  1.0000
  H   H2540     1.0  0.75272  0.32523  0.75623  1.0000
  H   H2541     1.0  0.95688  0.52778  0.93682  1.0000
  Fe  Fe420     1.0  0.51014  0.35845  0.82149  1.0000
  H   H2542     1.0  0.87126  0.52590  0.97871  1.0000
  H   H2543     1.0  0.79974  0.63466  0.79892  1.0000
  H   H2544     1.0  0.83641  0.62159  0.91277  1.0000
  C   C2559     1.0  0.79404  0.64393  0.82761  1.0000
  C   C2560     1.0  0.91116  0.51416  0.91606  1.0000
  H   H2545     1.0  0.71260  0.44379  0.80227  1.0000
  C   C2561     1.0  0.90089  0.44686  0.97022  1.0000
  H   H2546     1.0  0.73895  0.40040  0.87135  1.0000
  H   H2547     1.0  0.89314  0.51596  0.98218  1.0000
  C   C2562     1.0  0.88712  0.43088  0.96120  1.0000
  H   H2548     1.0  0.58480  0.43066  0.79198  1.0000
  C   C2563     1.0  0.68152  0.45651  0.76916  1.0000
  H   H2549     1.0  0.93337  0.54504  0.89603  1.0000
  C   C2564     1.0  0.76037  0.42340  0.82095  1.0000
  H   H2550     1.0  0.75666  0.43400  0.82593  1.0000
  Fe  Fe421     1.0  0.54309  0.37218  0.82064  1.0000
  H   H2551     1.0  0.96790  0.43327  0.91599  1.0000
  S   S846      1.0  0.55759  0.34552  0.82948  1.0000
  S   S847      1.0  0.73309  0.40013  0.76842  1.0000
  N   N213      1.0  0.72083  0.51487  0.84908  1.0000
  C   C2565     1.0  0.71414  0.49999  0.85485  1.0000
  C   C2566     1.0  0.71317  0.52743  0.84000  1.0000
  C   C2567     1.0  0.69971  0.49717  0.85131  1.0000
  C   C2568     1.0  0.69872  0.52503  0.83624  1.0000
  C   C2569     1.0  0.69203  0.50974  0.84191  1.0000
  C   C2570     1.0  0.73559  0.51779  0.85322  1.0000
  H   H2552     1.0  0.71991  0.49020  0.86226  1.0000
  H   H2553     1.0  0.71806  0.53952  0.83573  1.0000
  H   H2554     1.0  0.69448  0.48532  0.85590  1.0000
  H   H2555     1.0  0.69266  0.53505  0.82907  1.0000
  H   H2556     1.0  0.68084  0.50770  0.83909  1.0000
  H   H2557     1.0  0.73014  0.52366  0.86173  1.0000
  H   H2558     1.0  0.74544  0.50518  0.85546  1.0000
  H   H2559     1.0  0.74309  0.52696  0.84573  1.0000
  C   C2571     1.0  0.78476  0.45212  0.80168  1.0000
  H   H2560     1.0  0.91683  0.48957  0.97337  1.0000
  H   H2561     1.0  0.84561  0.63600  0.79382  1.0000
  H   H2562     1.0  0.58960  0.39841  0.79221  1.0000
  C   C2572     1.0  0.59946  0.42778  0.79154  1.0000
  H   H2563     1.0  0.59635  0.65405  0.86791  1.0000
  H   H2564     1.0  0.61095  0.34526  0.78645  1.0000
  C   C2573     1.0  0.94184  0.42719  0.92444  1.0000
  H   H2565     1.0  0.65485  0.41848  0.76260  1.0000
  N   N214      1.0  0.54832  0.37655  0.86668  1.0000
  C   C2574     1.0  0.53725  0.38111  0.85835  1.0000
  C   C2575     1.0  0.55584  0.38896  0.86834  1.0000
  C   C2576     1.0  0.53356  0.39846  0.85132  1.0000
  C   C2577     1.0  0.55229  0.40647  0.86157  1.0000
  C   C2578     1.0  0.54117  0.41119  0.85295  1.0000
  C   C2579     1.0  0.55242  0.35809  0.87351  1.0000
  H   H2566     1.0  0.53150  0.37120  0.85693  1.0000
  S   S848      1.0  0.77045  0.37848  0.74310  1.0000
  H   H2567     1.0  0.94954  0.40993  0.96716  1.0000
  C   C2580     1.0  0.65670  0.42013  0.77136  1.0000
  S   S849      1.0  0.87746  0.42913  0.94929  1.0000
  H   H2568     1.0  0.93749  0.51869  0.91368  1.0000
  N   N215      1.0  0.86330  0.62542  0.90688  1.0000
  H   H2569     1.0  0.85988  0.64268  0.88934  1.0000
  S   S850      1.0  0.53047  0.33423  0.86318  1.0000
  C   C2581     1.0  0.77631  0.41079  0.82178  1.0000
  H   H2570     1.0  0.66074  0.47617  0.77761  1.0000
  H   H2571     1.0  0.60684  0.42870  0.78155  1.0000
  H   H2572     1.0  0.67669  0.45974  0.76049  1.0000
  H   H2573     1.0  0.71786  0.33067  0.77522  1.0000
  H   H2574     1.0  0.77828  0.48930  0.81270  1.0000
  C   C2582     1.0  0.67092  0.40903  0.77669  1.0000
  C   C2583     1.0  0.71836  0.39494  0.86474  1.0000
  C   C2584     1.0  0.93302  0.46745  0.92975  1.0000
  C   C2585     1.0  0.94088  0.47381  0.91720  1.0000
  C   C2586     1.0  0.90635  0.43128  0.97880  1.0000
  H   H2575     1.0  0.71120  0.37695  0.83689  1.0000
  C   C2587     1.0  0.95912  0.46850  0.93663  1.0000
  H   H2576     1.0  0.91250  0.50302  0.92400  1.0000
  C   C2588     1.0  0.76935  0.39584  0.80801  1.0000
  C   C2589     1.0  0.73587  0.39609  0.86398  1.0000
  C   C2590     1.0  0.95875  0.42895  0.92473  1.0000
  C   C2591     1.0  0.75328  0.40842  0.80737  1.0000
  H   H2577     1.0  0.83520  0.61813  0.93551  1.0000
  H   H2578     1.0  0.98391  0.62454  0.97047  1.0000
  C   C2592     1.0  0.92509  0.52304  0.91031  1.0000
  H   H2579     1.0  0.98028  0.47792  0.92187  1.0000
  C   C2593     1.0  0.92287  0.53765  0.90033  1.0000
  C   C2594     1.0  0.74909  0.42235  0.81365  1.0000
  C   C2595     1.0  0.74925  0.39226  0.85351  1.0000
  C   C2596     1.0  0.90681  0.54291  0.89608  1.0000
  H   H2580     1.0  0.69900  0.42745  0.80787  1.0000
  C   C2597     1.0  0.56741  0.64127  0.85998  1.0000
  H   H2581     1.0  0.88845  0.40341  0.97026  1.0000
  Fe  Fe422     1.0  0.75259  0.37628  0.76249  1.0000
  C   C2598     1.0  0.71444  0.39010  0.85490  1.0000
  H   H2582     1.0  0.88493  0.51232  0.91576  1.0000
  C   C2599     1.0  0.89172  0.41562  0.97028  1.0000
  S   S851      1.0  0.68554  0.39263  0.76903  1.0000
  C   C2600     1.0  0.89551  0.51951  0.91137  1.0000
  S   S852      1.0  0.51684  0.37126  0.83459  1.0000
  H   H2583     1.0  0.73683  0.43226  0.81309  1.0000
  H   H2584     1.0  0.96406  0.48281  0.90468  1.0000
  C   C2601     1.0  0.78455  0.34270  0.74772  1.0000
  S   S853      1.0  0.73147  0.36092  0.76624  1.0000
  C   C2602     1.0  0.67262  0.46578  0.77873  1.0000
  H   H2585     1.0  0.90505  0.55450  0.88852  1.0000
  C   C2603     1.0  0.95784  0.47791  0.91440  1.0000
  C   C2604     1.0  0.87665  0.53929  0.89703  1.0000
  H   H2586     1.0  0.86654  0.54777  0.90309  1.0000
  H   H2587     1.0  0.87849  0.54686  0.88709  1.0000
  S   S854      1.0  0.76028  0.36479  0.78136  1.0000
  Fe  Fe423     1.0  0.53090  0.34377  0.84249  1.0000
  C   C2605     1.0  0.94199  0.46497  0.93941  1.0000
  H   H2588     1.0  0.73964  0.34850  0.73981  1.0000
  H   H2589     1.0  0.91650  0.42140  0.93571  1.0000
  C   C2606     1.0  0.78454  0.47632  0.81057  1.0000
  H   H2590     1.0  0.77279  0.38508  0.80313  1.0000
  H   H2591     1.0  0.87117  0.52773  0.89758  1.0000
  H   H2592     1.0  0.76287  0.39345  0.85267  1.0000
  H   H2593     1.0  0.70773  0.39855  0.87260  1.0000
  H   H2594     1.0  0.83484  0.43518  0.80893  1.0000
  H   H2595     1.0  0.83298  0.65057  0.81197  1.0000
  C   C2607     1.0  0.69881  0.64765  0.79583  1.0000
  C   C2608     1.0  0.91408  0.63785  0.97141  1.0000
  H   H2596     1.0  0.97613  0.42843  0.93657  1.0000
  H   H2597     1.0  0.66027  0.34752  0.77059  1.0000
  C   C2609     1.0  0.96700  0.47522  0.92411  1.0000
  H   H2598     1.0  0.73437  0.37430  0.82875  1.0000
  H   H2599     1.0  0.53103  0.65245  0.81382  1.0000
  C   C2610     1.0  0.77673  0.46897  0.80409  1.0000
  H   H2600     1.0  0.78652  0.65374  0.83314  1.0000
  C   C2611     1.0  0.66946  0.35319  0.77349  1.0000
  N   N216      1.0  0.80801  0.45006  0.81228  1.0000
  C   C2612     1.0  0.58174  0.64035  0.84941  1.0000
  H   H2601     1.0  0.82968  0.44745  0.82114  1.0000
  H   H2602     1.0  0.87719  0.62275  0.88817  1.0000
  H   H2603     1.0  0.95079  0.62703  0.95197  1.0000
  C   C2613     1.0  0.79167  0.64601  0.81538  1.0000
  H   H2604     1.0  0.87823  0.55432  0.96816  1.0000
  C   C2614     1.0  0.84802  0.62260  0.91568  1.0000
  C   C2615     1.0  0.84103  0.64908  0.77003  1.0000
  C   C2616     1.0  0.93494  0.41968  0.94723  1.0000
  H   H2605     1.0  0.95945  0.59585  0.95580  1.0000
  C   C2617     1.0  0.87759  0.62479  0.92333  1.0000
  C   C2618     1.0  0.69118  0.33662  0.80135  1.0000
  C   C2619     1.0  0.79195  0.32639  0.74407  1.0000
  C   C2620     1.0  0.73028  0.64759  0.81776  1.0000
  C   C2621     1.0  0.71501  0.64770  0.78683  1.0000
  S   S855      1.0  0.52180  0.33090  0.83074  1.0000
  N   N217      1.0  0.67654  0.34126  0.78427  1.0000
  H   H2606     1.0  0.68346  0.36188  0.78929  1.0000
  C   C2622     1.0  0.99656  0.57152  0.93757  1.0000
  H   H2607     1.0  0.93784  0.43004  0.91548  1.0000
  N   N218      1.0  0.97069  0.61181  0.96257  1.0000
  H   H2608     1.0  0.85414  0.62153  0.89185  1.0000
  C   C2623     1.0  0.95586  0.41995  0.95961  1.0000
  H   H2609     1.0  0.92548  0.41631  0.95596  1.0000
  H   H2610     1.0  0.53979  0.35365  0.87876  1.0000
  C   C2624     1.0  0.91673  0.60313  0.96972  1.0000
  C   C2625     1.0  0.74427  0.33493  0.73857  1.0000
  H   H2611     1.0  0.50720  0.33019  0.80881  1.0000
  Fe  Fe424     1.0  0.99733  0.46951  0.94647  1.0000
  H   H2612     1.0  0.85249  0.63777  0.77160  1.0000
  H   H2613     1.0  0.94840  0.48741  0.97870  1.0000
  C   C2626     1.0  0.50857  0.64828  0.85283  1.0000
  H   H2614     1.0  0.78329  0.34360  0.75736  1.0000
  H   H2615     1.0  0.51349  0.64846  0.86090  1.0000
  H   H2616     1.0  0.91792  0.58972  0.96899  1.0000
  C   C2627     1.0  0.92582  0.60640  0.97772  1.0000
  H   H2617     1.0  0.64822  0.63915  0.83737  1.0000
  H   H2618     1.0  0.69730  0.34175  0.80672  1.0000
  H   H2619     1.0  0.66173  0.36607  0.77589  1.0000
  N   N219      1.0  0.51081  0.65546  0.83036  1.0000
  H   H2620     1.0  0.62664  0.64250  0.85758  1.0000
  H   H2621     1.0  0.53891  0.42454  0.84726  1.0000
  C   C2628     1.0  0.88403  0.57129  0.97762  1.0000
  H   H2622     1.0  0.52533  0.40186  0.84437  1.0000
  H   H2623     1.0  0.83006  0.64415  0.76863  1.0000
  H   H2624     1.0  0.71761  0.65166  0.82450  1.0000
  C   C2629     1.0  0.99042  0.59626  0.97680  1.0000
  H   H2625     1.0  0.72708  0.64727  0.80882  1.0000
  H   H2626     1.0  0.52828  0.32792  0.79785  1.0000
  H   H2627     1.0  0.99457  0.56783  0.98120  1.0000
  Fe  Fe425     1.0  0.57476  0.96618  0.00555  1.0000
  H   H2628     1.0  0.53042  0.91933  0.10729  1.0000
  N   N220      1.0  0.75721  0.73582  0.19651  1.0000
  Fe  Fe426     1.0  0.55003  0.96639  0.03144  1.0000
  S   S856      1.0  0.77597  0.67740  0.22535  1.0000
  S   S857      1.0  0.53789  0.94898  0.04934  1.0000
  H   H2629     1.0  0.50629  0.75718  0.11987  1.0000
  C   C2630     1.0  0.59167  0.80785  0.14708  1.0000
  C   C2631     1.0  0.79185  0.68861  0.22611  1.0000
  H   H2630     1.0  0.51892  0.92233  0.00749  1.0000
  S   S858      1.0  0.54757  0.96054  0.01375  1.0000
  S   S859      1.0  0.57839  0.96986  0.02374  1.0000
  Fe  Fe427     1.0  0.55270  0.84186  0.11559  1.0000
  S   S860      1.0  0.53892  0.85250  0.13297  1.0000
  S   S861      1.0  0.54829  0.81508  0.11669  1.0000
  Fe  Fe428     1.0  0.56778  0.87439  0.10237  1.0000
  S   S862      1.0  0.55562  0.88734  0.11900  1.0000
  S   S863      1.0  0.58368  0.88926  0.08478  1.0000
  Fe  Fe429     1.0  0.56467  0.86054  0.13086  1.0000
  S   S864      1.0  0.57244  0.85469  0.14974  1.0000
  Fe  Fe430     1.0  0.53125  0.87794  0.11956  1.0000
  S   S865      1.0  0.57913  0.84819  0.11422  1.0000
  S   S866      1.0  0.54268  0.86666  0.10225  1.0000
  Fe  Fe431     1.0  0.65060  0.81025  0.18195  1.0000
  S   S867      1.0  0.65005  0.82209  0.16133  1.0000
  S   S868      1.0  0.64988  0.78166  0.19053  1.0000
  S   S869      1.0  0.67265  0.81013  0.19113  1.0000
  Fe  Fe432     1.0  0.60008  0.73546  0.15274  1.0000
  S   S870      1.0  0.57545  0.73844  0.16813  1.0000
  S   S871      1.0  0.61024  0.75887  0.13978  1.0000
  Fe  Fe433     1.0  0.60583  0.69523  0.15825  1.0000
  S   S872      1.0  0.58141  0.69487  0.17413  1.0000
  Fe  Fe434     1.0  0.56767  0.71833  0.16133  1.0000
  Fe  Fe435     1.0  0.59151  0.71518  0.17936  1.0000
  S   S873      1.0  0.59136  0.71717  0.14509  1.0000
  S   S874      1.0  0.61692  0.71361  0.16443  1.0000
  S   S875      1.0  0.78261  0.68469  0.18806  1.0000
  H   H2631     1.0  0.62518  0.80781  0.13722  1.0000
  H   H2632     1.0  0.53271  0.73988  0.12889  1.0000
  C   C2632     1.0  0.55900  0.68179  0.14422  1.0000
  C   C2633     1.0  0.60526  0.74621  0.19356  1.0000
  H   H2633     1.0  0.56856  0.73369  0.12112  1.0000
  H   H2634     1.0  0.65656  0.74933  0.22402  1.0000
  H   H2635     1.0  0.57695  0.75310  0.11929  1.0000
  Fe  Fe436     1.0  0.77486  0.66909  0.20780  1.0000
  C   C2634     1.0  0.52609  0.71081  0.16030  1.0000
  S   S876      1.0  0.59206  0.71559  0.19917  1.0000
  H   H2636     1.0  0.71239  0.73837  0.16921  1.0000
  C   C2635     1.0  0.81798  0.70432  0.22891  1.0000
  S   S877      1.0  0.73757  0.70550  0.17530  1.0000
  C   C2636     1.0  0.52819  0.69592  0.17014  1.0000
  H   H2637     1.0  0.58556  0.87489  0.17972  1.0000
  H   H2638     1.0  0.71264  0.72618  0.21477  1.0000
  C   C2637     1.0  0.72334  0.71685  0.19748  1.0000
  C   C2638     1.0  0.52002  0.95756  0.07919  1.0000
  H   H2639     1.0  0.58195  0.77278  0.17772  1.0000
  H   H2640     1.0  0.53663  0.79629  0.09780  1.0000
  C   C2639     1.0  0.62483  0.86560  0.18939  1.0000
  C   C2640     1.0  0.60631  0.87004  0.19007  1.0000
  C   C2641     1.0  0.53716  0.95228  0.08187  1.0000
  H   H2641     1.0  0.53927  0.69300  0.17477  1.0000
  C   C2642     1.0  0.59988  0.87176  0.17932  1.0000
  C   C2643     1.0  0.50658  0.94881  0.08675  1.0000
  H   H2642     1.0  0.56302  0.81755  0.14983  1.0000
  C   C2644     1.0  0.63076  0.71472  0.21182  1.0000
  S   S878      1.0  0.50444  0.89655  0.12269  1.0000
  C   C2645     1.0  0.58945  0.75297  0.21771  1.0000
  S   S879      1.0  0.83558  0.71226  0.23083  1.0000
  S   S880      1.0  0.76632  0.65814  0.17861  1.0000
  H   H2643     1.0  0.79239  0.91700  0.22991  1.0000
  H   H2644     1.0  0.72307  0.65852  0.18956  1.0000
  N   N221      1.0  0.63659  0.86251  0.17839  1.0000
  H   H2645     1.0  0.75982  0.72392  0.18129  1.0000
  Fe  Fe437     1.0  0.66926  0.78270  0.20144  1.0000
  C   C2646     1.0  0.57390  0.80778  0.15348  1.0000
  C   C2647     1.0  0.66684  0.84033  0.22386  1.0000
  H   H2646     1.0  0.56924  0.93606  0.08567  1.0000
  H   H2647     1.0  0.51478  0.92028  0.03043  1.0000
  H   H2648     1.0  0.74678  0.94566  0.23066  1.0000
  H   H2649     1.0  0.62978  0.78400  0.14066  1.0000
  C   C2648     1.0  0.63042  0.86457  0.16774  1.0000
  S   S881      1.0  0.54180  0.72452  0.15449  1.0000
  H   H2650     1.0  0.54763  0.95885  0.07571  1.0000
  C   C2649     1.0  0.60218  0.78330  0.16254  1.0000
  H   H2651     1.0  0.61316  0.77349  0.16600  1.0000
  H   H2652     1.0  0.67936  0.81303  0.22366  1.0000
  S   S882      1.0  0.62205  0.67286  0.14862  1.0000
  C   C2650     1.0  0.58456  0.78277  0.16915  1.0000
  H   H2653     1.0  0.51740  0.96798  0.07102  1.0000
  Fe  Fe438     1.0  0.75590  0.68318  0.18574  1.0000
  H   H2654     1.0  0.60714  0.87047  0.15964  1.0000
  N   N222      1.0  0.54084  0.93851  0.09173  1.0000
  C   C2651     1.0  0.80677  0.69099  0.21629  1.0000
  C   C2652     1.0  0.63118  0.72457  0.22020  1.0000
  H   H2655     1.0  0.74063  0.76074  0.18998  1.0000
  C   C2653     1.0  0.51035  0.93505  0.09695  1.0000
  H   H2656     1.0  0.80853  0.68641  0.20775  1.0000
  H   H2657     1.0  0.83154  0.70021  0.21020  1.0000
  S   S883      1.0  0.65097  0.84190  0.21484  1.0000
  H   H2658     1.0  0.61720  0.76869  0.19054  1.0000
  H   H2659     1.0  0.66201  0.86926  0.17338  1.0000
  S   S884      1.0  0.62849  0.82112  0.19687  1.0000
  H   H2660     1.0  0.63974  0.86211  0.15902  1.0000
  H   H2661     1.0  0.64205  0.70873  0.19339  1.0000
  H   H2662     1.0  0.57444  0.90748  0.03643  1.0000
  N   N223      1.0  0.54941  0.75787  0.11801  1.0000
  C   C2654     1.0  0.60068  0.76372  0.20928  1.0000
  H   H2663     1.0  0.57537  0.91827  0.00295  1.0000
  H   H2664     1.0  0.59424  0.81767  0.13842  1.0000
  C   C2655     1.0  0.76112  0.72293  0.20678  1.0000
  H   H2665     1.0  0.59704  0.87190  0.19892  1.0000
  H   H2666     1.0  0.61158  0.74342  0.18429  1.0000
  C   C2656     1.0  0.59419  0.84446  0.15229  1.0000
  C   C2657     1.0  0.60954  0.84611  0.14269  1.0000
  C   C2658     1.0  0.62668  0.83891  0.14547  1.0000
  C   C2659     1.0  0.62854  0.82976  0.15776  1.0000
  C   C2660     1.0  0.61317  0.82744  0.16715  1.0000
  C   C2661     1.0  0.59609  0.83500  0.16448  1.0000
  H   H2667     1.0  0.60818  0.85340  0.13326  1.0000
  H   H2668     1.0  0.63853  0.84066  0.13812  1.0000
  H   H2669     1.0  0.61437  0.82004  0.17656  1.0000
  H   H2670     1.0  0.58428  0.83352  0.17191  1.0000
  C   C2662     1.0  0.56551  0.79949  0.12305  1.0000
  C   C2663     1.0  0.56145  0.78516  0.13277  1.0000
  C   C2664     1.0  0.57520  0.77270  0.13793  1.0000
  C   C2665     1.0  0.59302  0.77441  0.13333  1.0000
  C   C2666     1.0  0.59708  0.78871  0.12356  1.0000
  C   C2667     1.0  0.58332  0.80127  0.11844  1.0000
  H   H2671     1.0  0.54769  0.78376  0.13640  1.0000
  H   H2672     1.0  0.57195  0.76172  0.14543  1.0000
  H   H2673     1.0  0.61087  0.79004  0.11990  1.0000
  H   H2674     1.0  0.58656  0.81211  0.11073  1.0000
  C   C2668     1.0  0.55133  0.93158  0.05820  1.0000
  C   C2669     1.0  0.54294  0.91957  0.06799  1.0000
  C   C2670     1.0  0.55284  0.90639  0.07602  1.0000
  C   C2671     1.0  0.57129  0.90489  0.07419  1.0000
  C   C2672     1.0  0.57981  0.91660  0.06415  1.0000
  C   C2673     1.0  0.56984  0.93000  0.05620  1.0000
  H   H2675     1.0  0.52862  0.92074  0.06961  1.0000
  H   H2676     1.0  0.54609  0.89759  0.08372  1.0000
  H   H2677     1.0  0.59409  0.91555  0.06272  1.0000
  H   H2678     1.0  0.57641  0.93931  0.04874  1.0000
  H   H2679     1.0  0.62970  0.86422  0.19780  1.0000
  H   H2680     1.0  0.51499  0.80360  0.12884  1.0000
  C   C2674     1.0  0.65596  0.85753  0.17781  1.0000
  H   H2681     1.0  0.69365  0.76016  0.18222  1.0000
  Fe  Fe439     1.0  0.65038  0.81895  0.20683  1.0000
  S   S885      1.0  0.64814  0.79151  0.21764  1.0000
  N   N224      1.0  0.60554  0.79582  0.15171  1.0000
  H   H2682     1.0  0.56173  0.74575  0.13362  1.0000
  C   C2675     1.0  0.57036  0.79514  0.16458  1.0000
  C   C2676     1.0  0.76611  0.73292  0.18377  1.0000
  H   H2683     1.0  0.66468  0.72744  0.18799  1.0000
  C   C2677     1.0  0.60861  0.76036  0.19714  1.0000
  H   H2684     1.0  0.66245  0.84708  0.17223  1.0000
  H   H2685     1.0  0.65897  0.85201  0.18739  1.0000
  C   C2678     1.0  0.64279  0.71578  0.20014  1.0000
  C   C2679     1.0  0.72334  0.72021  0.18464  1.0000
  H   H2686     1.0  0.73185  0.70513  0.20175  1.0000
  C   C2680     1.0  0.53045  0.92069  0.01148  1.0000
  C   C2681     1.0  0.65557  0.73578  0.20579  1.0000
  C   C2682     1.0  0.70173  0.74797  0.18652  1.0000
  C   C2683     1.0  0.54392  0.67449  0.14724  1.0000
  H   H2687     1.0  0.56242  0.91857  0.09805  1.0000
  Fe  Fe440     1.0  0.53763  0.98967  0.00799  1.0000
  C   C2684     1.0  0.71236  0.73570  0.17918  1.0000
  C   C2685     1.0  0.54759  0.92002  0.00375  1.0000
  C   C2686     1.0  0.52811  0.91953  0.02440  1.0000
  C   C2687     1.0  0.56216  0.91831  0.00907  1.0000
  C   C2688     1.0  0.71254  0.72890  0.20483  1.0000
  H   H2688     1.0  0.62063  0.70692  0.21412  1.0000
  H   H2689     1.0  0.63267  0.75718  0.22541  1.0000
  H   H2690     1.0  0.72505  0.76532  0.21142  1.0000
  H   H2691     1.0  0.55664  0.79490  0.16961  1.0000
  C   C2689     1.0  0.73553  0.75356  0.21022  1.0000
  Fe  Fe441     1.0  0.62892  0.79249  0.20592  1.0000
  C   C2690     1.0  0.50278  0.97172  0.01771  1.0000
  C   C2691     1.0  0.66695  0.85520  0.22814  1.0000
  H   H2692     1.0  0.50897  0.97575  0.02362  1.0000
  C   C2692     1.0  0.62415  0.79584  0.14492  1.0000
  H   H2693     1.0  0.58527  0.67853  0.14746  1.0000
  H   H2694     1.0  0.85127  0.66735  0.23269  1.0000
  C   C2693     1.0  0.51980  0.77768  0.10803  1.0000
  H   H2695     1.0  0.57409  0.93025  0.02833  1.0000
  H   H2696     1.0  0.77090  0.71077  0.20556  1.0000
  C   C2694     1.0  0.59437  0.73518  0.20224  1.0000
  C   C2695     1.0  0.61200  0.86926  0.16804  1.0000
  S   S886      1.0  0.60430  0.78099  0.21457  1.0000
  H   H2697     1.0  0.58317  0.75553  0.22705  1.0000
  C   C2696     1.0  0.55888  0.93312  0.09441  1.0000
  C   C2697     1.0  0.70206  0.74463  0.19932  1.0000
  C   C2698     1.0  0.58655  0.73865  0.21429  1.0000
  H   H2698     1.0  0.63246  0.79568  0.15149  1.0000
  C   C2699     1.0  0.52763  0.93011  0.09937  1.0000
  C   C2700     1.0  0.67929  0.82458  0.22686  1.0000
  C   C2701     1.0  0.51871  0.76183  0.11688  1.0000
  C   C2702     1.0  0.57359  0.67277  0.14984  1.0000
  S   S887      1.0  0.69036  0.76007  0.20868  1.0000
  C   C2703     1.0  0.74442  0.75089  0.19809  1.0000
  H   H2699     1.0  0.55921  0.69460  0.13784  1.0000
  H   H2700     1.0  0.55960  0.94001  0.10150  1.0000
  C   C2704     1.0  0.64363  0.74514  0.22607  1.0000
  S   S888      1.0  0.59588  0.94764  0.99470  1.0000
  H   H2701     1.0  0.76504  0.74550  0.17654  1.0000
  C   C2705     1.0  0.75237  0.72509  0.21904  1.0000
  C   C2706     1.0  0.56497  0.74711  0.12320  1.0000
  H   H2702     1.0  0.78061  0.72684  0.18323  1.0000
  H   H2703     1.0  0.66521  0.74410  0.20330  1.0000
  N   N225      1.0  0.55971  0.91726  0.02176  1.0000
  S   S889      1.0  0.74726  0.66948  0.20579  1.0000
  H   H2704     1.0  0.58795  0.91265  0.02078  1.0000
  H   H2705     1.0  0.77581  0.89401  0.23208  1.0000
  H   H2706     1.0  0.57822  0.73017  0.22107  1.0000
  H   H2707     1.0  0.71697  0.66853  0.17457  1.0000
  C   C2707     1.0  0.81980  0.69878  0.21771  1.0000
  Fe  Fe442     1.0  0.79226  0.65803  0.18289  1.0000
  H   H2708     1.0  0.50821  0.78535  0.10413  1.0000
  C   C2708     1.0  0.55054  0.77354  0.10946  1.0000
  C   C2709     1.0  0.54295  0.91792  0.02940  1.0000
  C   C2710     1.0  0.57481  0.91682  0.02708  1.0000
  C   C2711     1.0  0.51602  0.68463  0.17386  1.0000
  H   H2709     1.0  0.56283  0.77841  0.10662  1.0000
  H   H2710     1.0  0.53228  0.68159  0.14324  1.0000
  C   C2712     1.0  0.51159  0.71453  0.15442  1.0000
  C   C2713     1.0  0.65533  0.72635  0.19709  1.0000
  H   H2711     1.0  0.65738  0.86745  0.22589  1.0000
  C   C2714     1.0  0.50286  0.98102  0.00524  1.0000
  H   H2712     1.0  0.54092  0.91763  0.03939  1.0000
  N   N226      1.0  0.64365  0.73473  0.21720  1.0000
  H   H2713     1.0  0.51778  0.67301  0.18139  1.0000
  C   C2715     1.0  0.53370  0.75209  0.12188  1.0000
  C   C2716     1.0  0.53574  0.78372  0.10440  1.0000
  H   H2714     1.0  0.50977  0.72608  0.14687  1.0000
  H   H2715     1.0  0.51356  0.83030  0.13430  1.0000
  C   C2717     1.0  0.73952  0.74054  0.22074  1.0000
  H   H2716     1.0  0.75536  0.71467  0.22712  1.0000
  H   H2717     1.0  0.62121  0.72435  0.22900  1.0000
  C   C2718     1.0  0.50177  0.68813  0.16776  1.0000
  H   H2718     1.0  0.54957  0.92114  0.99365  1.0000
  H   H2719     1.0  0.73235  0.74224  0.23018  1.0000
  C   C2719     1.0  0.54347  0.65844  0.15596  1.0000
  N   N227      1.0  0.57308  0.65699  0.15834  1.0000
  C   C2720     1.0  0.69160  0.82371  0.23410  1.0000
  H   H2720     1.0  0.77211  0.92492  0.26919  1.0000
  H   H2721     1.0  0.72676  0.78334  0.27058  1.0000
  Fe  Fe443     1.0  0.50982  0.96142  0.42887  1.0000
  C   C2721     1.0  0.97543  0.79515  0.31461  1.0000
  S   S890      1.0  0.53558  0.94177  0.42444  1.0000
  H   H2722     1.0  0.72139  0.91518  0.27310  1.0000
  Fe  Fe444     1.0  0.54542  0.95345  0.43670  1.0000
  S   S891      1.0  0.56124  0.93468  0.45063  1.0000
  Fe  Fe445     1.0  0.54426  0.96387  0.40883  1.0000
  S   S892      1.0  0.55477  0.96422  0.38812  1.0000
  C   C2722     1.0  0.64081  0.91958  0.33720  1.0000
  C   C2723     1.0  0.97953  0.75084  0.33255  1.0000
  H   H2723     1.0  0.84537  0.70935  0.30104  1.0000
  Fe  Fe446     1.0  0.66594  0.95915  0.32489  1.0000
  S   S893      1.0  0.67716  0.94057  0.34106  1.0000
  S   S894      1.0  0.66964  0.95257  0.30597  1.0000
  Fe  Fe447     1.0  0.65050  0.95055  0.35300  1.0000
  S   S895      1.0  0.63690  0.93195  0.36916  1.0000
  Fe  Fe448     1.0  0.68459  0.96438  0.34322  1.0000
  H   H2724     1.0  0.97548  0.70236  0.35931  1.0000
  S   S896      1.0  0.63844  0.96731  0.33666  1.0000
  H   H2725     1.0  0.61303  0.97450  0.38467  1.0000
  C   C2724     1.0  0.78201  0.77386  0.27705  1.0000
  H   H2726     1.0  0.86923  0.73908  0.27923  1.0000
  H   H2727     1.0  0.77467  0.82221  0.23964  1.0000
  H   H2728     1.0  0.66060  0.87733  0.33552  1.0000
  C   C2725     1.0  0.90623  0.72125  0.26320  1.0000
  C   C2726     1.0  0.78200  0.79368  0.24289  1.0000
  Fe  Fe449     1.0  0.81162  0.73764  0.27058  1.0000
  S   S897      1.0  0.74200  0.86197  0.24775  1.0000
  C   C2727     1.0  0.87636  0.74921  0.27825  1.0000
  S   S898      1.0  0.83474  0.73501  0.27927  1.0000
  C   C2728     1.0  0.95469  0.84136  0.30333  1.0000
  S   S899      1.0  0.90924  0.75757  0.29690  1.0000
  H   H2729     1.0  0.75480  0.90679  0.26450  1.0000
  S   S900      1.0  0.69755  0.87308  0.29971  1.0000
  Fe  Fe450     1.0  0.89096  0.81968  0.30331  1.0000
  C   C2729     1.0  0.71844  0.95243  0.30645  1.0000
  S   S901      1.0  0.86340  0.83574  0.30131  1.0000
  Fe  Fe451     1.0  0.91274  0.79733  0.32277  1.0000
  S   S902      1.0  0.93415  0.78460  0.30843  1.0000
  S   S903      1.0  0.91705  0.79077  0.34252  1.0000
  Fe  Fe452     1.0  0.93166  0.81221  0.29658  1.0000
  S   S904      1.0  0.95815  0.82013  0.28681  1.0000
  C   C2730     1.0  0.75234  0.81023  0.25029  1.0000
  S   S905      1.0  0.91129  0.82511  0.31147  1.0000
  S   S906      1.0  0.89038  0.79306  0.31629  1.0000
  C   C2731     1.0  0.96601  0.83294  0.29378  1.0000
  S   S907      1.0  0.80251  0.92344  0.28220  1.0000
  S   S908      1.0  0.80781  0.94073  0.30424  1.0000
  Fe  Fe453     1.0  0.82367  0.93404  0.28570  1.0000
  S   S909      1.0  0.85237  0.91882  0.28425  1.0000
  Fe  Fe454     1.0  0.78602  0.93221  0.29983  1.0000
  S   S910      1.0  0.76904  0.91481  0.31418  1.0000
  S   S911      1.0  0.86005  0.68359  0.28513  1.0000
  Fe  Fe455     1.0  0.90747  0.68209  0.33755  1.0000
  S   S912      1.0  0.91197  0.67292  0.35742  1.0000
  S   S913      1.0  0.87924  0.69032  0.33446  1.0000
  Fe  Fe456     1.0  0.79266  0.95128  0.27257  1.0000
  C   C2732     1.0  0.95237  0.73655  0.31612  1.0000
  S   S914      1.0  0.71098  0.96550  0.34615  1.0000
  Fe  Fe457     1.0  0.93042  0.69186  0.35102  1.0000
  S   S915      1.0  0.93363  0.70804  0.36337  1.0000
  S   S916      1.0  0.92393  0.70271  0.33188  1.0000
  C   C2733     1.0  0.86582  0.68590  0.29855  1.0000
  C   C2734     1.0  0.87991  0.67345  0.30340  1.0000
  C   C2735     1.0  0.88474  0.67512  0.31409  1.0000
  C   C2736     1.0  0.87504  0.68890  0.32024  1.0000
  C   C2737     1.0  0.86090  0.70125  0.31543  1.0000
  C   C2738     1.0  0.85647  0.69991  0.30453  1.0000
  C   C2739     1.0  0.98320  0.74088  0.31009  1.0000
  H   H2730     1.0  0.95283  0.74660  0.33682  1.0000
  H   H2731     1.0  0.85322  0.71180  0.32025  1.0000
  S   S917      1.0  0.81537  0.96159  0.27436  1.0000
  Fe  Fe458     1.0  0.84433  0.70821  0.27444  1.0000
  H   H2732     1.0  0.94067  0.84100  0.30602  1.0000
  C   C2740     1.0  0.92758  0.73110  0.35807  1.0000
  C   C2741     1.0  0.93265  0.74218  0.36351  1.0000
  C   C2742     1.0  0.92893  0.76057  0.35893  1.0000
  C   C2743     1.0  0.92029  0.76793  0.34880  1.0000
  C   C2744     1.0  0.91499  0.75691  0.34344  1.0000
  C   C2745     1.0  0.91844  0.73853  0.34819  1.0000
  H   H2733     1.0  0.93959  0.73654  0.37121  1.0000
  H   H2734     1.0  0.93300  0.76905  0.36312  1.0000
  H   H2735     1.0  0.90808  0.76255  0.33573  1.0000
  H   H2736     1.0  0.91383  0.73021  0.34427  1.0000
  C   C2746     1.0  0.86111  0.85852  0.29489  1.0000
  C   C2747     1.0  0.87579  0.86660  0.29128  1.0000
  C   C2748     1.0  0.87311  0.88513  0.28743  1.0000
  C   C2749     1.0  0.85575  0.89560  0.28744  1.0000
  C   C2750     1.0  0.84121  0.88739  0.29079  1.0000
  C   C2751     1.0  0.84391  0.86891  0.29432  1.0000
  H   H2737     1.0  0.88914  0.85862  0.29163  1.0000
  H   H2738     1.0  0.88444  0.89140  0.28479  1.0000
  H   H2739     1.0  0.82779  0.89523  0.29108  1.0000
  H   H2740     1.0  0.83251  0.86272  0.29716  1.0000
  H   H2741     1.0  0.71341  0.92957  0.34481  1.0000
  S   S918      1.0  0.73912  0.87561  0.27337  1.0000
  H   H2742     1.0  0.52671  0.93831  0.46532  1.0000
  C   C2752     1.0  0.81203  0.91819  0.24549  1.0000
  S   S919      1.0  0.78368  0.75109  0.27878  1.0000
  H   H2743     1.0  0.82887  0.84992  0.32750  1.0000
  S   S920      1.0  0.78331  0.95788  0.25437  1.0000
  H   H2744     1.0  0.93811  0.71629  0.29496  1.0000
  H   H2745     1.0  0.97385  0.78777  0.30838  1.0000
  N   N228      1.0  0.71971  0.94240  0.29703  1.0000
  S   S921      1.0  0.91110  0.80921  0.28725  1.0000
  C   C2753     1.0  0.98536  0.69368  0.30824  1.0000
  S   S922      1.0  0.81953  0.70958  0.26783  1.0000
  C   C2754     1.0  0.76654  0.92947  0.26081  1.0000
  C   C2755     1.0  0.98827  0.69452  0.31977  1.0000
  C   C2756     1.0  0.96531  0.74639  0.32986  1.0000
  H   H2746     1.0  0.90035  0.72454  0.25497  1.0000
  H   H2747     1.0  0.73632  0.90959  0.33212  1.0000
  C   C2757     1.0  0.59236  0.98855  0.45589  1.0000
  H   H2748     1.0  0.72307  0.80689  0.26781  1.0000
  C   C2758     1.0  0.67815  0.93049  0.30423  1.0000
  C   C2759     1.0  0.67762  0.92605  0.29315  1.0000
  C   C2760     1.0  0.68407  0.90853  0.29152  1.0000
  C   C2761     1.0  0.69091  0.89533  0.30105  1.0000
  C   C2762     1.0  0.69154  0.89977  0.31212  1.0000
  C   C2763     1.0  0.68526  0.91733  0.31368  1.0000
  H   H2749     1.0  0.67214  0.93617  0.28580  1.0000
  H   H2750     1.0  0.68342  0.90517  0.28300  1.0000
  H   H2751     1.0  0.69685  0.88958  0.31950  1.0000
  H   H2752     1.0  0.68589  0.92059  0.32220  1.0000
  C   C2764     1.0  0.72798  0.95049  0.33850  1.0000
  C   C2765     1.0  0.74381  0.95565  0.33130  1.0000
  C   C2766     1.0  0.75671  0.94441  0.32411  1.0000
  C   C2767     1.0  0.75391  0.92791  0.32427  1.0000
  C   C2768     1.0  0.73843  0.92242  0.33189  1.0000
  C   C2769     1.0  0.72540  0.93378  0.33896  1.0000
  C   C2770     1.0  0.77841  0.81077  0.27181  1.0000
  H   H2753     1.0  0.76874  0.94865  0.31835  1.0000
  C   C2771     1.0  0.89578  0.76058  0.28606  1.0000
  C   C2772     1.0  0.79698  0.78131  0.27111  1.0000
  H   H2754     1.0  0.90429  0.69436  0.29232  1.0000
  C   C2773     1.0  0.82982  0.86367  0.32542  1.0000
  C   C2774     1.0  0.57747  0.95468  0.38311  1.0000
  C   C2775     1.0  0.58528  0.95810  0.37018  1.0000
  C   C2776     1.0  0.60356  0.95125  0.36588  1.0000
  C   C2777     1.0  0.61402  0.94065  0.37447  1.0000
  C   C2778     1.0  0.60614  0.93694  0.38740  1.0000
  C   C2779     1.0  0.58791  0.94415  0.39175  1.0000
  H   H2755     1.0  0.57722  0.96623  0.36348  1.0000
  H   H2756     1.0  0.60944  0.95397  0.35589  1.0000
  H   H2757     1.0  0.61419  0.92865  0.39407  1.0000
  H   H2758     1.0  0.58191  0.94141  0.40175  1.0000
  Fe  Fe459     1.0  0.71206  0.86876  0.28015  1.0000
  H   H2759     1.0  0.80988  0.77294  0.26826  1.0000
  C   C2780     1.0  0.81450  0.87720  0.32469  1.0000
  C   C2781     1.0  0.75660  0.91925  0.25821  1.0000
  H   H2760     1.0  0.80117  0.70668  0.24721  1.0000
  H   H2761     1.0  0.73318  0.91834  0.30736  1.0000
  C   C2782     1.0  0.78382  0.87847  0.24931  1.0000
  N   N229      1.0  0.97734  0.67559  0.36898  1.0000
  H   H2762     1.0  0.73416  0.90058  0.29224  1.0000
  H   H2763     1.0  0.97802  0.75453  0.34145  1.0000
  H   H2764     1.0  0.83421  0.91236  0.31658  1.0000
  H   H2765     1.0  0.70669  0.96453  0.28482  1.0000
  C   C2783     1.0  0.56834  0.94080  0.46208  1.0000
  C   C2784     1.0  0.58218  0.92882  0.46737  1.0000
  C   C2785     1.0  0.82640  0.65863  0.23914  1.0000
  S   S923      1.0  0.77418  0.95932  0.28993  1.0000
  Fe  Fe460     1.0  0.71492  0.85521  0.25643  1.0000
  H   H2766     1.0  0.76486  0.96311  0.23489  1.0000
  S   S924      1.0  0.73687  0.91308  0.24331  1.0000
  H   H2767     1.0  0.88588  0.73683  0.29545  1.0000
  H   H2768     1.0  0.75063  0.81168  0.28092  1.0000
  C   C2786     1.0  0.76354  0.80328  0.27813  1.0000
  C   C2787     1.0  0.88592  0.74788  0.28741  1.0000
  C   C2788     1.0  0.58835  0.93258  0.47665  1.0000
  C   C2789     1.0  0.98415  0.83404  0.29014  1.0000
  H   H2769     1.0  0.56014  0.97235  0.47931  1.0000
  C   C2790     1.0  0.72767  0.92476  0.29900  1.0000
  N   N230      1.0  0.91993  0.71401  0.28478  1.0000
  C   C2791     1.0  0.92470  0.72720  0.27477  1.0000
  C   C2792     1.0  0.90841  0.70444  0.28425  1.0000
  C   C2793     1.0  0.91797  0.73099  0.26382  1.0000
  C   C2794     1.0  0.90142  0.70785  0.27347  1.0000
  S   S925      1.0  0.55651  0.97380  0.42058  1.0000
  C   C2795     1.0  0.92596  0.71096  0.29655  1.0000
  H   H2770     1.0  0.93312  0.73537  0.27542  1.0000
  H   H2771     1.0  0.86654  0.90170  0.30946  1.0000
  H   H2772     1.0  0.92119  0.74191  0.25610  1.0000
  C   C2796     1.0  0.79326  0.87734  0.25840  1.0000
  H   H2773     1.0  0.92950  0.69657  0.30071  1.0000
  H   H2774     1.0  0.88634  0.78708  0.25836  1.0000
  H   H2775     1.0  0.71929  0.79711  0.25645  1.0000
  H   H2776     1.0  0.94362  0.80878  0.34817  1.0000
  N   N231      1.0  0.85197  0.77961  0.29927  1.0000
  C   C2797     1.0  0.85677  0.79566  0.29532  1.0000
  C   C2798     1.0  0.84242  0.77499  0.29268  1.0000
  C   C2799     1.0  0.85250  0.80734  0.28431  1.0000
  C   C2800     1.0  0.83806  0.78629  0.28156  1.0000
  C   C2801     1.0  0.84318  0.80254  0.27734  1.0000
  C   C2802     1.0  0.85664  0.76763  0.31087  1.0000
  H   H2777     1.0  0.86407  0.79948  0.30063  1.0000
  H   H2778     1.0  0.83854  0.76230  0.29578  1.0000
  H   H2779     1.0  0.85653  0.81998  0.28120  1.0000
  H   H2780     1.0  0.83117  0.78226  0.27608  1.0000
  H   H2781     1.0  0.84005  0.81129  0.26864  1.0000
  H   H2782     1.0  0.85605  0.75380  0.31135  1.0000
  H   H2783     1.0  0.87063  0.76727  0.31119  1.0000
  H   H2784     1.0  0.84733  0.77217  0.31927  1.0000
  Fe  Fe461     1.0  0.83429  0.72116  0.24864  1.0000
  S   S926      1.0  0.96570  0.68844  0.30733  1.0000
  S   S927      1.0  0.85981  0.71778  0.25501  1.0000
  H   H2785     1.0  0.80674  0.80545  0.26365  1.0000
  C   C2803     1.0  0.65345  0.89623  0.35341  1.0000
  C   C2804     1.0  0.71392  0.94097  0.27750  1.0000
  C   C2805     1.0  0.71310  0.95059  0.28637  1.0000
  H   H2786     1.0  0.78518  0.76529  0.24825  1.0000
  Fe  Fe462     1.0  0.74832  0.85004  0.26687  1.0000
  H   H2787     1.0  0.88714  0.66254  0.29884  1.0000
  S   S928      1.0  0.70264  0.88171  0.26199  1.0000
  H   H2788     1.0  0.98493  0.73648  0.30144  1.0000
  H   H2789     1.0  0.95040  0.67728  0.37967  1.0000
  C   C2806     1.0  0.72132  0.92286  0.27970  1.0000
  C   C2807     1.0  0.79520  0.79972  0.26853  1.0000
  C   C2808     1.0  0.97842  0.81593  0.32963  1.0000
  C   C2809     1.0  0.50442  0.93232  0.46123  1.0000
  S   S929      1.0  0.51761  0.98253  0.41232  1.0000
  S   S930      1.0  0.82477  0.74937  0.25089  1.0000
  H   H2790     1.0  0.64098  0.89824  0.36083  1.0000
  C   C2810     1.0  0.63694  0.92598  0.32515  1.0000
  N   N232      1.0  0.84800  0.88530  0.31972  1.0000
  H   H2791     1.0  0.59972  0.98288  0.47386  1.0000
  H   H2792     1.0  0.87660  0.87886  0.31399  1.0000
  C   C2811     1.0  0.76964  0.94529  0.25235  1.0000
  C   C2812     1.0  0.96152  0.85028  0.30946  1.0000
  H   H2793     1.0  0.95269  0.85655  0.31695  1.0000
  H   H2794     1.0  0.50975  0.93447  0.45111  1.0000
  C   C2813     1.0  0.72842  0.91469  0.29044  1.0000
  C   C2814     1.0  0.81606  0.89480  0.32166  1.0000
  N   N233      1.0  0.80210  0.90461  0.24684  1.0000
  C   C2815     1.0  0.56634  0.96023  0.47597  1.0000
  C   C2816     1.0  0.80244  0.89059  0.25699  1.0000
  H   H2795     1.0  0.80053  0.65737  0.26876  1.0000
  H   H2796     1.0  0.81006  0.92177  0.25472  1.0000
  H   H2797     1.0  0.95147  0.74160  0.30604  1.0000
  H   H2798     1.0  0.59264  0.97483  0.45625  1.0000
  C   C2817     1.0  0.99773  0.74519  0.31248  1.0000
  N   N234      1.0  0.84014  0.66783  0.25214  1.0000
  H   H2799     1.0  0.64154  0.73730  0.23593  1.0000
  H   H2800     1.0  0.70844  0.94738  0.26914  1.0000
  H   H2801     1.0  0.89558  0.66545  0.31777  1.0000
  C   C2818     1.0  0.99106  0.84282  0.29638  1.0000
  C   C2819     1.0  0.99201  0.79893  0.31346  1.0000
  C   C2820     1.0  0.99357  0.80931  0.32105  1.0000
  H   H2802     1.0  0.77821  0.69289  0.24478  1.0000
  S   S931      1.0  0.70753  0.83634  0.24763  1.0000
  C   C2821     1.0  0.77011  0.80992  0.24373  1.0000
  S   S932      1.0  0.77633  0.83385  0.26735  1.0000
  H   H2803     1.0  0.96667  0.69941  0.37605  1.0000
  C   C2822     1.0  0.96062  0.80181  0.32340  1.0000
  C   C2823     1.0  0.64970  0.89683  0.32076  1.0000
  H   H2804     1.0  0.86796  0.65846  0.35945  1.0000
  C   C2824     1.0  0.60283  0.98479  0.38058  1.0000
  H   H2805     1.0  0.85890  0.68454  0.24556  1.0000
  H   H2806     1.0  0.66252  0.90401  0.35429  1.0000
  Fe  Fe463     1.0  0.94684  0.68126  0.32588  1.0000
  C   C2825     1.0  0.74927  0.92515  0.24736  1.0000
  C   C2826     1.0  0.81181  0.65918  0.26088  1.0000
  N   N235      1.0  0.96218  0.81228  0.33062  1.0000
  C   C2827     1.0  0.87661  0.76325  0.26768  1.0000
  Fe  Fe464     1.0  0.84865  0.74468  0.25942  1.0000
  H   H2807     1.0  0.70980  0.96590  0.30457  1.0000
  H   H2808     1.0  0.85843  0.85736  0.32327  1.0000
  H   H2809     1.0  0.61887  0.98738  0.36162  1.0000
  Fe  Fe465     1.0  0.91162  0.78286  0.30071  1.0000
  Fe  Fe466     1.0  0.79763  0.96739  0.29275  1.0000
  Fe  Fe467     1.0  0.73059  0.88701  0.25501  1.0000
  H   H2810     1.0  0.65381  0.88794  0.31424  1.0000
  C   C2828     1.0  0.76536  0.78484  0.28080  1.0000
  S   S933      1.0  0.72208  0.84185  0.27538  1.0000
  H   H2811     1.0  0.75378  0.77911  0.28552  1.0000
  S   S934      1.0  0.98818  0.85985  0.31540  1.0000
  C   C2829     1.0  0.80275  0.70245  0.23856  1.0000
  C   C2830     1.0  0.75814  0.77882  0.25510  1.0000
  C   C2831     1.0  0.97978  0.85072  0.30621  1.0000
  H   H2812     1.0  0.70108  0.81142  0.23640  1.0000
  S   S935      1.0  0.95470  0.67177  0.34460  1.0000
  C   C2832     1.0  0.82616  0.66501  0.26219  1.0000
  C   C2833     1.0  0.56037  0.95661  0.46636  1.0000
  C   C2834     1.0  0.86558  0.88970  0.31720  1.0000
  C   C2835     1.0  0.84655  0.86798  0.32300  1.0000
  C   C2836     1.0  0.83302  0.89864  0.31919  1.0000
  S   S936      1.0  0.92986  0.66132  0.32980  1.0000
  H   H2813     1.0  0.99598  0.69688  0.28819  1.0000
  S   S937      1.0  0.86531  0.76490  0.25579  1.0000
  C   C2837     1.0  0.99818  0.69745  0.29713  1.0000
  H   H2814     1.0  0.94808  0.83088  0.34235  1.0000
  H   H2815     1.0  0.99053  0.69465  0.37021  1.0000
  H   H2816     1.0  0.94771  0.79910  0.32412  1.0000
  S   S938      1.0  0.67557  0.98236  0.32602  1.0000
  S   S939      1.0  0.65908  0.97261  0.35672  1.0000
  C   C2838     1.0  0.72805  0.79546  0.26307  1.0000
  H   H2817     1.0  0.66017  0.88200  0.35530  1.0000
  H   H2818     1.0  0.75380  0.76655  0.25986  1.0000
  C   C2839     1.0  0.76250  0.95095  0.24150  1.0000
  Fe  Fe468     1.0  0.64921  0.98877  0.33938  1.0000
  H   H2819     1.0  0.79329  0.86628  0.26650  1.0000
  C   C2840     1.0  0.94632  0.81930  0.33959  1.0000
  C   C2841     1.0  0.85530  0.67362  0.25362  1.0000
  H   H2820     1.0  0.80143  0.87415  0.32634  1.0000
  H   H2821     1.0  0.91516  0.71756  0.30348  1.0000
  H   H2822     1.0  0.86770  0.89218  0.32586  1.0000
  S   S940      1.0  0.51888  0.97122  0.44246  1.0000
  H   H2823     1.0  0.63900  0.91942  0.30739  1.0000
  C   C2842     1.0  0.89563  0.77487  0.27568  1.0000
  N   N236      1.0  0.64915  0.90230  0.34084  1.0000
  H   H2824     1.0  0.63731  0.92853  0.34359  1.0000
  H   H2825     1.0  0.85207  0.67874  0.26239  1.0000
  C   C2843     1.0  0.88613  0.77615  0.26649  1.0000
  H   H2826     1.0  0.77648  0.86841  0.25038  1.0000
  H   H2827     1.0  0.74591  0.96851  0.33097  1.0000
  H   H2828     1.0  0.58833  0.91656  0.46418  1.0000
  H   H2829     1.0  0.71230  0.94556  0.31599  1.0000
  N   N237      1.0  0.96718  0.74172  0.31867  1.0000
  H   H2830     1.0  0.73202  0.95366  0.30652  1.0000
  H   H2831     1.0  0.90330  0.78466  0.27450  1.0000
  H   H2832     1.0  0.93920  0.74205  0.32184  1.0000
  N   N238      1.0  0.74667  0.79480  0.25608  1.0000
  H   H2833     1.0  0.80968  0.88971  0.26412  1.0000
  C   C2844     1.0  0.64141  0.91450  0.31690  1.0000
  H   H2834     1.0  0.82595  0.66748  0.27125  1.0000
  H   H2835     1.0  0.97835  0.69201  0.32834  1.0000
  H   H2836     1.0  0.63098  0.93987  0.32209  1.0000
  H   H2837     1.0  0.80419  0.90537  0.32108  1.0000
  C   C2845     1.0  0.97754  0.69390  0.36863  1.0000
  H   H2838     1.0  0.74323  0.82288  0.25101  1.0000
  H   H2839     1.0  0.97966  0.82455  0.33513  1.0000
  C   C2846     1.0  0.99203  0.66541  0.36270  1.0000
  C   C2847     1.0  0.75227  0.94104  0.23908  1.0000
  C   C2848     1.0  0.58051  0.94821  0.48104  1.0000
  C   C2849     1.0  0.65362  0.89094  0.33280  1.0000
  C   C2850     1.0  0.77596  0.77802  0.24851  1.0000
  N   N239      1.0  0.50731  0.93158  0.48208  1.0000
  H   H2840     1.0  0.95446  0.72190  0.31836  1.0000
  H   H2841     1.0  0.59926  0.92323  0.48049  1.0000
  C   C2851     1.0  0.96224  0.66907  0.37498  1.0000
  H   H2842     1.0  0.89193  0.70049  0.27325  1.0000
  H   H2843     1.0  0.54955  0.96591  0.46239  1.0000
  H   H2844     1.0  0.93434  0.82381  0.33528  1.0000
  C   C2852     1.0  0.99582  0.75025  0.32377  1.0000
  C   C2853     1.0  0.78975  0.69465  0.23714  1.0000
  C   C2854     1.0  0.51398  0.93437  0.46931  1.0000
  H   H2845     1.0  0.67922  0.86587  0.23861  1.0000
  H   H2846     1.0  0.58352  0.98453  0.39812  1.0000
  C   C2855     1.0  0.84042  0.66467  0.24073  1.0000
  C   C2856     1.0  0.69171  0.83855  0.23841  1.0000
  H   H2847     1.0  0.80715  0.93069  0.23896  1.0000
  H   H2848     1.0  0.82657  0.91332  0.24188  1.0000
  H   H2849     1.0  0.99296  0.82775  0.28266  1.0000
  C   C2857     1.0  0.67933  0.85435  0.23536  1.0000
  H   H2850     1.0  0.86710  0.66240  0.25405  1.0000
  C   C2858     1.0  0.79300  0.90572  0.23782  1.0000
  H   H2851     1.0  0.79595  0.79320  0.23816  1.0000
  C   C2859     1.0  0.78366  0.89272  0.23895  1.0000
  H   H2852     1.0  0.99669  0.70338  0.62130  1.0000
  C   C2860     1.0  0.51133  0.97076  0.51526  1.0000
  H   H2853     1.0  0.76355  0.96354  0.57576  1.0000
  H   H2854     1.0  0.51362  0.94909  0.49043  1.0000
  H   H2855     1.0  0.59051  0.94105  0.51920  1.0000
  C   C2861     1.0  0.97270  0.89410  0.58739  1.0000
  C   C2862     1.0  0.97661  0.66701  0.55458  1.0000
  S   S941      1.0  0.55645  0.97196  0.52068  1.0000
  C   C2863     1.0  0.60103  0.98020  0.56000  1.0000
  C   C2864     1.0  0.73587  0.96901  0.60916  1.0000
  C   C2865     1.0  0.81075  0.67988  0.70854  1.0000
  Fe  Fe469     1.0  0.57591  0.97498  0.50195  1.0000
  C   C2866     1.0  0.95697  0.74216  0.61290  1.0000
  S   S942      1.0  0.65388  0.98194  0.55274  1.0000
  C   C2867     1.0  0.51712  0.93477  0.49027  1.0000
  C   C2868     1.0  0.88329  0.70775  0.65307  1.0000
  C   C2869     1.0  0.61206  0.98575  0.53736  1.0000
  Fe  Fe470     1.0  0.93895  0.67657  0.58632  1.0000
  S   S943      1.0  0.95749  0.67164  0.59949  1.0000
  H   H2856     1.0  0.87920  0.71386  0.66115  1.0000
  Fe  Fe471     1.0  0.92986  0.71638  0.58528  1.0000
  S   S944      1.0  0.94803  0.71389  0.59797  1.0000
  S   S945      1.0  0.91484  0.74461  0.58042  1.0000
  Fe  Fe472     1.0  0.96734  0.69511  0.58667  1.0000
  Fe  Fe473     1.0  0.93625  0.69084  0.60955  1.0000
  C   C2870     1.0  0.97772  0.87740  0.58451  1.0000
  S   S946      1.0  0.95023  0.69926  0.57279  1.0000
  S   S947      1.0  0.91666  0.69420  0.59759  1.0000
  H   H2857     1.0  0.91965  0.77331  0.62059  1.0000
  Fe  Fe474     1.0  0.57180  0.98740  0.52618  1.0000
  N   N240      1.0  0.74535  0.94886  0.65703  1.0000
  S   S948      1.0  0.66115  0.94290  0.61481  1.0000
  S   S949      1.0  0.68202  0.95943  0.57961  1.0000
  Fe  Fe475     1.0  0.83094  0.77278  0.66346  1.0000
  S   S950      1.0  0.83792  0.77101  0.68178  1.0000
  S   S951      1.0  0.82179  0.79983  0.65194  1.0000
  Fe  Fe476     1.0  0.84398  0.73315  0.66495  1.0000
  S   S952      1.0  0.85257  0.72799  0.68327  1.0000
  S   S953      1.0  0.84750  0.71279  0.65382  1.0000
  Fe  Fe477     1.0  0.82636  0.74680  0.68870  1.0000
  S   S954      1.0  0.80534  0.74470  0.70671  1.0000
  Fe  Fe478     1.0  0.86331  0.75273  0.67458  1.0000
  S   S955      1.0  0.89035  0.75759  0.67323  1.0000
  S   S956      1.0  0.81697  0.75012  0.67095  1.0000
  S   S957      1.0  0.85707  0.75600  0.65576  1.0000
  Fe  Fe479     1.0  0.83227  0.93567  0.60565  1.0000
  S   S958      1.0  0.84687  0.91519  0.59401  1.0000
  Fe  Fe480     1.0  0.82194  0.93889  0.63285  1.0000
  S   S959      1.0  0.82584  0.92417  0.65229  1.0000
  S   S960      1.0  0.81132  0.92607  0.62208  1.0000
  Fe  Fe481     1.0  0.95865  0.82414  0.61357  1.0000
  S   S961      1.0  0.96458  0.83555  0.59281  1.0000
  Fe  Fe482     1.0  0.92116  0.82204  0.61352  1.0000
  S   S962      1.0  0.92399  0.83325  0.59276  1.0000
  S   S963      1.0  0.89448  0.81575  0.62335  1.0000
  Fe  Fe483     1.0  0.95122  0.81514  0.59130  1.0000
  S   S964      1.0  0.96419  0.79571  0.57863  1.0000
  Fe  Fe484     1.0  0.93669  0.85247  0.59659  1.0000
  S   S965      1.0  0.93001  0.88225  0.59059  1.0000
  S   S966      1.0  0.94736  0.80245  0.61186  1.0000
  S   S967      1.0  0.93185  0.84245  0.61758  1.0000
  Fe  Fe485     1.0  0.70732  0.87446  0.69244  1.0000
  S   S968      1.0  0.70354  0.87380  0.67348  1.0000
  Fe  Fe486     1.0  0.74659  0.87715  0.68228  1.0000
  S   S969      1.0  0.74608  0.87680  0.66265  1.0000
  S   S970      1.0  0.77153  0.87731  0.68803  1.0000
  Fe  Fe487     1.0  0.71917  0.89529  0.66599  1.0000
  S   S971      1.0  0.71527  0.92091  0.65166  1.0000
  Fe  Fe488     1.0  0.73080  0.85534  0.67198  1.0000
  S   S972      1.0  0.73804  0.82927  0.66608  1.0000
  S   S973      1.0  0.72098  0.89739  0.68504  1.0000
  S   S974      1.0  0.73318  0.85429  0.69158  1.0000
  H   H2858     1.0  0.94808  0.76962  0.60457  1.0000
  S   S975      1.0  0.68544  0.87528  0.71007  1.0000
  S   S976      1.0  0.99670  0.69507  0.57968  1.0000
  C   C2871     1.0  0.68022  0.85488  0.71872  1.0000
  C   C2872     1.0  0.68974  0.83906  0.71499  1.0000
  S   S977      1.0  0.81361  0.96137  0.59929  1.0000
  H   H2859     1.0  0.60509  0.94206  0.55296  1.0000
  H   H2860     1.0  0.69954  0.83936  0.70615  1.0000
  H   H2861     1.0  0.89941  0.73922  0.63844  1.0000
  C   C2873     1.0  0.81075  0.91071  0.66157  1.0000
  C   C2874     1.0  0.81301  0.90183  0.67375  1.0000
  C   C2875     1.0  0.80109  0.89136  0.68162  1.0000
  C   C2876     1.0  0.78674  0.88966  0.67740  1.0000
  C   C2877     1.0  0.78463  0.89816  0.66508  1.0000
  C   C2878     1.0  0.79664  0.90871  0.65717  1.0000
  H   H2862     1.0  0.82392  0.90321  0.67720  1.0000
  H   H2863     1.0  0.80283  0.88478  0.69110  1.0000
  H   H2864     1.0  0.77354  0.89699  0.66176  1.0000
  H   H2865     1.0  0.79463  0.91563  0.64783  1.0000
  C   C2879     1.0  0.86989  0.90618  0.59353  1.0000
  C   C2880     1.0  0.88104  0.91568  0.59533  1.0000
  C   C2881     1.0  0.89950  0.90830  0.59441  1.0000
  C   C2882     1.0  0.90677  0.89121  0.59205  1.0000
  C   C2883     1.0  0.89549  0.88158  0.59062  1.0000
  C   C2884     1.0  0.87718  0.88914  0.59117  1.0000
  H   H2866     1.0  0.87555  0.92890  0.59705  1.0000
  H   H2867     1.0  0.90815  0.91585  0.59550  1.0000
  H   H2868     1.0  0.90096  0.86853  0.58862  1.0000
  H   H2869     1.0  0.86864  0.88178  0.58969  1.0000
  C   C2885     1.0  0.79848  0.80785  0.65551  1.0000
  C   C2886     1.0  0.78678  0.79623  0.66074  1.0000
  C   C2887     1.0  0.76817  0.80290  0.66350  1.0000
  C   C2888     1.0  0.76123  0.82120  0.66135  1.0000
  C   C2889     1.0  0.77295  0.83278  0.65609  1.0000
  C   C2890     1.0  0.79151  0.82612  0.65305  1.0000
  H   H2870     1.0  0.79203  0.78212  0.66242  1.0000
  H   H2871     1.0  0.75915  0.79388  0.66748  1.0000
  H   H2872     1.0  0.76773  0.84687  0.65413  1.0000
  H   H2873     1.0  0.80047  0.83516  0.64889  1.0000
  C   C2891     1.0  0.80952  0.72554  0.71848  1.0000
  S   S978      1.0  0.93004  0.68925  0.63050  1.0000
  H   H2874     1.0  0.93333  0.71910  0.63889  1.0000
  C   C2892     1.0  0.77294  0.94732  0.66268  1.0000
  H   H2875     1.0  0.78367  0.73236  0.73067  1.0000
  C   C2893     1.0  0.82552  0.71278  0.71687  1.0000
  C   C2894     1.0  0.72729  0.97292  0.59913  1.0000
  H   H2876     1.0  0.83606  0.71508  0.70863  1.0000
  C   C2895     1.0  0.89206  0.77631  0.66092  1.0000
  C   C2896     1.0  0.87644  0.78696  0.65721  1.0000
  C   C2897     1.0  0.87738  0.79952  0.64588  1.0000
  C   C2898     1.0  0.89401  0.80188  0.63830  1.0000
  C   C2899     1.0  0.90978  0.79226  0.64238  1.0000
  C   C2900     1.0  0.90881  0.77937  0.65373  1.0000
  H   H2877     1.0  0.86349  0.78523  0.66286  1.0000
  H   H2878     1.0  0.86513  0.80712  0.64290  1.0000
  H   H2879     1.0  0.92269  0.79428  0.63663  1.0000
  H   H2880     1.0  0.92096  0.77126  0.65661  1.0000
  C   C2901     1.0  0.67581  0.93687  0.62538  1.0000
  C   C2902     1.0  0.68909  0.94622  0.62356  1.0000
  C   C2903     1.0  0.70076  0.94129  0.63187  1.0000
  C   C2904     1.0  0.69956  0.92672  0.64200  1.0000
  C   C2905     1.0  0.68647  0.91707  0.64384  1.0000
  C   C2906     1.0  0.67455  0.92222  0.63555  1.0000
  H   H2881     1.0  0.69059  0.95717  0.61571  1.0000
  H   H2882     1.0  0.71098  0.94865  0.63032  1.0000
  H   H2883     1.0  0.68545  0.90577  0.65164  1.0000
  H   H2884     1.0  0.66435  0.91483  0.63703  1.0000
  C   C2907     1.0  0.99644  0.69959  0.60307  1.0000
  Fe  Fe489     1.0  0.66199  0.98170  0.57069  1.0000
  C   C2908     1.0  0.93651  0.73029  0.63144  1.0000
  C   C2909     1.0  0.60053  0.94127  0.52406  1.0000
  C   C2910     1.0  0.90707  0.69459  0.63736  1.0000
  C   C2911     1.0  0.89416  0.69193  0.63214  1.0000
  C   C2912     1.0  0.87583  0.69700  0.63747  1.0000
  C   C2913     1.0  0.87039  0.70523  0.64779  1.0000
  C   C2914     1.0  0.66734  0.85436  0.73010  1.0000
  H   H2885     1.0  0.99940  0.77231  0.57227  1.0000
  H   H2886     1.0  0.89830  0.68570  0.62412  1.0000
  H   H2887     1.0  0.86588  0.69483  0.63346  1.0000
  H   H2888     1.0  0.96813  0.87232  0.58198  1.0000
  C   C2915     1.0  0.63086  0.94192  0.52380  1.0000
  C   C2916     1.0  0.92851  0.75932  0.57906  1.0000
  C   C2917     1.0  0.94721  0.75385  0.57624  1.0000
  C   C2918     1.0  0.95804  0.76527  0.57579  1.0000
  C   C2919     1.0  0.95027  0.78208  0.57848  1.0000
  C   C2920     1.0  0.93156  0.78759  0.58132  1.0000
  C   C2921     1.0  0.92072  0.77638  0.58131  1.0000
  H   H2889     1.0  0.95337  0.74089  0.57417  1.0000
  H   H2890     1.0  0.97246  0.76096  0.57345  1.0000
  H   H2891     1.0  0.92546  0.80064  0.58321  1.0000
  H   H2892     1.0  0.90629  0.78090  0.58314  1.0000
  H   H2893     1.0  0.64452  0.94212  0.51858  1.0000
  H   H2894     1.0  0.74824  0.92045  0.68517  1.0000
  S   S979      1.0  0.72620  0.97633  0.57441  1.0000
  C   C2922     1.0  0.63994  0.94162  0.54302  1.0000
  H   H2895     1.0  0.58210  0.94171  0.54209  1.0000
  H   H2896     1.0  0.79820  0.72006  0.69058  1.0000
  C   C2923     1.0  0.63194  0.98321  0.55124  1.0000
  H   H2897     1.0  0.77034  0.69524  0.72654  1.0000
  H   H2898     1.0  0.53188  0.93074  0.48682  1.0000
  N   N241      1.0  0.62617  0.94203  0.53642  1.0000
  C   C2924     1.0  0.61788  0.98053  0.56173  1.0000
  Fe  Fe490     1.0  0.66516  0.96574  0.59806  1.0000
  C   C2925     1.0  0.79748  0.70855  0.69828  1.0000
  C   C2926     1.0  0.77990  0.83033  0.68590  1.0000
  H   H2899     1.0  0.62170  0.94166  0.50737  1.0000
  H   H2900     1.0  0.72805  0.97073  0.61842  1.0000
  H   H2901     1.0  0.83218  0.88905  0.64535  1.0000
  C   C2927     1.0  0.50298  0.95700  0.51628  1.0000
  N   N242      1.0  0.81136  0.69401  0.69849  1.0000
  C   C2928     1.0  0.68678  0.82278  0.72282  1.0000
  Fe  Fe491     1.0  0.69593  0.98028  0.57953  1.0000
  H   H2902     1.0  0.98137  0.91366  0.59275  1.0000
  H   H2903     1.0  0.87246  0.86678  0.61684  1.0000
  C   C2929     1.0  0.82733  0.69364  0.68816  1.0000
  H   H2904     1.0  0.83008  0.68170  0.68420  1.0000
  H   H2905     1.0  0.98307  0.69702  0.60601  1.0000
  C   C2930     1.0  0.79702  0.82775  0.68803  1.0000
  H   H2906     1.0  0.52457  0.96765  0.51712  1.0000
  H   H2907     1.0  0.64795  0.92793  0.54524  1.0000
  S   S980      1.0  0.58949  0.95209  0.49253  1.0000
  H   H2908     1.0  0.77299  0.84346  0.68190  1.0000
  C   C2931     1.0  0.75581  0.96509  0.58508  1.0000
  H   H2909     1.0  0.81932  0.80852  0.69459  1.0000
  C   C2932     1.0  0.76450  0.96096  0.59521  1.0000
  C   C2933     1.0  0.75443  0.96299  0.60725  1.0000
  S   S981      1.0  0.84431  0.94692  0.61677  1.0000
  H   H2910     1.0  0.72819  0.93253  0.66991  1.0000
  C   C2934     1.0  0.94494  0.75853  0.61215  1.0000
  C   C2935     1.0  0.98515  0.90070  0.59044  1.0000
  C   C2936     1.0  0.83167  0.86273  0.64472  1.0000
  H   H2911     1.0  0.80330  0.83896  0.68585  1.0000
  C   C2937     1.0  0.76146  0.95374  0.65419  1.0000
  H   H2912     1.0  0.71927  0.95627  0.65278  1.0000
  C   C2938     1.0  0.73361  0.95555  0.64795  1.0000
  H   H2913     1.0  0.85846  0.90179  0.63481  1.0000
  H   H2914     1.0  0.63389  0.94633  0.55199  1.0000
  C   C2939     1.0  0.50224  0.98840  0.51232  1.0000
  H   H2915     1.0  0.89916  0.76171  0.63820  1.0000
  H   H2916     1.0  0.95912  0.90182  0.58728  1.0000
  H   H2917     1.0  0.98940  0.89441  0.65534  1.0000
  H   H2918     1.0  0.83634  0.98943  0.62855  1.0000
  C   C2940     1.0  0.97620  0.65933  0.54495  1.0000
  H   H2919     1.0  0.64905  0.95053  0.53715  1.0000
  C   C2941     1.0  0.73710  0.97105  0.58706  1.0000
  C   C2942     1.0  0.98988  0.67634  0.55278  1.0000
  H   H2920     1.0  0.82571  0.70534  0.68023  1.0000
  C   C2943     1.0  0.83978  0.84864  0.63864  1.0000
  C   C2944     1.0  0.59811  0.98268  0.54781  1.0000
  N   N243      1.0  0.87801  0.75204  0.61537  1.0000
  C   C2945     1.0  0.86198  0.75740  0.62322  1.0000
  C   C2946     1.0  0.88950  0.76327  0.60983  1.0000
  C   C2947     1.0  0.85700  0.77457  0.62546  1.0000
  C   C2948     1.0  0.88500  0.78048  0.61195  1.0000
  C   C2949     1.0  0.86865  0.78611  0.61984  1.0000
  C   C2950     1.0  0.88319  0.73419  0.61283  1.0000
  H   H2921     1.0  0.85299  0.74838  0.62785  1.0000
  H   H2922     1.0  0.90221  0.75888  0.60369  1.0000
  H   H2923     1.0  0.84427  0.77888  0.63167  1.0000
  H   H2924     1.0  0.89406  0.78947  0.60747  1.0000
  H   H2925     1.0  0.86504  0.79938  0.62164  1.0000
  H   H2926     1.0  0.88621  0.73492  0.60246  1.0000
  H   H2927     1.0  0.89537  0.72660  0.61650  1.0000
  H   H2928     1.0  0.87237  0.72669  0.61727  1.0000
  C   C2951     1.0  0.79607  0.72254  0.72934  1.0000
  C   C2952     1.0  0.79589  0.67999  0.71869  1.0000
  H   H2929     1.0  0.98418  0.87154  0.64577  1.0000
  H   H2930     1.0  0.96190  0.71507  0.62331  1.0000
  H   H2931     1.0  0.85221  0.90531  0.61992  1.0000
  Fe  Fe492     1.0  0.82390  0.97208  0.61182  1.0000
  C   C2953     1.0  0.60895  0.94169  0.54300  1.0000
  S   S982      1.0  0.57716  0.98119  0.54593  1.0000
  H   H2932     1.0  0.73718  0.94648  0.64133  1.0000
  C   C2954     1.0  0.99094  0.83544  0.62157  1.0000
  H   H2933     1.0  0.63971  0.98801  0.53093  1.0000
  C   C2955     1.0  0.85993  0.89570  0.62671  1.0000
  H   H2934     1.0  0.84011  0.68691  0.72455  1.0000
  H   H2935     1.0  0.71309  0.97764  0.60083  1.0000
  H   H2936     1.0  0.82200  0.66860  0.70892  1.0000
  H   H2937     1.0  0.78063  0.77508  0.68941  1.0000
  H   H2938     1.0  0.87437  0.89327  0.62194  1.0000
  S   S983      1.0  0.80298  0.96509  0.62909  1.0000
  S   S984      1.0  0.76422  0.95798  0.62029  1.0000
  N   N244      1.0  0.92466  0.74631  0.63055  1.0000
  H   H2939     1.0  0.83469  0.83655  0.64172  1.0000
  C   C2956     1.0  0.75180  0.93021  0.67664  1.0000
  H   H2940     1.0  0.77699  0.93009  0.68052  1.0000
  C   C2957     1.0  0.83857  0.87810  0.64066  1.0000
  S   S985      1.0  0.59286  0.98772  0.50826  1.0000
  H   H2941     1.0  0.77254  0.77627  0.70584  1.0000
  H   H2942     1.0  0.92459  0.67038  0.56068  1.0000
  C   C2958     1.0  0.90158  0.70206  0.64805  1.0000
  H   H2943     1.0  0.78590  0.95089  0.66030  1.0000
  C   C2959     1.0  0.71520  0.84453  0.73335  1.0000
  C   C2960     1.0  0.76795  0.93561  0.67403  1.0000
  C   C2961     1.0  0.98082  0.85283  0.61994  1.0000
  C   C2962     1.0  0.85446  0.85018  0.62852  1.0000
  H   H2944     1.0  0.96939  0.74041  0.60585  1.0000
  H   H2945     1.0  0.76558  0.96249  0.64525  1.0000
  C   C2963     1.0  0.95281  0.72797  0.62267  1.0000
  H   H2946     1.0  0.86075  0.83940  0.62364  1.0000
  H   H2947     1.0  0.69428  0.81055  0.71997  1.0000
  N   N245      1.0  0.85324  0.87931  0.63093  1.0000
  H   H2948     1.0  0.98066  0.88021  0.61839  1.0000
  C   C2964     1.0  0.86104  0.86571  0.62474  1.0000
  C   C2965     1.0  0.74061  0.93697  0.66795  1.0000
  H   H2949     1.0  0.77890  0.95617  0.59372  1.0000
  H   H2950     1.0  0.62012  0.97825  0.57116  1.0000
  C   C2966     1.0  0.90730  0.74795  0.63954  1.0000
  H   H2951     1.0  0.90934  0.74405  0.64941  1.0000
  C   C2967     1.0  0.59586  0.94143  0.53691  1.0000
  S   S986      1.0  0.98111  0.81752  0.62374  1.0000
  C   C2968     1.0  0.92880  0.76045  0.62117  1.0000
  H   H2952     1.0  0.82011  0.86182  0.65251  1.0000
  Fe  Fe493     1.0  0.79407  0.95283  0.61693  1.0000
  N   N246      1.0  0.72308  0.91915  0.60808  1.0000
  C   C2969     1.0  0.71771  0.90550  0.61741  1.0000
  C   C2970     1.0  0.73826  0.92437  0.60773  1.0000
  C   C2971     1.0  0.72732  0.89711  0.62695  1.0000
  C   C2972     1.0  0.74800  0.91653  0.61723  1.0000
  C   C2973     1.0  0.74244  0.90283  0.62690  1.0000
  C   C2974     1.0  0.71294  0.92791  0.59813  1.0000
  H   H2953     1.0  0.70560  0.90140  0.61776  1.0000
  H   H2954     1.0  0.74276  0.93483  0.60016  1.0000
  H   H2955     1.0  0.72266  0.88675  0.63462  1.0000
  H   H2956     1.0  0.75963  0.92122  0.61716  1.0000
  H   H2957     1.0  0.74959  0.89691  0.63451  1.0000
  H   H2958     1.0  0.71915  0.92211  0.58965  1.0000
  H   H2959     1.0  0.69869  0.92663  0.60139  1.0000
  H   H2960     1.0  0.71270  0.94235  0.59541  1.0000
  N   N247      1.0  0.78073  0.79920  0.69353  1.0000
  C   C2975     1.0  0.79749  0.79654  0.69572  1.0000
  C   C2976     1.0  0.77264  0.78392  0.69598  1.0000
  H   H2961     1.0  0.80443  0.78333  0.69957  1.0000
  C   C2977     1.0  0.98868  0.86684  0.61924  1.0000
  H   H2962     1.0  0.75862  0.78793  0.69459  1.0000
  H   H2963     1.0  0.75853  0.81803  0.68706  1.0000
  C   C2978     1.0  0.80592  0.81074  0.69298  1.0000
  C   C2979     1.0  0.99504  0.86728  0.58501  1.0000
  C   C2980     1.0  0.77184  0.81585  0.68880  1.0000
  H   H2964     1.0  0.96680  0.85540  0.61963  1.0000
  H   H2965     1.0  0.99223  0.65981  0.51456  1.0000
  H   H2966     1.0  0.51364  0.92718  0.50013  1.0000
  H   H2967     1.0  0.73504  0.96897  0.64235  1.0000
  C   C2981     1.0  0.61810  0.94159  0.51742  1.0000
  H   H2968     1.0  0.91145  0.70365  0.65241  1.0000
  C   C2982     1.0  0.78240  0.70910  0.70826  1.0000
  C   C2983     1.0  0.99462  0.86247  0.65033  1.0000
  H   H2969     1.0  0.59031  0.97779  0.56816  1.0000
  H   H2970     1.0  0.61001  0.98779  0.52793  1.0000
  H   H2971     1.0  0.79574  0.66906  0.72687  1.0000
  C   C2984     1.0  0.78164  0.69471  0.71851  1.0000
  H   H2972     1.0  0.50989  0.94338  0.51893  1.0000
  H   H2973     1.0  0.92117  0.66106  0.54225  1.0000
  H   H2974     1.0  0.98785  0.83930  0.64819  1.0000
  H   H2975     1.0  0.69739  0.87823  0.73204  1.0000
  C   C2985     1.0  0.82784  0.69685  0.72592  1.0000
  H   H2976     1.0  0.99871  0.85418  0.58294  1.0000
  H   H2977     1.0  0.71522  0.85324  0.72378  1.0000
  H   H2978     1.0  0.99037  0.68229  0.56022  1.0000
  H   H2979     1.0  0.83916  0.69353  0.69168  1.0000
  S   S987      1.0  0.68001  0.98548  0.59834  1.0000
  H   H2980     1.0  0.71398  0.83139  0.73265  1.0000
  N   N248      1.0  0.98873  0.66082  0.53383  1.0000
  H   H2981     1.0  0.96688  0.66545  0.56346  1.0000
  H   H2982     1.0  0.77175  0.72090  0.70827  1.0000
  C   C2986     1.0  0.62888  0.98595  0.53908  1.0000
  H   H2983     1.0  0.65979  0.86658  0.73294  1.0000
  H   H2984     1.0  0.50376  0.96713  0.54651  1.0000
  C   C2987     1.0  0.99668  0.84425  0.65162  1.0000
  S   S988      1.0  0.64379  0.98655  0.58918  1.0000
  C   C2988     1.0  0.67442  0.82226  0.73444  1.0000
  Fe  Fe494     1.0  0.54319  0.93684  0.91897  1.0000
  S   S989      1.0  0.51534  0.94906  0.92815  1.0000
  S   S990      1.0  0.54929  0.93187  0.89926  1.0000
  Fe  Fe495     1.0  0.55832  0.93452  0.94169  1.0000
  S   S991      1.0  0.53170  0.94580  0.95292  1.0000
  S   S992      1.0  0.58444  0.92554  0.94804  1.0000
  Fe  Fe496     1.0  0.52105  0.92857  0.94540  1.0000
  S   S993      1.0  0.53748  0.82991  0.87559  1.0000
  Fe  Fe497     1.0  0.52873  0.96523  0.93464  1.0000
  H   H2985     1.0  0.53141  0.82424  0.81491  1.0000
  S   S994      1.0  0.54804  0.91531  0.93585  1.0000
  S   S995      1.0  0.55618  0.95505  0.92380  1.0000
  Fe  Fe498     1.0  0.55356  0.84943  0.87481  1.0000
  H   H2986     1.0  0.71349  0.75422  0.76002  1.0000
  S   S996      1.0  0.55451  0.85426  0.89345  1.0000
  Fe  Fe499     1.0  0.55975  0.82090  0.86003  1.0000
  C   C2989     1.0  0.58876  0.87702  0.92684  1.0000
  S   S997      1.0  0.57122  0.79254  0.85834  1.0000
  Fe  Fe500     1.0  0.56286  0.85819  0.84614  1.0000
  S   S998      1.0  0.57505  0.87629  0.82889  1.0000
  S   S999      1.0  0.57714  0.83852  0.86055  1.0000
  H   H2987     1.0  0.66643  0.71243  0.79082  1.0000
  Fe  Fe501     1.0  0.75359  0.69389  0.76953  1.0000
  S   S1000     1.0  0.73723  0.72039  0.76221  1.0000
  S   S1001     1.0  0.77997  0.69175  0.77403  1.0000
  H   H2988     1.0  0.60826  0.92440  0.89506  1.0000
  C   C2990     1.0  0.67232  0.86517  0.76116  1.0000
  Fe  Fe502     1.0  0.56048  0.71224  0.82697  1.0000
  S   S1002     1.0  0.55704  0.70623  0.84806  1.0000
  S   S1003     1.0  0.58779  0.71590  0.81557  1.0000
  Fe  Fe503     1.0  0.54401  0.68497  0.84767  1.0000
  Fe  Fe504     1.0  0.53003  0.72445  0.84765  1.0000
  C   C2991     1.0  0.57215  0.94197  0.96853  1.0000
  S   S1004     1.0  0.54952  0.68947  0.82662  1.0000
  S   S1005     1.0  0.53427  0.73181  0.82657  1.0000
  Fe  Fe505     1.0  0.64508  0.81967  0.78693  1.0000
  S   S1006     1.0  0.63138  0.82185  0.77141  1.0000
  S   S1007     1.0  0.64516  0.84457  0.79222  1.0000
  Fe  Fe506     1.0  0.65792  0.77986  0.79050  1.0000
  S   S1008     1.0  0.64527  0.77873  0.77536  1.0000
  S   S1009     1.0  0.67209  0.75431  0.80106  1.0000
  Fe  Fe507     1.0  0.65622  0.80262  0.76434  1.0000
  Fe  Fe508     1.0  0.62191  0.79779  0.78402  1.0000
  S   S1010     1.0  0.59330  0.79505  0.78922  1.0000
  S   S1011     1.0  0.67077  0.80236  0.77890  1.0000
  S   S1012     1.0  0.63370  0.79713  0.80008  1.0000
  C   C2992     1.0  0.58906  0.73790  0.80808  1.0000
  C   C2993     1.0  0.57358  0.75123  0.80710  1.0000
  C   C2994     1.0  0.57492  0.76874  0.80121  1.0000
  C   C2995     1.0  0.59177  0.77303  0.79638  1.0000
  C   C2996     1.0  0.60726  0.75973  0.79746  1.0000
  C   C2997     1.0  0.60591  0.74218  0.80315  1.0000
  H   H2989     1.0  0.56057  0.74807  0.81064  1.0000
  H   H2990     1.0  0.56289  0.77894  0.80038  1.0000
  H   H2991     1.0  0.62028  0.76293  0.79405  1.0000
  H   H2992     1.0  0.61794  0.73194  0.80387  1.0000
  C   C2998     1.0  0.72054  0.73023  0.77359  1.0000
  C   C2999     1.0  0.71646  0.72110  0.78616  1.0000
  C   C3000     1.0  0.70180  0.72868  0.79474  1.0000
  C   C3001     1.0  0.69127  0.74536  0.79073  1.0000
  C   C3002     1.0  0.69567  0.75460  0.77825  1.0000
  C   C3003     1.0  0.71031  0.74709  0.76972  1.0000
  H   H2993     1.0  0.72439  0.70814  0.78923  1.0000
  H   H2994     1.0  0.69848  0.72153  0.80441  1.0000
  H   H2995     1.0  0.68763  0.76743  0.77506  1.0000
  Fe  Fe509     1.0  0.77325  0.66861  0.78943  1.0000
  S   S1013     1.0  0.81620  0.67301  0.74717  1.0000
  H   H2996     1.0  0.58560  0.83508  0.78526  1.0000
  C   C3004     1.0  0.81625  0.68324  0.78913  1.0000
  C   C3005     1.0  0.56286  0.98580  0.95671  1.0000
  C   C3006     1.0  0.67513  0.75266  0.75292  1.0000
  H   H2997     1.0  0.78759  0.70428  0.74646  1.0000
  C   C3007     1.0  0.59487  0.86678  0.81936  1.0000
  C   C3008     1.0  0.60577  0.87783  0.81092  1.0000
  C   C3009     1.0  0.62132  0.87079  0.80281  1.0000
  C   C3010     1.0  0.62582  0.85271  0.80284  1.0000
  C   C3011     1.0  0.61483  0.84160  0.81121  1.0000
  C   C3012     1.0  0.59939  0.84863  0.81955  1.0000
  H   H2998     1.0  0.60224  0.89189  0.81070  1.0000
  H   H2999     1.0  0.62975  0.87944  0.79639  1.0000
  H   H3000     1.0  0.61829  0.82763  0.81133  1.0000
  H   H3001     1.0  0.59075  0.84019  0.82592  1.0000
  C   C3013     1.0  0.55609  0.78050  0.85769  1.0000
  C   C3014     1.0  0.53752  0.78713  0.86036  1.0000
  C   C3015     1.0  0.52578  0.77684  0.86027  1.0000
  C   C3016     1.0  0.53257  0.76006  0.85730  1.0000
  C   C3017     1.0  0.55114  0.75375  0.85423  1.0000
  C   C3018     1.0  0.56285  0.76384  0.85457  1.0000
  H   H3002     1.0  0.53222  0.80000  0.86272  1.0000
  H   H3003     1.0  0.80738  0.69624  0.78786  1.0000
  H   H3004     1.0  0.55900  0.94542  0.96640  1.0000
  H   H3005     1.0  0.57717  0.75861  0.85256  1.0000
  C   C3019     1.0  0.58661  0.93220  0.96112  1.0000
  C   C3020     1.0  0.60351  0.92749  0.96411  1.0000
  H   H3006     1.0  0.61473  0.91989  0.95849  1.0000
  C   C3021     1.0  0.54988  0.91046  0.89772  1.0000
  C   C3022     1.0  0.54680  0.89691  0.90835  1.0000
  C   C3023     1.0  0.54835  0.87971  0.90690  1.0000
  C   C3024     1.0  0.55252  0.87604  0.89482  1.0000
  C   C3025     1.0  0.55514  0.88968  0.88417  1.0000
  C   C3026     1.0  0.55392  0.90683  0.88563  1.0000
  H   H3007     1.0  0.54330  0.89957  0.91771  1.0000
  H   H3008     1.0  0.54606  0.86926  0.91518  1.0000
  H   H3009     1.0  0.55841  0.88696  0.87481  1.0000
  H   H3010     1.0  0.55622  0.91727  0.87735  1.0000
  H   H3011     1.0  0.59972  0.67634  0.86513  1.0000
  H   H3012     1.0  0.70002  0.82647  0.75545  1.0000
  H   H3013     1.0  0.59372  0.68705  0.83809  1.0000
  H   H3014     1.0  0.57095  0.97587  0.95139  1.0000
  C   C3027     1.0  0.69931  0.70646  0.76477  1.0000
  C   C3028     1.0  0.59155  0.89183  0.92960  1.0000
  S   S1014     1.0  0.74555  0.67285  0.78627  1.0000
  C   C3029     1.0  0.69448  0.72299  0.75692  1.0000
  H   H3015     1.0  0.58699  0.86535  0.93426  1.0000
  H   H3016     1.0  0.73849  0.65775  0.81539  1.0000
  H   H3017     1.0  0.67237  0.89042  0.74813  1.0000
  Fe  Fe510     1.0  0.52660  0.85026  0.85997  1.0000
  H   H3018     1.0  0.84569  0.65839  0.76115  1.0000
  H   H3019     1.0  0.51143  0.92203  0.90746  1.0000
  S   S1015     1.0  0.54072  0.87055  0.86043  1.0000
  H   H3020     1.0  0.59199  0.89182  0.93917  1.0000
  H   H3021     1.0  0.68085  0.75254  0.74276  1.0000
  H   H3022     1.0  0.65821  0.74118  0.77653  1.0000
  H   H3023     1.0  0.71853  0.66010  0.78154  1.0000
  H   H3024     1.0  0.55651  0.74088  0.85192  1.0000
  S   S1016     1.0  0.67197  0.80171  0.74451  1.0000
  C   C3030     1.0  0.58990  0.89268  0.90515  1.0000
  C   C3031     1.0  0.67415  0.71508  0.78119  1.0000
  C   C3032     1.0  0.55729  0.83018  0.80501  1.0000
  N   N249      1.0  0.60879  0.66484  0.84901  1.0000
  C   C3033     1.0  0.69424  0.84058  0.75388  1.0000
  N   N250      1.0  0.67963  0.73512  0.76105  1.0000
  N   N251      1.0  0.59216  0.90731  0.90802  1.0000
  H   H3025     1.0  0.71143  0.69712  0.76160  1.0000
  C   C3034     1.0  0.50434  0.92894  0.89963  1.0000
  S   S1017     1.0  0.54760  0.83974  0.84438  1.0000
  Fe  Fe511     1.0  0.52271  0.70849  0.82840  1.0000
  H   H3026     1.0  0.58897  0.89292  0.89565  1.0000
  H   H3027     1.0  0.51049  0.66828  0.81109  1.0000
  C   C3035     1.0  0.58803  0.87737  0.91453  1.0000
  Fe  Fe512     1.0  0.79039  0.67209  0.76157  1.0000
  C   C3036     1.0  0.59326  0.90695  0.92001  1.0000
  H   H3028     1.0  0.66036  0.75744  0.75402  1.0000
  H   H3029     1.0  0.67550  0.83842  0.77194  1.0000
  H   H3030     1.0  0.58573  0.93528  0.90178  1.0000
  N   N252      1.0  0.70025  0.85168  0.74285  1.0000
  C   C3037     1.0  0.63286  0.66113  0.82624  1.0000
  C   C3038     1.0  0.66459  0.83809  0.73802  1.0000
  C   C3039     1.0  0.57476  0.94725  0.97876  1.0000
  C   C3040     1.0  0.51998  0.66281  0.81758  1.0000
  C   C3041     1.0  0.81970  0.67457  0.80104  1.0000
  H   H3031     1.0  0.82077  0.68146  0.76976  1.0000
  H   H3032     1.0  0.52882  0.66057  0.83932  1.0000
  C   C3042     1.0  0.58626  0.83786  0.79426  1.0000
  H   H3033     1.0  0.52058  0.85201  0.82302  1.0000
  C   C3043     1.0  0.59179  0.94242  0.98168  1.0000
  H   H3034     1.0  0.81336  0.68071  0.80910  1.0000
  C   C3044     1.0  0.67860  0.87643  0.74991  1.0000
  H   H3035     1.0  0.61921  0.92864  0.97660  1.0000
  H   H3036     1.0  0.51145  0.78187  0.86251  1.0000
  H   H3037     1.0  0.57104  0.86646  0.80447  1.0000
  C   C3045     1.0  0.66958  0.73139  0.77305  1.0000
  H   H3038     1.0  0.69309  0.69002  0.78329  1.0000
  C   C3046     1.0  0.53388  0.84927  0.81702  1.0000
  S   S1018     1.0  0.51769  0.74695  0.85787  1.0000
  H   H3039     1.0  0.61474  0.68373  0.81778  1.0000
  C   C3047     1.0  0.82374  0.67476  0.77897  1.0000
  C   C3048     1.0  0.69280  0.86945  0.74086  1.0000
  H   H3040     1.0  0.50666  0.80929  0.88324  1.0000
  H   H3041     1.0  0.56202  0.81798  0.80155  1.0000
  H   H3042     1.0  0.72814  0.84319  0.73590  1.0000
  N   N253      1.0  0.56818  0.84196  0.80207  1.0000
  C   C3049     1.0  0.53999  0.83365  0.81252  1.0000
  H   H3043     1.0  0.59444  0.82593  0.79937  1.0000
  C   C3050     1.0  0.54515  0.86112  0.81408  1.0000
  C   C3051     1.0  0.61747  0.67465  0.82648  1.0000
  H   H3044     1.0  0.58563  0.86602  0.91227  1.0000
  H   H3045     1.0  0.54081  0.87305  0.81786  1.0000
  C   C3052     1.0  0.56235  0.85723  0.80655  1.0000
  H   H3046     1.0  0.70309  0.72625  0.74770  1.0000
  S   S1019     1.0  0.51629  0.70254  0.84953  1.0000
  H   H3047     1.0  0.58218  0.67207  0.85967  1.0000
  H   H3048     1.0  0.58898  0.92339  0.88983  1.0000
  H   H3049     1.0  0.65491  0.83780  0.74690  1.0000
  H   H3050     1.0  0.59512  0.91851  0.92230  1.0000
  C   C3053     1.0  0.59400  0.92334  0.89816  1.0000
  C   C3054     1.0  0.50833  0.89879  0.89657  1.0000
  H   H3051     1.0  0.59334  0.84891  0.79186  1.0000
  S   S1020     1.0  0.54722  0.65745  0.85990  1.0000
  C   C3055     1.0  0.68910  0.70253  0.77699  1.0000
  N   N254      1.0  0.61394  0.78706  0.83405  1.0000
  C   C3056     1.0  0.63112  0.77721  0.83228  1.0000
  C   C3057     1.0  0.60058  0.78189  0.83134  1.0000
  C   C3058     1.0  0.63535  0.76187  0.82751  1.0000
  C   C3059     1.0  0.60431  0.76656  0.82665  1.0000
  C   C3060     1.0  0.62184  0.75656  0.82468  1.0000
  C   C3061     1.0  0.60985  0.80277  0.83941  1.0000
  H   H3052     1.0  0.64171  0.78128  0.83443  1.0000
  H   H3053     1.0  0.58689  0.78952  0.83288  1.0000
  H   H3054     1.0  0.64907  0.75426  0.82589  1.0000
  H   H3055     1.0  0.59365  0.76250  0.82455  1.0000
  H   H3056     1.0  0.62499  0.74475  0.82089  1.0000
  H   H3057     1.0  0.61997  0.81104  0.83470  1.0000
  H   H3058     1.0  0.59647  0.81118  0.83830  1.0000
  H   H3059     1.0  0.60956  0.79866  0.84972  1.0000
  H   H3060     1.0  0.66125  0.87027  0.76829  1.0000
  C   C3062     1.0  0.68027  0.84718  0.76320  1.0000
  H   H3061     1.0  0.51600  0.82796  0.84919  1.0000
  C   C3063     1.0  0.60558  0.67641  0.83803  1.0000
  S   S1021     1.0  0.76445  0.67569  0.75596  1.0000
  H   H3062     1.0  0.53872  0.97612  0.96020  1.0000
  H   H3063     1.0  0.51198  0.87294  0.89289  1.0000
  H   H3064     1.0  0.51272  0.89334  0.90542  1.0000
  H   H3065     1.0  0.68049  0.76236  0.75541  1.0000
  C   C3064     1.0  0.60606  0.93249  0.97435  1.0000
  C   C3065     1.0  0.50776  0.88712  0.88954  1.0000
  S   S1022     1.0  0.77680  0.66502  0.80919  1.0000
  H   H3066     1.0  0.64218  0.65956  0.81734  1.0000
  C   C3066     1.0  0.81410  0.69364  0.73656  1.0000
  C   C3067     1.0  0.79831  0.70660  0.73832  1.0000
  H   H3067     1.0  0.50629  0.81118  0.83778  1.0000
  H   H3068     1.0  0.69005  0.66000  0.79768  1.0000
  H   H3069     1.0  0.59706  0.98518  0.95125  1.0000
  C   C3068     1.0  0.54467  0.98580  0.96169  1.0000
  C   C3069     1.0  0.59620  0.66697  0.86103  1.0000
  H   H3070     1.0  0.52557  0.67407  0.81758  1.0000
  H   H3071     1.0  0.51183  0.93910  0.89346  1.0000
  C   C3070     1.0  0.83069  0.65766  0.80265  1.0000
  N   N255      1.0  0.83432  0.65807  0.78066  1.0000
  N   N256      1.0  0.50347  0.91672  0.89234  1.0000
  S   S1023     1.0  0.50327  0.71044  0.81642  1.0000
  C   C3071     1.0  0.50233  0.83146  0.84808  1.0000
  S   S1024     1.0  0.50242  0.91105  0.95740  1.0000
  C   C3072     1.0  0.50181  0.89388  0.87824  1.0000
  H   H3072     1.0  0.56364  0.95483  0.98446  1.0000
