data_image0
_chemical_formula_structural       FeSCS3FeS2FeS2H2CH2C6H5FeCHCH3CNC5H4FeH3C2H4CFeCSCSHFeSCFeSHFeSFeS3CHCHC7H4C5FeH2C2NC2HCS2CH3CH3CHCNCH2NH2CH2SH5CNFeSHFeS2FeS2CNCH2C6H4C2FeCH2CH3SH2SC6HC2HC2HCH3CH2CNH3CSFeSCFeSCFeSHFeSFeS3CH2NHC6H4C6HCH2C2NCH4C3SH2SHFeHC2H3SCHSH5C2FeS2FeS2C2SHC8H2FeS2FeS2C2HNCH2C3H4SC3H4C2HC4HC3HNH6C3H2CH2CHNH2C2H2CHCHSHC2H4CHC4H2C3HC3HCSCHSH2SNC2H2C2FeCFeSHCHS2C2SCFeH2S2FeC3HCHCH3C2H5CH2C3H2CHCH2C2NHCH4C3H2CFeS2H2SFeCSCHSC12H4CH3CHNH2FeHSH4CNHNCH2CH3C2FeCSCS2FeS2FeSHFeSFeCS2H2NH2C6H4C6H4SHC2HSHC2H2CH2FeC3HSCH2C2H2C5N2CHCH4CH2CHCHC3S2HCSCHSFeS2H2NCHC7H4NC5H3SHFe2CHC2H2CHFeH4CSH3SFeS2FeS2FeS2FeSFeHS2CHCSHC6H4C6H4C2HSHC3FeC2H2CNCHNH4CHCH2C
_chemical_formula_sum              "Fe48 S96 C288 H288 N24"
_cell_length_a       40.2934
_cell_length_b       40.0209
_cell_length_c       25.2523
_cell_angle_alpha    90.2899
_cell_angle_beta     89.9902
_cell_angle_gamma    120.251

_space_group_name_H-M_alt    "P 1"
_space_group_IT_number       1

loop_
  _space_group_symop_operation_xyz
  'x, y, z'

loop_
  _atom_site_type_symbol
  _atom_site_label
  _atom_site_symmetry_multiplicity
  _atom_site_fract_x
  _atom_site_fract_y
  _atom_site_fract_z
  _atom_site_occupancy
  Fe  Fe1       1.0  0.33363  0.04526  0.47796  1.0000
  S   S1        1.0  0.28261  0.05019  0.45377  1.0000
  C   C1        1.0  0.17589  0.39678  0.50851  1.0000
  S   S2        1.0  0.02360  0.30816  0.22667  1.0000
  S   S3        1.0  0.19973  0.49734  0.41563  1.0000
  S   S4        1.0  0.28510  0.48689  0.47133  1.0000
  Fe  Fe2       1.0  0.06174  0.25533  0.13554  1.0000
  S   S5        1.0  0.09087  0.31986  0.14153  1.0000
  S   S6        1.0  0.07948  0.22243  0.07924  1.0000
  Fe  Fe3       1.0  0.08075  0.31053  0.22930  1.0000
  S   S7        1.0  0.12992  0.33861  0.28882  1.0000
  S   S8        1.0  0.05479  0.24568  0.22353  1.0000
  H   H1        1.0  0.34769  0.10384  0.38164  1.0000
  H   H2        1.0  0.12218  0.43103  0.46150  1.0000
  C   C2        1.0  0.12304  0.24567  0.04285  1.0000
  H   H3        1.0  0.17419  0.31932  0.44969  1.0000
  H   H4        1.0  0.15840  0.45130  0.51114  1.0000
  C   C3        1.0  0.15073  0.38514  0.31778  1.0000
  C   C4        1.0  0.18510  0.39877  0.34632  1.0000
  C   C5        1.0  0.20057  0.43327  0.37575  1.0000
  C   C6        1.0  0.18221  0.45500  0.37624  1.0000
  C   C7        1.0  0.14852  0.44216  0.34618  1.0000
  C   C8        1.0  0.13267  0.40720  0.31719  1.0000
  H   H5        1.0  0.19918  0.38180  0.34703  1.0000
  H   H6        1.0  0.22626  0.44244  0.39874  1.0000
  H   H7        1.0  0.13415  0.45885  0.34613  1.0000
  H   H8        1.0  0.10612  0.39693  0.29536  1.0000
  H   H9        1.0  0.33008  0.50351  0.36870  1.0000
  Fe  Fe4       1.0  0.24841  0.51409  0.47430  1.0000
  C   C9        1.0  0.33747  0.51107  0.32636  1.0000
  H   H10       1.0  0.14280  0.30245  0.07540  1.0000
  C   C10       1.0  0.34744  0.18853  0.44847  1.0000
  H   H11       1.0  0.32990  0.19578  0.03639  1.0000
  H   H12       1.0  0.31678  0.25928  0.08565  1.0000
  H   H13       1.0  0.11743  0.31635  0.40598  1.0000
  C   C11       1.0  0.14878  0.28538  0.04790  1.0000
  N   N1        1.0  0.14486  0.39516  0.48386  1.0000
  C   C12       1.0  0.12348  0.36617  0.44839  1.0000
  C   C13       1.0  0.34283  0.26597  0.06252  1.0000
  C   C14       1.0  0.13342  0.42365  0.49709  1.0000
  C   C15       1.0  0.18688  0.36953  0.49675  1.0000
  C   C16       1.0  0.13354  0.33832  0.43586  1.0000
  H   H14       1.0  0.09922  0.36514  0.42815  1.0000
  H   H15       1.0  0.20238  0.33389  0.02198  1.0000
  H   H16       1.0  0.34729  0.20709  0.41605  1.0000
  H   H17       1.0  0.27250  0.50769  0.35763  1.0000
  Fe  Fe5       1.0  0.03113  0.31132  0.13794  1.0000
  H   H18       1.0  0.32638  0.48408  0.30267  1.0000
  H   H19       1.0  0.34219  0.19904  0.48666  1.0000
  H   H20       1.0  0.07846  0.28756  0.02779  1.0000
  C   C17       1.0  0.16561  0.34023  0.45999  1.0000
  C   C18       1.0  0.35051  0.20908  0.06844  1.0000
  H   H21       1.0  0.32314  0.15865  0.44136  1.0000
  H   H22       1.0  0.33426  0.25716  0.02056  1.0000
  H   H23       1.0  0.07174  0.32770  0.01687  1.0000
  H   H24       1.0  0.21193  0.37142  0.51588  1.0000
  C   C19       1.0  0.18268  0.30315  0.01763  1.0000
  Fe  Fe6       1.0  0.28012  0.48468  0.56011  1.0000
  C   C20       1.0  0.32609  0.15039  0.73671  1.0000
  S   S9        1.0  0.25595  0.42671  0.60189  1.0000
  C   C21       1.0  0.16581  0.24170  0.97726  1.0000
  S   S10       1.0  0.29038  0.12929  0.55399  1.0000
  H   H25       1.0  0.31224  0.45627  0.76131  1.0000
  Fe  Fe7       1.0  0.31468  0.31350  0.79516  1.0000
  S   S11       1.0  0.25052  0.27684  0.80090  1.0000
  C   C22       1.0  0.13170  0.22394  0.00735  1.0000
  Fe  Fe8       1.0  0.32857  0.26574  0.87889  1.0000
  S   S12       1.0  0.26522  0.22705  0.89161  1.0000
  H   H26       1.0  0.28461  0.36673  0.87314  1.0000
  Fe  Fe9       1.0  0.26134  0.22663  0.80262  1.0000
  S   S13       1.0  0.22830  0.16722  0.76420  1.0000
  Fe  Fe10      1.0  0.26068  0.28070  0.88901  1.0000
  S   S14       1.0  0.23448  0.30583  0.94505  1.0000
  S   S15       1.0  0.32478  0.26311  0.78999  1.0000
  S   S16       1.0  0.32488  0.31981  0.88324  1.0000
  C   C23       1.0  0.19145  0.28147  0.98230  1.0000
  H   H27       1.0  0.31905  0.07117  0.67531  1.0000
  C   C24       1.0  0.30101  0.15668  0.82255  1.0000
  H   H28       1.0  0.27170  0.14104  0.83992  1.0000
  C   C25       1.0  0.25240  0.41374  0.76738  1.0000
  C   C26       1.0  0.27316  0.13905  0.61310  1.0000
  C   C27       1.0  0.28673  0.17769  0.62793  1.0000
  C   C28       1.0  0.27360  0.18667  0.67452  1.0000
  C   C29       1.0  0.24616  0.15702  0.70612  1.0000
  C   C30       1.0  0.23260  0.11835  0.69135  1.0000
  C   C31       1.0  0.24631  0.10934  0.64527  1.0000
  H   H29       1.0  0.30738  0.20086  0.60320  1.0000
  H   H30       1.0  0.28401  0.21655  0.68527  1.0000
  H   H31       1.0  0.21130  0.09528  0.71558  1.0000
  H   H32       1.0  0.23558  0.07948  0.63419  1.0000
  C   C32       1.0  0.32114  0.38279  0.70246  1.0000
  C   C33       1.0  0.28170  0.35962  0.69320  1.0000
  C   C34       1.0  0.26246  0.37322  0.66117  1.0000
  C   C35       1.0  0.28232  0.41024  0.63858  1.0000
  C   C36       1.0  0.32186  0.43333  0.64733  1.0000
  Fe  Fe11      1.0  0.28539  0.07124  0.53760  1.0000
  H   H33       1.0  0.26596  0.33124  0.71072  1.0000
  H   H34       1.0  0.23189  0.35511  0.65450  1.0000
  C   C37       1.0  0.34316  0.43091  0.83256  1.0000
  C   C38       1.0  0.22517  0.37958  0.79173  1.0000
  N   N2        1.0  0.30245  0.41302  0.81823  1.0000
  C   C39       1.0  0.29114  0.43025  0.78138  1.0000
  C   C40       1.0  0.27582  0.38005  0.84322  1.0000
  H   H35       1.0  0.34640  0.14184  0.66144  1.0000
  C   C41       1.0  0.23686  0.36271  0.83016  1.0000
  S   S17       1.0  0.34597  0.36772  0.74508  1.0000
  S   S18       1.0  0.24026  0.50888  0.56270  1.0000
  C   C42       1.0  0.29034  0.09440  0.78933  1.0000
  H   H36       1.0  0.27430  0.08090  0.82503  1.0000
  H   H37       1.0  0.33750  0.46183  0.62996  1.0000
  H   H38       1.0  0.24382  0.42676  0.73659  1.0000
  C   C43       1.0  0.34121  0.41952  0.67894  1.0000
  H   H39       1.0  0.21604  0.33618  0.84964  1.0000
  H   H40       1.0  0.19514  0.36606  0.78055  1.0000
  H   H41       1.0  0.30422  0.18373  0.80583  1.0000
  C   C44       1.0  0.31553  0.08872  0.70519  1.0000
  H   H42       1.0  0.28299  0.04071  0.75718  1.0000
  C   C45       1.0  0.33119  0.12838  0.69773  1.0000
  N   N3        1.0  0.02631  0.27372  0.98809  1.0000
  C   C46       1.0  0.29507  0.07156  0.75127  1.0000
  H   H43       1.0  0.19265  0.41946  0.53712  1.0000
  H   H44       1.0  0.17218  0.22467  0.95014  1.0000
  N   N4        1.0  0.30552  0.13322  0.78151  1.0000
  H   H45       1.0  0.32296  0.16463  0.85418  1.0000
  H   H46       1.0  0.33793  0.18114  0.73035  1.0000
  C   C47       1.0  0.06717  0.30023  0.99887  1.0000
  H   H47       1.0  0.35001  0.40890  0.84728  1.0000
  H   H48       1.0  0.11108  0.41213  0.52834  1.0000
  S   S19       1.0  0.33804  0.06917  0.55998  1.0000
  H   H49       1.0  0.08399  0.30659  0.96177  1.0000
  H   H50       1.0  0.11198  0.19319  0.00317  1.0000
  H   H51       1.0  0.35053  0.45334  0.86352  1.0000
  H   H52       1.0  0.02942  0.22310  0.00424  1.0000
  H   H53       1.0  0.35022  0.61081  0.39446  1.0000
  C   C48       1.0  0.27087  0.54972  0.30723  1.0000
  N   N5        1.0  0.24835  0.78724  0.05602  1.0000
  Fe  Fe12      1.0  0.24747  0.99003  0.48716  1.0000
  S   S20       1.0  0.19205  0.93615  0.46172  1.0000
  H   H54       1.0  0.09856  0.91581  0.46522  1.0000
  Fe  Fe13      1.0  0.05818  0.75389  0.15819  1.0000
  S   S21       1.0  0.05227  0.80402  0.13111  1.0000
  S   S22       1.0  0.08374  0.72510  0.10774  1.0000
  Fe  Fe14      1.0  0.06983  0.82567  0.21535  1.0000
  S   S23       1.0  0.11460  0.88808  0.23427  1.0000
  S   S24       1.0  0.07935  0.77748  0.24014  1.0000
  C   C49       1.0  0.32396  0.58198  0.24662  1.0000
  N   N6        1.0  0.11709  0.95898  0.40530  1.0000
  C   C50       1.0  0.11594  0.74846  0.05480  1.0000
  H   H55       1.0  0.22895  0.82409  0.08709  1.0000
  H   H56       1.0  0.17637  0.77232  0.13946  1.0000
  C   C51       1.0  0.14039  0.89937  0.29489  1.0000
  C   C52       1.0  0.17126  0.93706  0.30378  1.0000
  C   C53       1.0  0.18922  0.94820  0.35384  1.0000
  C   C54       1.0  0.17595  0.92183  0.39568  1.0000
  C   C55       1.0  0.14601  0.88380  0.38621  1.0000
  C   C56       1.0  0.12852  0.87250  0.33600  1.0000
  H   H57       1.0  0.18077  0.95796  0.27208  1.0000
  H   H58       1.0  0.21242  0.97749  0.36045  1.0000
  H   H59       1.0  0.13556  0.86315  0.41824  1.0000
  H   H60       1.0  0.10481  0.84341  0.32976  1.0000
  C   C57       1.0  0.18897  0.72852  0.11362  1.0000
  C   C58       1.0  0.12865  0.72758  0.02436  1.0000
  Fe  Fe15      1.0  0.33455  0.54765  0.48186  1.0000
  C   C59       1.0  0.12976  0.78742  0.04326  1.0000
  H   H61       1.0  0.16515  0.70552  0.13518  1.0000
  H   H62       1.0  0.12048  0.80393  0.06665  1.0000
  C   C60       1.0  0.28950  0.57671  0.26717  1.0000
  H   H63       1.0  0.04280  0.87770  0.31425  1.0000
  H   H64       1.0  0.08389  0.94379  0.27917  1.0000
  H   H65       1.0  0.27739  0.59369  0.25234  1.0000
  S   S25       1.0  0.29846  0.98332  0.50564  1.0000
  H   H66       1.0  0.29641  0.84417  0.05033  1.0000
  H   H67       1.0  0.20754  0.69127  0.07898  1.0000
  S   S26       1.0  0.29805  0.57510  0.47938  1.0000
  C   C61       1.0  0.21254  0.72051  0.08190  1.0000
  C   C62       1.0  0.24234  0.75042  0.05322  1.0000
  C   C63       1.0  0.06263  0.90078  0.34043  1.0000
  C   C64       1.0  0.06675  0.89296  0.39303  1.0000
  C   C65       1.0  0.33945  0.56022  0.26678  1.0000
  C   C66       1.0  0.22505  0.79522  0.08643  1.0000
  H   H68       1.0  0.24398  0.54523  0.32360  1.0000
  C   C67       1.0  0.19534  0.76613  0.11617  1.0000
  C   C68       1.0  0.14657  0.98977  0.43862  1.0000
  H   H69       1.0  0.04991  0.86375  0.40809  1.0000
  C   C69       1.0  0.08575  0.93800  0.32070  1.0000
  C   C70       1.0  0.11296  0.96695  0.35390  1.0000
  H   H70       1.0  0.17528  0.00148  0.41993  1.0000
  C   C71       1.0  0.09437  0.92257  0.42510  1.0000
  H   H71       1.0  0.26045  0.74392  0.02848  1.0000
  H   H72       1.0  0.11800  0.69739  0.03290  1.0000
  H   H73       1.0  0.04653  0.74953  0.02827  1.0000
  C   C72       1.0  0.27901  0.81831  0.02504  1.0000
  H   H74       1.0  0.14861  0.97897  0.47829  1.0000
  H   H75       1.0  0.33928  0.60360  0.21637  1.0000
  C   C73       1.0  0.28719  0.52852  0.32646  1.0000
  N   N7        1.0  0.32127  0.53424  0.30663  1.0000
  H   H76       1.0  0.13168  0.99549  0.33777  1.0000
  H   H77       1.0  0.14012  0.01346  0.44416  1.0000
  H   H78       1.0  0.33493  0.67346  0.70692  1.0000
  C   C74       1.0  0.29114  0.75288  0.66963  1.0000
  S   S27       1.0  0.29774  0.98684  0.66892  1.0000
  Fe  Fe16      1.0  0.29394  0.56727  0.56784  1.0000
  S   S28       1.0  0.31188  0.61941  0.62182  1.0000
  C   C75       1.0  0.27944  0.70198  0.61001  1.0000
  Fe  Fe17      1.0  0.30229  0.81304  0.80013  1.0000
  S   S29       1.0  0.23849  0.77486  0.79569  1.0000
  C   C76       1.0  0.22182  0.90485  0.59253  1.0000
  Fe  Fe18      1.0  0.30776  0.77520  0.90331  1.0000
  S   S30       1.0  0.24362  0.73439  0.90422  1.0000
  H   H79       1.0  0.32496  0.94380  0.60566  1.0000
  Fe  Fe19      1.0  0.24966  0.72693  0.81701  1.0000
  S   S31       1.0  0.21811  0.67032  0.77099  1.0000
  Fe  Fe20      1.0  0.23912  0.78620  0.88301  1.0000
  S   S32       1.0  0.20222  0.80827  0.91975  1.0000
  S   S33       1.0  0.31369  0.76433  0.81703  1.0000
  S   S34       1.0  0.30287  0.82789  0.88646  1.0000
  C   C77       1.0  0.16922  0.78453  0.97170  1.0000
  H   H80       1.0  0.16647  0.83535  0.99275  1.0000
  H   H81       1.0  0.23089  0.81670  0.69921  1.0000
  N   N8        1.0  0.26606  0.72051  0.64158  1.0000
  H   H82       1.0  0.21192  0.88370  0.55922  1.0000
  C   C78       1.0  0.28434  0.62847  0.66810  1.0000
  C   C79       1.0  0.24419  0.60939  0.66597  1.0000
  C   C80       1.0  0.22402  0.62146  0.69925  1.0000
  C   C81       1.0  0.24382  0.65278  0.73449  1.0000
  C   C82       1.0  0.28381  0.67084  0.73772  1.0000
  C   C83       1.0  0.30389  0.65866  0.70486  1.0000
  H   H83       1.0  0.22881  0.58611  0.63779  1.0000
  H   H84       1.0  0.19302  0.60708  0.69680  1.0000
  H   H85       1.0  0.29940  0.69447  0.76512  1.0000
  H   H86       1.0  0.26624  0.82634  0.99196  1.0000
  C   C84       1.0  0.32053  0.88850  0.71151  1.0000
  C   C85       1.0  0.15600  0.80523  0.00156  1.0000
  C   C86       1.0  0.32011  0.93308  0.64582  1.0000
  C   C87       1.0  0.30779  0.94967  0.68431  1.0000
  C   C88       1.0  0.30215  0.93571  0.73643  1.0000
  C   C89       1.0  0.30817  0.90507  0.74993  1.0000
  H   H87       1.0  0.20799  0.67430  0.64280  1.0000
  C   C90       1.0  0.22472  0.70646  0.64354  1.0000
  H   H88       1.0  0.29282  0.94849  0.76653  1.0000
  H   H89       1.0  0.30362  0.89453  0.79019  1.0000
  C   C91       1.0  0.22319  0.83897  0.69607  1.0000
  C   C92       1.0  0.31883  0.71526  0.60694  1.0000
  N   N9        1.0  0.21751  0.88581  0.64360  1.0000
  C   C93       1.0  0.21235  0.85142  0.74113  1.0000
  H   H90       1.0  0.21676  0.71528  0.68110  1.0000
  H   H91       1.0  0.28069  0.76776  0.69447  1.0000
  H   H92       1.0  0.20341  0.92345  0.68533  1.0000
  H   H93       1.0  0.16528  0.72930  0.96044  1.0000
  C   C94       1.0  0.20782  0.89890  0.68781  1.0000
  C   C95       1.0  0.20473  0.88168  0.73710  1.0000
  C   C96       1.0  0.22582  0.85671  0.64740  1.0000
  S   S35       1.0  0.33282  0.76153  0.97543  1.0000
  H   H94       1.0  0.21108  0.83850  0.77941  1.0000
  H   H95       1.0  0.19755  0.89241  0.77223  1.0000
  S   S36       1.0  0.33353  0.54274  0.57087  1.0000
  H   H96       1.0  0.03066  0.81452  0.00609  1.0000
  Fe  Fe21      1.0  0.29789  0.00809  0.58545  1.0000
  H   H97       1.0  0.20473  0.91962  0.59070  1.0000
  C   C97       1.0  0.32672  0.90281  0.65953  1.0000
  C   C98       1.0  0.15556  0.74563  0.98341  1.0000
  H   H98       1.0  0.23553  0.84778  0.61292  1.0000
  H   H99       1.0  0.21614  0.71782  0.60944  1.0000
  H   H100      1.0  0.25247  0.92678  0.58635  1.0000
  S   S37       1.0  0.32823  0.84978  0.72681  1.0000
  C   C99       1.0  0.33069  0.76694  0.66752  1.0000
  H   H101      1.0  0.25960  0.67591  0.58847  1.0000
  S   S38       1.0  0.24523  0.01200  0.56871  1.0000
  H   H102      1.0  0.32909  0.69934  0.58376  1.0000
  H   H103      1.0  0.33664  0.89040  0.62967  1.0000
  H   H104      1.0  0.05283  0.79618  0.96120  1.0000
  H   H105      1.0  0.35033  0.79232  0.69055  1.0000
  H   H106      1.0  0.29899  0.80952  0.00808  1.0000
  C   C100      1.0  0.34454  0.74782  0.63618  1.0000
  C   C101      1.0  0.02497  0.79268  0.97472  1.0000
  Fe  Fe22      1.0  0.49648  0.23956  0.22076  1.0000
  S   S39       1.0  0.52041  0.30406  0.22276  1.0000
  S   S40       1.0  0.43978  0.20594  0.26503  1.0000
  Fe  Fe23      1.0  0.52014  0.29947  0.13405  1.0000
  S   S41       1.0  0.49766  0.33287  0.08877  1.0000
  S   S42       1.0  0.49402  0.23510  0.13178  1.0000
  C   C102      1.0  0.68353  0.40759  0.32837  1.0000
  C   C103      1.0  0.46265  0.30915  0.03867  1.0000
  S   S43       1.0  0.38893  0.06933  0.43064  1.0000
  H   H107      1.0  0.47710  0.18365  0.45572  1.0000
  C   C104      1.0  0.67021  0.24128  0.14068  1.0000
  C   C105      1.0  0.40152  0.10480  0.38085  1.0000
  C   C106      1.0  0.56206  0.41305  0.18263  1.0000
  C   C107      1.0  0.38801  0.14720  0.32796  1.0000
  C   C108      1.0  0.42529  0.16542  0.30667  1.0000
  C   C109      1.0  0.45039  0.15258  0.32161  1.0000
  C   C110      1.0  0.43845  0.12226  0.35841  1.0000
  C   C111      1.0  0.45140  0.18595  0.45573  1.0000
  H   H108      1.0  0.47912  0.16627  0.30540  1.0000
  H   H109      1.0  0.45813  0.11271  0.37022  1.0000
  Fe  Fe24      1.0  0.55508  0.24731  0.13607  1.0000
  S   S44       1.0  0.58095  0.31148  0.13136  1.0000
  S   S45       1.0  0.58020  0.21623  0.08999  1.0000
  Fe  Fe25      1.0  0.57868  0.30965  0.22026  1.0000
  S   S46       1.0  0.63574  0.35009  0.26038  1.0000
  S   S47       1.0  0.55510  0.24545  0.22535  1.0000
  C   C112      1.0  0.45161  0.27152  0.02250  1.0000
  C   C113      1.0  0.38804  0.26294  0.12477  1.0000
  H   H110      1.0  0.56605  0.40563  0.07775  1.0000
  N   N10       1.0  0.38371  0.18837  0.45117  1.0000
  C   C114      1.0  0.64556  0.38502  0.31021  1.0000
  H   H111      1.0  0.36224  0.14391  0.50910  1.0000
  H   H112      1.0  0.61644  0.40111  0.02807  1.0000
  C   C115      1.0  0.66410  0.44035  0.39169  1.0000
  C   C116      1.0  0.62620  0.41842  0.37262  1.0000
  C   C117      1.0  0.61687  0.39069  0.33210  1.0000
  H   H113      1.0  0.39716  0.29224  0.13753  1.0000
  H   H114      1.0  0.67192  0.40442  0.07648  1.0000
  H   H115      1.0  0.60388  0.42239  0.39007  1.0000
  H   H116      1.0  0.58752  0.37346  0.31838  1.0000
  S   S48       1.0  0.67420  0.47227  0.44581  1.0000
  C   C118      1.0  0.61432  0.23921  0.03879  1.0000
  C   C119      1.0  0.38656  0.16337  0.48500  1.0000
  C   C120      1.0  0.62301  0.41348  0.17996  1.0000
  H   H117      1.0  0.42585  0.25691  0.17990  1.0000
  H   H118      1.0  0.67581  0.41226  0.17472  1.0000
  H   H119      1.0  0.36834  0.15682  0.31644  1.0000
  H   H120      1.0  0.64538  0.23021  0.16656  1.0000
  C   C121      1.0  0.39334  0.20572  0.13228  1.0000
  C   C122      1.0  0.68445  0.21745  0.12476  1.0000
  H   H121      1.0  0.47195  0.22987  0.39545  1.0000
  C   C123      1.0  0.40445  0.24321  0.14882  1.0000
  C   C124      1.0  0.65217  0.41138  0.15284  1.0000
  C   C125      1.0  0.61883  0.40503  0.07074  1.0000
  C   C126      1.0  0.37622  0.11718  0.36503  1.0000
  H   H122      1.0  0.53435  0.39871  0.16056  1.0000
  C   C127      1.0  0.68687  0.27885  0.12117  1.0000
  C   C128      1.0  0.59023  0.40733  0.09917  1.0000
  C   C129      1.0  0.64991  0.40691  0.09788  1.0000
  H   H123      1.0  0.55662  0.39796  0.22126  1.0000
  N   N11       1.0  0.59219  0.41070  0.15320  1.0000
  H   H124      1.0  0.41186  0.23197  0.39234  1.0000
  H   H125      1.0  0.35808  0.15965  0.07787  1.0000
  H   H126      1.0  0.62489  0.41667  0.22270  1.0000
  H   H127      1.0  0.46545  0.25688  0.03927  1.0000
  H   H128      1.0  0.61115  0.29125  0.03846  1.0000
  H   H129      1.0  0.57078  0.44381  0.18976  1.0000
  C   C130      1.0  0.62499  0.27650  0.02183  1.0000
  C   C131      1.0  0.44851  0.21188  0.42198  1.0000
  C   C132      1.0  0.41423  0.21273  0.42017  1.0000
  H   H130      1.0  0.40582  0.19013  0.15090  1.0000
  H   H131      1.0  0.36271  0.29779  0.06237  1.0000
  C   C133      1.0  0.42032  0.16161  0.48764  1.0000
  H   H132      1.0  0.62149  0.35537  0.43116  1.0000
  H   H133      1.0  0.67108  0.18793  0.13887  1.0000
  C   C134      1.0  0.36641  0.18856  0.09158  1.0000
  H   H134      1.0  0.67501  0.29699  0.13204  1.0000
  N   N12       1.0  0.36142  0.24580  0.08513  1.0000
  H   H135      1.0  0.62406  0.19130  0.02869  1.0000
  H   H136      1.0  0.45332  0.35722  0.02764  1.0000
  C   C135      1.0  0.64738  0.35955  0.45040  1.0000
  C   C136      1.0  0.66114  0.38251  0.49583  1.0000
  H   H137      1.0  0.42172  0.14028  0.51247  1.0000
  H   H138      1.0  0.65814  0.32680  0.39196  1.0000
  C   C137      1.0  0.66794  0.34340  0.42855  1.0000
  H   H139      1.0  0.64638  0.39681  0.51158  1.0000
  C   C138      1.0  0.40392  0.27098  0.96226  1.0000
  H   H140      1.0  0.67457  0.22366  0.95992  1.0000
  S   S49       1.0  0.36468  0.24408  0.91905  1.0000
  H   H141      1.0  0.41386  0.22330  0.97262  1.0000
  C   C139      1.0  0.42245  0.25259  0.98444  1.0000
  C   C140      1.0  0.67148  0.27580  0.96021  1.0000
  H   H142      1.0  0.66093  0.32322  0.96928  1.0000
  H   H143      1.0  0.37179  0.43754  0.68561  1.0000
  H   H144      1.0  0.67844  0.07812  0.63003  1.0000
  H   H145      1.0  0.40154  0.32350  0.96039  1.0000
  C   C141      1.0  0.41551  0.30899  0.97745  1.0000
  H   H146      1.0  0.64556  0.02628  0.63149  1.0000
  C   C142      1.0  0.66101  0.23856  0.97720  1.0000
  C   C143      1.0  0.65326  0.29457  0.98257  1.0000
  C   C144      1.0  0.67626  0.04931  0.63231  1.0000
  C   C145      1.0  0.44478  0.32798  0.01562  1.0000
  H   H147      1.0  0.68408  0.08510  0.72496  1.0000
  H   H148      1.0  0.36166  0.44404  0.79722  1.0000
  C   C146      1.0  0.63228  0.22024  0.01601  1.0000
  C   C147      1.0  0.39980  0.60488  0.38188  1.0000
  C   C148      1.0  0.38379  0.64523  0.32859  1.0000
  H   H149      1.0  0.64588  0.84953  0.39047  1.0000
  C   C149      1.0  0.54002  0.84884  0.35084  1.0000
  C   C150      1.0  0.68362  0.94259  0.34940  1.0000
  C   C151      1.0  0.42379  0.77702  0.06380  1.0000
  H   H150      1.0  0.56681  0.86437  0.37480  1.0000
  C   C152      1.0  0.41622  0.65649  0.29669  1.0000
  S   S50       1.0  0.50344  0.78943  0.21709  1.0000
  C   C153      1.0  0.48033  0.78630  0.34785  1.0000
  H   H151      1.0  0.46620  0.65117  0.28402  1.0000
  S   S51       1.0  0.50135  0.83113  0.07205  1.0000
  H   H152      1.0  0.66965  0.95905  0.27516  1.0000
  H   H153      1.0  0.42849  0.76145  0.09503  1.0000
  S   S52       1.0  0.57526  0.80716  0.13820  1.0000
  N   N13       1.0  0.51763  0.80773  0.36466  1.0000
  C   C154      1.0  0.66443  0.93515  0.30047  1.0000
  C   C155      1.0  0.53445  0.79054  0.39170  1.0000
  H   H154      1.0  0.42938  0.72973  0.34438  1.0000
  H   H155      1.0  0.62904  0.79695  0.06955  1.0000
  C   C156      1.0  0.43278  0.61683  0.35071  1.0000
  C   C157      1.0  0.37564  0.61965  0.37099  1.0000
  Fe  Fe26      1.0  0.48094  0.72604  0.20326  1.0000
  C   C158      1.0  0.63848  0.89698  0.28398  1.0000
  Fe  Fe27      1.0  0.54828  0.74294  0.12830  1.0000
  S   S53       1.0  0.57158  0.71459  0.07273  1.0000
  H   H156      1.0  0.45171  0.60563  0.35891  1.0000
  C   C159      1.0  0.51368  0.75098  0.40307  1.0000
  H   H157      1.0  0.62387  0.89159  0.24625  1.0000
  S   S54       1.0  0.48838  0.73216  0.11480  1.0000
  S   S55       1.0  0.38869  0.57012  0.43213  1.0000
  C   C160      1.0  0.47549  0.72905  0.38670  1.0000
  C   C161      1.0  0.44109  0.64268  0.30835  1.0000
  S   S56       1.0  0.53801  0.73024  0.21550  1.0000
  C   C162      1.0  0.45869  0.74674  0.35876  1.0000
  Fe  Fe28      1.0  0.56140  0.79435  0.22476  1.0000
  H   H158      1.0  0.45916  0.69826  0.39483  1.0000
  H   H159      1.0  0.36442  0.65582  0.31989  1.0000
  S   S57       1.0  0.59905  0.81745  0.29833  1.0000
  S   S58       1.0  0.42297  0.68594  0.24121  1.0000
  Fe  Fe29      1.0  0.51453  0.79567  0.12938  1.0000
  C   C163      1.0  0.65087  0.87341  0.36528  1.0000
  C   C164      1.0  0.45430  0.81214  0.04601  1.0000
  C   C165      1.0  0.63180  0.86596  0.31628  1.0000
  H   H160      1.0  0.46737  0.79957  0.32479  1.0000
  C   C166      1.0  0.38693  0.76212  0.04154  1.0000
  H   H161      1.0  0.52738  0.73731  0.42346  1.0000
  C   C167      1.0  0.67666  0.91156  0.38187  1.0000
  H   H162      1.0  0.56448  0.80714  0.40320  1.0000
  H   H163      1.0  0.52307  0.86336  0.35755  1.0000
  H   H164      1.0  0.54857  0.85175  0.30849  1.0000
  C   C168      1.0  0.63778  0.78168  0.04280  1.0000
  C   C169      1.0  0.61541  0.74147  0.03775  1.0000
  H   H165      1.0  0.36347  0.73511  0.05607  1.0000
  H   H166      1.0  0.36670  0.56514  0.25143  1.0000
  H   H167      1.0  0.56532  0.77797  0.02287  1.0000
  H   H168      1.0  0.68835  0.83354  0.01673  1.0000
  H   H169      1.0  0.36941  0.52765  0.32469  1.0000
  C   C170      1.0  0.46242  0.69643  0.97099  1.0000
  H   H170      1.0  0.40593  0.83225  0.95130  1.0000
  H   H171      1.0  0.57258  0.79630  0.95622  1.0000
  C   C171      1.0  0.62770  0.72217  0.00323  1.0000
  C   C172      1.0  0.41076  0.81672  0.98245  1.0000
  C   C173      1.0  0.55446  0.78979  0.99208  1.0000
  H   H172      1.0  0.43294  0.75986  0.93937  1.0000
  H   H173      1.0  0.61062  0.69104  0.99911  1.0000
  C   C174      1.0  0.45193  0.74924  0.95081  1.0000
  H   H174      1.0  0.67088  0.72773  0.94710  1.0000
  C   C175      1.0  0.49056  0.77522  0.96254  1.0000
  H   H175      1.0  0.51990  0.71280  0.99449  1.0000
  H   H176      1.0  0.47107  0.85910  0.99119  1.0000
  C   C176      1.0  0.43774  0.70962  0.95560  1.0000
  C   C177      1.0  0.50093  0.72324  0.98219  1.0000
  N   N14       1.0  0.51424  0.76210  0.97920  1.0000
  H   H177      1.0  0.50118  0.80605  0.95987  1.0000
  C   C178      1.0  0.66185  0.74288  0.97373  1.0000
  H   H178      1.0  0.66572  0.65143  0.63562  1.0000
  H   H179      1.0  0.37505  0.75785  0.63513  1.0000
  H   H180      1.0  0.40764  0.68928  0.94763  1.0000
  H   H181      1.0  0.45178  0.66569  0.97492  1.0000
  C   C179      1.0  0.44762  0.83191  0.00523  1.0000
  C   C180      1.0  0.38018  0.78179  0.00080  1.0000
  C   C181      1.0  0.68376  0.78317  0.97823  1.0000
  H   H182      1.0  0.55760  0.81708  0.00863  1.0000
  H   H183      1.0  0.68766  0.65043  0.69783  1.0000
  C   C182      1.0  0.67159  0.80238  0.01297  1.0000
  Fe  Fe30      1.0  0.83064  0.06397  0.48279  1.0000
  S   S59       1.0  0.78649  0.07505  0.44746  1.0000
  S   S60       1.0  0.89293  0.09984  0.45677  1.0000
  H   H184      1.0  0.82717  0.07500  0.22017  1.0000
  H   H185      1.0  0.71770  0.33739  0.43583  1.0000
  S   S61       1.0  0.77268  0.47822  0.47982  1.0000
  Fe  Fe31      1.0  0.99849  0.24395  0.21519  1.0000
  C   C183      1.0  0.85445  0.03722  0.34323  1.0000
  S   S62       1.0  0.93928  0.20080  0.24708  1.0000
  C   C184      1.0  0.88255  0.06194  0.30742  1.0000
  H   H186      1.0  0.93072  0.11769  0.24541  1.0000
  S   S63       1.0  0.00272  0.24737  0.12629  1.0000
  C   C185      1.0  0.76306  0.28302  0.03224  1.0000
  C   C186      1.0  0.94013  0.29435  0.07783  1.0000
  C   C187      1.0  0.83503  0.06430  0.25452  1.0000
  C   C188      1.0  0.97072  0.32764  0.05594  1.0000
  C   C189      1.0  0.90267  0.27965  0.05791  1.0000
  C   C190      1.0  0.90224  0.10019  0.22582  1.0000
  C   C191      1.0  0.90616  0.13028  0.40055  1.0000
  C   C192      1.0  0.87852  0.13203  0.36911  1.0000
  C   C193      1.0  0.88951  0.15502  0.32346  1.0000
  C   C194      1.0  0.92823  0.17648  0.30843  1.0000
  C   C195      1.0  0.95610  0.17525  0.34006  1.0000
  C   C196      1.0  0.94504  0.15221  0.38601  1.0000
  H   H187      1.0  0.84852  0.11495  0.37892  1.0000
  H   H188      1.0  0.86776  0.15560  0.29898  1.0000
  H   H189      1.0  0.98601  0.19145  0.32860  1.0000
  H   H190      1.0  0.96668  0.15101  0.40996  1.0000
  C   C197      1.0  0.81606  0.02580  0.33385  1.0000
  H   H191      1.0  0.94523  0.28017  0.11060  1.0000
  H   H192      1.0  0.72942  0.32075  0.06893  1.0000
  H   H193      1.0  0.86896  0.20252  0.46230  1.0000
  C   C198      1.0  0.71743  0.29200  0.08543  1.0000
  H   H194      1.0  0.90469  0.08241  0.19392  1.0000
  N   N15       1.0  0.73123  0.26846  0.07004  1.0000
  H   H195      1.0  0.70594  0.40358  0.31135  1.0000
  H   H196      1.0  0.82058  0.16368  0.47641  1.0000
  Fe  Fe32      1.0  0.73376  0.50284  0.48295  1.0000
  H   H197      1.0  0.91241  0.07126  0.31557  1.0000
  S   S64       1.0  0.01838  0.34619  0.07902  1.0000
  H   H198      1.0  0.72208  0.45198  0.38293  1.0000
  H   H199      1.0  0.78926  0.30805  0.04934  1.0000
  H   H200      1.0  0.77068  0.26072  0.02163  1.0000
  H   H201      1.0  0.87912  0.25424  0.07579  1.0000
  C   C199      1.0  0.85169  0.17475  0.48349  1.0000
  N   N16       1.0  0.87265  0.07531  0.26391  1.0000
  H   H202      1.0  0.85840  0.15327  0.46621  1.0000
  N   N17       1.0  0.71445  0.37145  0.49882  1.0000
  C   C200      1.0  0.71525  0.23163  0.08929  1.0000
  H   H203      1.0  0.72588  0.21279  0.07662  1.0000
  H   H204      1.0  0.76135  0.36056  0.50662  1.0000
  C   C201      1.0  0.69278  0.43508  0.36897  1.0000
  H   H205      1.0  0.77631  0.03097  0.28251  1.0000
  H   H206      1.0  0.89540  0.12140  0.20800  1.0000
  H   H207      1.0  0.86251  0.02772  0.37869  1.0000
  C   C202      1.0  0.80619  0.03948  0.28942  1.0000
  C   C203      1.0  0.70172  0.34976  0.45336  1.0000
  Fe  Fe33      1.0  0.78265  0.49261  0.56674  1.0000
  C   C204      1.0  0.88177  0.16658  0.56330  1.0000
  S   S65       1.0  0.76628  0.44398  0.62629  1.0000
  C   C205      1.0  0.82350  0.43152  0.82238  1.0000
  S   S66       1.0  0.75411  0.12134  0.55337  1.0000
  S   S67       1.0  0.81372  0.06738  0.56680  1.0000
  Fe  Fe34      1.0  0.81987  0.32260  0.80955  1.0000
  S   S68       1.0  0.75886  0.27627  0.79386  1.0000
  S   S69       1.0  0.85253  0.37382  0.75429  1.0000
  Fe  Fe35      1.0  0.82447  0.28630  0.91502  1.0000
  S   S70       1.0  0.76319  0.23824  0.90609  1.0000
  H   H208      1.0  0.91795  0.20441  0.96293  1.0000
  Fe  Fe36      1.0  0.77850  0.23529  0.82112  1.0000
  S   S71       1.0  0.76754  0.17676  0.79150  1.0000
  Fe  Fe37      1.0  0.74985  0.28366  0.88050  1.0000
  C   C206      1.0  0.84158  0.48817  0.76944  1.0000
  S   S72       1.0  0.84042  0.28121  0.83128  1.0000
  S   S73       1.0  0.81013  0.33218  0.89468  1.0000
  H   H209      1.0  0.79424  0.49238  0.73728  1.0000
  H   H210      1.0  0.79051  0.12773  0.74051  1.0000
  N   N18       1.0  0.78550  0.41948  0.81452  1.0000
  H   H211      1.0  0.88143  0.19477  0.69058  1.0000
  H   H212      1.0  0.82936  0.21011  0.55179  1.0000
  C   C207      1.0  0.76130  0.13909  0.61886  1.0000
  C   C208      1.0  0.77608  0.12547  0.65783  1.0000
  C   C209      1.0  0.77995  0.13906  0.71020  1.0000
  C   C210      1.0  0.76895  0.16614  0.72400  1.0000
  C   C211      1.0  0.75560  0.18088  0.68459  1.0000
  C   C212      1.0  0.75171  0.16728  0.63217  1.0000
  H   H213      1.0  0.78390  0.10402  0.64791  1.0000
  H   H214      1.0  0.92088  0.34479  0.96020  1.0000
  H   H215      1.0  0.74683  0.20157  0.69492  1.0000
  H   H216      1.0  0.74040  0.17804  0.60209  1.0000
  C   C213      1.0  0.82836  0.39028  0.71259  1.0000
  C   C214      1.0  0.84974  0.42390  0.68225  1.0000
  C   C215      1.0  0.83127  0.44004  0.65335  1.0000
  C   C216      1.0  0.79126  0.42268  0.65494  1.0000
  C   C217      1.0  0.76989  0.38824  0.68348  1.0000
  C   C218      1.0  0.78829  0.37203  0.71193  1.0000
  H   H217      1.0  0.88078  0.43812  0.68232  1.0000
  H   H218      1.0  0.84806  0.46654  0.63146  1.0000
  H   H219      1.0  0.73891  0.37449  0.68477  1.0000
  H   H220      1.0  0.77145  0.34593  0.73444  1.0000
  S   S74       1.0  0.84744  0.27810  0.99325  1.0000
  H   H221      1.0  0.74485  0.43169  0.77839  1.0000
  C   C219      1.0  0.77492  0.44146  0.78554  1.0000
  C   C220      1.0  0.75623  0.38281  0.83762  1.0000
  H   H222      1.0  0.94629  0.27512  0.95110  1.0000
  S   S75       1.0  0.74089  0.51451  0.57065  1.0000
  H   H223      1.0  0.72723  0.37258  0.82058  1.0000
  C   C221      1.0  0.94853  0.22369  0.96892  1.0000
  C   C222      1.0  0.72953  0.03937  0.77171  1.0000
  H   H224      1.0  0.83190  0.41365  0.84423  1.0000
  H   H225      1.0  0.90611  0.15988  0.63586  1.0000
  C   C223      1.0  0.85209  0.46591  0.79979  1.0000
  H   H226      1.0  0.88211  0.47429  0.80408  1.0000
  H   H227      1.0  0.89246  0.15119  0.53982  1.0000
  Fe  Fe38      1.0  0.76694  0.07423  0.53050  1.0000
  C   C224      1.0  0.80277  0.47601  0.76239  1.0000
  C   C225      1.0  0.96443  0.26341  0.96222  1.0000
  C   C226      1.0  0.85487  0.20581  0.62420  1.0000
  H   H228      1.0  0.76318  0.35967  0.82962  1.0000
  S   S76       1.0  0.70699  0.30027  0.91124  1.0000
  C   C227      1.0  0.92611  0.33056  0.99275  1.0000
  H   H229      1.0  0.74367  0.03729  0.80706  1.0000
  H   H230      1.0  0.98709  0.37156  0.99629  1.0000
  C   C228      1.0  0.71006  0.02221  0.68060  1.0000
  C   C229      1.0  0.00365  0.28816  0.97184  1.0000
  H   H231      1.0  0.75482  0.38587  0.88116  1.0000
  H   H232      1.0  0.96021  0.17825  0.98907  1.0000
  C   C230      1.0  0.97213  0.20908  0.98373  1.0000
  C   C231      1.0  0.87606  0.19121  0.64823  1.0000
  C   C232      1.0  0.69573  0.06584  0.72518  1.0000
  C   C233      1.0  0.88973  0.17155  0.61765  1.0000
  C   C234      1.0  0.84704  0.19991  0.56989  1.0000
  N   N19       1.0  0.69485  0.04605  0.68033  1.0000
  N   N20       1.0  0.86019  0.18024  0.54033  1.0000
  C   C235      1.0  0.01129  0.23465  0.99258  1.0000
  H   H233      1.0  0.69065  0.04684  0.59619  1.0000
  C   C236      1.0  0.71330  0.06304  0.77141  1.0000
  H   H234      1.0  0.71531  0.08012  0.80614  1.0000
  H   H235      1.0  0.74349  0.36887  0.56747  1.0000
  H   H236      1.0  0.70544  0.40620  0.55487  1.0000
  H   H237      1.0  0.84343  0.22046  0.64781  1.0000
  C   C237      1.0  0.74951  0.37753  0.52522  1.0000
  H   H238      1.0  0.86340  0.51418  0.75012  1.0000
  H   H239      1.0  0.75509  0.29202  0.99506  1.0000
  C   C238      1.0  0.96356  0.34574  0.01340  1.0000
  H   H240      1.0  0.01561  0.31914  0.96800  1.0000
  C   C239      1.0  0.89546  0.29754  0.01525  1.0000
  H   H241      1.0  0.77202  0.40863  0.52387  1.0000
  C   C240      1.0  0.69485  0.38809  0.51976  1.0000
  C   C241      1.0  0.72780  0.01868  0.72613  1.0000
  C   C242      1.0  0.95210  0.80798  0.04773  1.0000
  S   S77       1.0  0.78013  0.56308  0.46331  1.0000
  S   S78       1.0  0.85937  0.55299  0.39511  1.0000
  H   H242      1.0  0.82766  0.61476  0.37443  1.0000
  C   C243      1.0  0.99218  0.69990  0.04704  1.0000
  S   S79       1.0  0.79374  0.99890  0.47764  1.0000
  C   C244      1.0  0.76321  0.77505  0.04565  1.0000
  H   H243      1.0  0.89525  0.69161  0.24978  1.0000
  S   S80       1.0  0.99698  0.72255  0.34658  1.0000
  Fe  Fe39      1.0  0.99192  0.77042  0.16290  1.0000
  S   S81       1.0  0.93369  0.75283  0.12603  1.0000
  S   S82       1.0  0.99655  0.71846  0.18475  1.0000
  H   H244      1.0  0.85589  0.63527  0.46570  1.0000
  H   H245      1.0  0.88364  0.68547  0.48081  1.0000
  N   N21       1.0  0.79029  0.81610  0.03563  1.0000
  C   C245      1.0  0.01566  0.73584  0.02350  1.0000
  H   H246      1.0  0.75134  0.83405  0.06186  1.0000
  C   C246      1.0  0.95237  0.68263  0.04283  1.0000
  C   C247      1.0  0.89931  0.59940  0.38276  1.0000
  C   C248      1.0  0.91731  0.62649  0.42344  1.0000
  C   C249      1.0  0.94795  0.66374  0.41185  1.0000
  C   C250      1.0  0.96067  0.67433  0.35951  1.0000
  C   C251      1.0  0.94321  0.64699  0.31894  1.0000
  C   C252      1.0  0.91286  0.60956  0.33065  1.0000
  H   H247      1.0  0.90779  0.61865  0.46388  1.0000
  H   H248      1.0  0.96165  0.68458  0.44354  1.0000
  H   H249      1.0  0.95297  0.65470  0.27858  1.0000
  H   H250      1.0  0.89939  0.58856  0.29906  1.0000
  N   N22       1.0  0.86988  0.67185  0.39844  1.0000
  C   C253      1.0  0.89846  0.70754  0.38257  1.0000
  C   C254      1.0  0.84963  0.64336  0.36184  1.0000
  C   C255      1.0  0.90774  0.71521  0.32889  1.0000
  C   C256      1.0  0.85816  0.65007  0.30784  1.0000
  C   C257      1.0  0.88749  0.68625  0.29136  1.0000
  H   H251      1.0  0.98060  0.82335  0.06488  1.0000
  H   H252      1.0  0.93159  0.74292  0.31667  1.0000
  H   H253      1.0  0.00488  0.68604  0.06952  1.0000
  S   S83       1.0  0.00885  0.79694  0.24432  1.0000
  H   H254      1.0  0.91522  0.72989  0.41148  1.0000
  Fe  Fe40      1.0  0.82018  0.53963  0.46615  1.0000
  Fe  Fe41      1.0  0.01703  0.74688  0.26407  1.0000
  C   C258      1.0  0.92392  0.77353  0.07063  1.0000
  H   H255      1.0  0.84294  0.62692  0.27927  1.0000
  C   C259      1.0  0.80382  0.88182  0.03276  1.0000
  C   C260      1.0  0.86026  0.66408  0.45478  1.0000
  H   H256      1.0  0.79451  0.90266  0.03912  1.0000
  H   H257      1.0  0.79390  0.00657  0.36109  1.0000
  C   C261      1.0  0.88694  0.75403  0.04806  1.0000
  H   H258      1.0  0.77858  0.75925  0.05495  1.0000
  Fe  Fe42      1.0  0.74802  0.01053  0.44658  1.0000
  H   H259      1.0  0.86502  0.72724  0.06538  1.0000
  H   H260      1.0  0.83344  0.66442  0.46375  1.0000
  H   H261      1.0  0.93385  0.65538  0.06242  1.0000
  H   H262      1.0  0.69133  0.91693  0.41954  1.0000
  C   C262      1.0  0.77959  0.84296  0.04590  1.0000
  S   S84       1.0  0.71643  0.99100  0.36781  1.0000
  H   H263      1.0  0.74405  0.77131  0.07954  1.0000
  H   H264      1.0  0.96509  0.84959  0.98549  1.0000
  H   H265      1.0  0.72372  0.60372  0.73488  1.0000
  S   S85       1.0  0.75572  0.96571  0.63256  1.0000
  Fe  Fe43      1.0  0.79132  0.57265  0.55096  1.0000
  S   S86       1.0  0.80959  0.63328  0.58111  1.0000
  S   S87       1.0  0.83415  0.55204  0.55305  1.0000
  Fe  Fe44      1.0  0.80544  0.82212  0.78410  1.0000
  S   S88       1.0  0.74544  0.77439  0.80184  1.0000
  S   S89       1.0  0.82217  0.85882  0.70926  1.0000
  Fe  Fe45      1.0  0.83939  0.80143  0.88064  1.0000
  S   S90       1.0  0.78168  0.75231  0.90479  1.0000
  S   S91       1.0  0.89655  0.82344  0.92402  1.0000
  Fe  Fe46      1.0  0.77299  0.73826  0.81703  1.0000
  S   S92       1.0  0.74582  0.67677  0.78472  1.0000
  Fe  Fe47      1.0  0.75946  0.79274  0.88715  1.0000
  H   H266      1.0  0.75313  0.78736  0.68610  1.0000
  S   S93       1.0  0.83213  0.78474  0.79435  1.0000
  S   S94       1.0  0.81810  0.84310  0.86819  1.0000
  C   C263      1.0  0.90622  0.80325  0.98018  1.0000
  H   H267      1.0  0.80518  0.80116  0.62267  1.0000
  C   C264      1.0  0.96091  0.73679  0.99077  1.0000
  S   S95       1.0  0.72401  0.01070  0.52683  1.0000
  H   H268      1.0  0.83305  0.80565  0.00282  1.0000
  C   C265      1.0  0.79406  0.64363  0.64144  1.0000
  C   C266      1.0  0.81263  0.68200  0.66004  1.0000
  C   C267      1.0  0.79903  0.69230  0.70501  1.0000
  C   C268      1.0  0.76664  0.66428  0.73191  1.0000
  C   C269      1.0  0.74874  0.62564  0.71425  1.0000
  C   C270      1.0  0.76233  0.61532  0.66917  1.0000
  H   H269      1.0  0.83729  0.70408  0.63898  1.0000
  H   H270      1.0  0.81308  0.72211  0.71796  1.0000
  H   H271      1.0  0.94829  0.75135  0.96986  1.0000
  H   H272      1.0  0.74776  0.58567  0.65524  1.0000
  C   C271      1.0  0.80337  0.88844  0.68880  1.0000
  C   C272      1.0  0.81710  0.90986  0.64181  1.0000
  C   C273      1.0  0.80284  0.93360  0.62394  1.0000
  C   C274      1.0  0.77458  0.93610  0.65295  1.0000
  C   C275      1.0  0.76078  0.91460  0.69986  1.0000
  C   C276      1.0  0.77505  0.89088  0.71774  1.0000
  H   H273      1.0  0.83903  0.90821  0.61918  1.0000
  H   H274      1.0  0.81376  0.94998  0.58784  1.0000
  H   H275      1.0  0.73888  0.91625  0.72255  1.0000
  H   H276      1.0  0.76421  0.87457  0.75392  1.0000
  C   C277      1.0  0.75162  0.70323  0.60889  1.0000
  C   C278      1.0  0.72404  0.72549  0.67308  1.0000
  H   H277      1.0  0.85809  0.92301  0.99793  1.0000
  S   S96       1.0  0.72669  0.81119  0.94211  1.0000
  H   H278      1.0  0.80426  0.74677  0.57255  1.0000
  C   C279      1.0  0.87814  0.76864  0.00287  1.0000
  C   C280      1.0  0.85013  0.86566  0.99956  1.0000
  C   C281      1.0  0.78208  0.77155  0.62835  1.0000
  Fe  Fe48      1.0  0.77238  0.00332  0.55878  1.0000
  C   C282      1.0  0.94322  0.82275  0.00275  1.0000
  C   C283      1.0  0.78148  0.74113  0.60024  1.0000
  H   H279      1.0  0.84972  0.75304  0.98551  1.0000
  H   H280      1.0  0.75168  0.67969  0.58740  1.0000
  C   C284      1.0  0.75294  0.76377  0.66446  1.0000
  N   N23       1.0  0.72376  0.69580  0.64560  1.0000
  C   C285      1.0  0.69257  0.65607  0.65459  1.0000
  H   H281      1.0  0.70896  0.00599  0.64540  1.0000
  N   N24       1.0  0.99993  0.75379  0.99579  1.0000
  H   H282      1.0  0.01147  0.79853  0.94028  1.0000
  H   H283      1.0  0.74033  0.00015  0.72570  1.0000
  H   H284      1.0  0.70210  0.71960  0.70241  1.0000
  H   H285      1.0  0.87734  0.87397  0.98045  1.0000
  C   C286      1.0  0.83932  0.89316  0.00943  1.0000
  H   H286      1.0  0.69965  0.63449  0.63851  1.0000
  C   C287      1.0  0.82495  0.82697  0.01248  1.0000
  H   H287      1.0  0.74495  0.76173  0.00998  1.0000
  H   H288      1.0  0.90564  0.68844  0.01192  1.0000
  C   C288      1.0  0.93655  0.70103  0.01430  1.0000
