data_image0
_chemical_formula_structural       H3SHFeSC3H3C2HFeC2HCSHCHSC6NC3SC3SFeH9C3SCHCFeSH3FeH2FeH3CH2S2CNCHS2FeS2FeSFeS2FeC6H2SCHSHC2NCH4CSCHSC2HFeSHCHCH2SC2FeCH2FeCH2SCFeSC2HCH4C2HCHC2NCHCH6SC2H3CHCHCH2C3HCNCH2FeH3SHCSHS2C3HCNC2HC2HSH4CHCHCS2FeH4SCSCSC2FeHCSH2CHNCHC2H3C2H2CHC3HCHC2H3FeS2FeS2FeSFeS3FeS2FeH2Fe2NS2H2CHC2H2C2HC2H2CHC8H3CNC2HC2SC9H2CHCH3SC3HCH3CH3CH2CNHNH2CH4C2HCHCHCHCHCSFeS2HCH2CHCH2CHC6H5C2SHNC2H4CNC3NC2H2C2H2C2SH2SFeH4CHSHCHSFeS2C2HFeCHCH4C2H2CH2SC4H2C2HNC6H2CHCHCHCFeC2HCNHNCFeHSFeS2H3C3H3NH2C3FeHCSHFeS2FeCNFeSCSHFeSCFeS2FeSFeHS2H2C2HNSC3H2CH3C6H7CNHSC3SC3HCH3C2H3SHC2H2FeCHCHCH2SFeSFeSHFeHSHCHCHCH2FeC2H4C3H2SCSC2HNSHC2H2C5HCH2C2HC2HC3FeSNFeH2SCFeC4HSH2C2HSC3H2SHSHC3SCSCHCHC2HCHCHCH3CNCH2SCHCH2
_chemical_formula_sum              "H288 S96 Fe48 C288 N24"
_cell_length_a       36.0487
_cell_length_b       37.2811
_cell_length_c       53.2838
_cell_angle_alpha    89.7118
_cell_angle_beta     89.9325
_cell_angle_gamma    115.989

_space_group_name_H-M_alt    "P 1"
_space_group_IT_number       1

loop_
  _space_group_symop_operation_xyz
  'x, y, z'

loop_
  _atom_site_type_symbol
  _atom_site_label
  _atom_site_symmetry_multiplicity
  _atom_site_fract_x
  _atom_site_fract_y
  _atom_site_fract_z
  _atom_site_occupancy
  H   H1        1.0  0.34006  0.41637  0.15497  1.0000
  H   H2        1.0  0.36407  0.17285  0.18285  1.0000
  H   H3        1.0  0.37012  0.36114  0.25160  1.0000
  S   S1        1.0  0.36143  0.39940  0.29631  1.0000
  H   H4        1.0  0.34256  0.35207  0.14691  1.0000
  Fe  Fe1       1.0  0.44360  0.30747  0.18326  1.0000
  S   S2        1.0  0.41870  0.04298  0.02060  1.0000
  C   C1        1.0  0.34261  0.13286  0.12525  1.0000
  C   C2        1.0  0.43458  0.11214  0.11754  1.0000
  C   C3        1.0  0.38193  0.36522  0.29137  1.0000
  H   H5        1.0  0.37255  0.11135  0.17974  1.0000
  H   H6        1.0  0.33867  0.16318  0.09147  1.0000
  H   H7        1.0  0.31790  0.08456  0.17317  1.0000
  C   C4        1.0  0.42087  0.31581  0.28246  1.0000
  C   C5        1.0  0.40305  0.32730  0.26258  1.0000
  H   H8        1.0  0.40476  0.31764  0.24369  1.0000
  Fe  Fe2       1.0  0.41697  0.06124  0.06064  1.0000
  C   C6        1.0  0.38345  0.35189  0.26706  1.0000
  C   C7        1.0  0.36698  0.37501  0.15751  1.0000
  H   H9        1.0  0.33735  0.10571  0.11531  1.0000
  C   C8        1.0  0.39975  0.36823  0.16660  1.0000
  S   S3        1.0  0.41406  0.11925  0.06873  1.0000
  H   H10       1.0  0.36515  0.23117  0.15959  1.0000
  C   C9        1.0  0.41791  0.32783  0.30693  1.0000
  H   H11       1.0  0.35275  0.22661  0.11373  1.0000
  S   S4        1.0  0.40161  0.32308  0.15926  1.0000
  C   C10       1.0  0.36552  0.41136  0.16210  1.0000
  C   C11       1.0  0.43097  0.13723  0.09911  1.0000
  C   C12       1.0  0.43137  0.39823  0.18016  1.0000
  C   C13       1.0  0.43028  0.43493  0.18439  1.0000
  C   C14       1.0  0.34888  0.10146  0.16463  1.0000
  C   C15       1.0  0.35773  0.17045  0.16287  1.0000
  N   N1        1.0  0.35025  0.13588  0.15050  1.0000
  C   C16       1.0  0.35857  0.20350  0.14984  1.0000
  C   C17       1.0  0.34333  0.16535  0.11162  1.0000
  C   C18       1.0  0.35149  0.20091  0.12405  1.0000
  S   S5        1.0  0.41660  0.25205  0.20703  1.0000
  C   C19       1.0  0.43853  0.17633  0.10539  1.0000
  C   C20       1.0  0.39726  0.44145  0.17538  1.0000
  C   C21       1.0  0.34659  0.45093  0.24321  1.0000
  S   S6        1.0  0.45050  0.29000  0.27660  1.0000
  Fe  Fe3       1.0  0.46287  0.28913  0.23550  1.0000
  H   H12       1.0  0.35610  0.08127  0.15237  1.0000
  H   H13       1.0  0.33534  0.46201  0.29162  1.0000
  H   H14       1.0  0.42880  0.08192  0.11291  1.0000
  H   H15       1.0  0.45523  0.45833  0.19431  1.0000
  H   H16       1.0  0.45735  0.39379  0.18661  1.0000
  H   H17       1.0  0.32084  0.42581  0.25292  1.0000
  H   H18       1.0  0.43590  0.19590  0.09118  1.0000
  H   H19       1.0  0.45266  0.21951  0.13505  1.0000
  H   H20       1.0  0.33705  0.45168  0.22344  1.0000
  C   C22       1.0  0.45051  0.16424  0.14882  1.0000
  C   C23       1.0  0.44444  0.12567  0.14229  1.0000
  C   C24       1.0  0.44819  0.18980  0.13022  1.0000
  S   S7        1.0  0.37227  0.99981  0.07364  1.0000
  C   C25       1.0  0.46721  0.42996  0.24657  1.0000
  H   H21       1.0  0.37387  0.44452  0.24326  1.0000
  C   C26       1.0  0.39859  0.35268  0.31137  1.0000
  Fe  Fe4       1.0  0.46794  0.24024  0.19129  1.0000
  S   S8        1.0  0.45667  0.17785  0.18070  1.0000
  H   H22       1.0  0.44635  0.10580  0.15657  1.0000
  H   H23       1.0  0.45685  0.39998  0.23815  1.0000
  H   H24       1.0  0.47025  0.48004  0.28279  1.0000
  Fe  Fe5       1.0  0.42936  0.99212  0.08216  1.0000
  H   H25       1.0  0.44016  0.43677  0.24634  1.0000
  H   H26       1.0  0.45433  0.39978  0.11522  1.0000
  Fe  Fe6       1.0  0.47154  0.03146  0.03373  1.0000
  H   H27       1.0  0.46094  0.47817  0.13839  1.0000
  H   H28       1.0  0.46835  0.46821  0.10621  1.0000
  H   H29       1.0  0.47368  0.14071  0.02818  1.0000
  C   C27       1.0  0.48390  0.47765  0.12465  1.0000
  H   H30       1.0  0.48500  0.27395  0.32106  1.0000
  H   H31       1.0  0.48238  0.35356  0.12948  1.0000
  S   S9        1.0  0.47344  0.05493  0.07236  1.0000
  S   S10       1.0  0.48546  0.34581  0.21325  1.0000
  C   C28       1.0  0.48200  0.41116  0.12663  1.0000
  N   N2        1.0  0.48213  0.43094  0.27223  1.0000
  C   C29       1.0  0.48198  0.45905  0.28857  1.0000
  H   H32       1.0  0.43154  0.31891  0.32237  1.0000
  S   S11       1.0  0.49136  0.29273  0.16514  1.0000
  S   S12       1.0  0.24745  0.40201  0.39528  1.0000
  Fe  Fe7       1.0  0.09469  0.34737  0.56326  1.0000
  S   S13       1.0  0.04361  0.36246  0.55189  1.0000
  S   S14       1.0  0.08704  0.30393  0.59447  1.0000
  Fe  Fe8       1.0  0.15432  0.40218  0.52397  1.0000
  S   S15       1.0  0.21968  0.42528  0.50985  1.0000
  Fe  Fe9       1.0  0.06359  0.35885  0.51253  1.0000
  S   S16       1.0  0.14334  0.41055  0.56452  1.0000
  S   S17       1.0  0.11011  0.33713  0.52383  1.0000
  Fe  Fe10      1.0  0.09298  0.42511  0.55026  1.0000
  C   C30       1.0  0.02124  0.31072  0.61746  1.0000
  C   C31       1.0  0.23988  0.41384  0.42628  1.0000
  C   C32       1.0  0.19959  0.40022  0.43574  1.0000
  C   C33       1.0  0.19289  0.40555  0.46117  1.0000
  C   C34       1.0  0.22654  0.42419  0.47724  1.0000
  C   C35       1.0  0.26669  0.43932  0.46755  1.0000
  H   H33       1.0  0.17353  0.38471  0.42350  1.0000
  H   H34       1.0  0.16176  0.39407  0.46849  1.0000
  S   S18       1.0  0.10881  0.42339  0.50971  1.0000
  C   C36       1.0  0.99476  0.36315  0.47579  1.0000
  H   H35       1.0  0.10755  0.42290  0.64532  1.0000
  S   S19       1.0  0.01763  0.33117  0.48180  1.0000
  H   H36       1.0  0.00341  0.40400  0.61577  1.0000
  C   C37       1.0  0.02744  0.24921  0.62372  1.0000
  C   C38       1.0  0.09936  0.47618  0.65087  1.0000
  N   N3        1.0  0.22735  0.33369  0.47073  1.0000
  C   C39       1.0  0.18617  0.31946  0.48200  1.0000
  H   H37       1.0  0.18631  0.33912  0.49767  1.0000
  H   H38       1.0  0.17578  0.28863  0.48930  1.0000
  H   H39       1.0  0.16344  0.32000  0.46809  1.0000
  H   H40       1.0  0.20425  0.31177  0.43427  1.0000
  C   C40       1.0  0.23131  0.32618  0.44600  1.0000
  S   S20       1.0  0.34074  0.45844  0.34909  1.0000
  C   C41       1.0  0.27333  0.43424  0.44215  1.0000
  H   H41       1.0  0.09191  0.41872  0.60016  1.0000
  S   S21       1.0  0.40905  0.37041  0.41766  1.0000
  C   C42       1.0  0.46155  0.33723  0.42585  1.0000
  C   C43       1.0  0.10023  0.44521  0.63661  1.0000
  H   H42       1.0  0.25847  0.35977  0.50473  1.0000
  Fe  Fe11      1.0  0.38756  0.40249  0.38986  1.0000
  S   S22       1.0  0.07696  0.47176  0.56669  1.0000
  H   H43       1.0  0.99959  0.48199  0.59381  1.0000
  C   C44       1.0  0.09207  0.44322  0.61087  1.0000
  H   H44       1.0  0.29280  0.45413  0.47987  1.0000
  C   C45       1.0  0.26163  0.35298  0.48527  1.0000
  H   H45       1.0  0.30436  0.44552  0.43505  1.0000
  H   H46       1.0  0.44042  0.32078  0.44076  1.0000
  S   S23       1.0  0.32881  0.37017  0.36836  1.0000
  C   C46       1.0  0.04217  0.28724  0.61298  1.0000
  C   C47       1.0  0.30118  0.36569  0.47501  1.0000
  Fe  Fe12      1.0  0.39869  0.48331  0.37164  1.0000
  C   C48       1.0  0.27037  0.33847  0.43515  1.0000
  H   H47       1.0  0.27333  0.33370  0.41532  1.0000
  H   H48       1.0  0.33591  0.36844  0.44146  1.0000
  Fe  Fe13      1.0  0.31265  0.41836  0.38234  1.0000
  C   C49       1.0  0.30547  0.35830  0.44978  1.0000
  H   H49       1.0  0.47384  0.40469  0.37959  1.0000
  H   H50       1.0  0.32829  0.38183  0.48640  1.0000
  S   S24       1.0  0.42278  0.44117  0.35764  1.0000
  C   C50       1.0  0.45283  0.36318  0.41059  1.0000
  Fe  Fe14      1.0  0.36239  0.41319  0.33734  1.0000
  S   S25       1.0  0.36917  0.44758  0.40610  1.0000
  C   C51       1.0  0.08425  0.47283  0.59917  1.0000
  C   C52       1.0  0.00016  0.39327  0.49289  1.0000
  H   H51       1.0  0.47558  0.45092  0.43252  1.0000
  C   C53       1.0  0.48034  0.38449  0.39135  1.0000
  H   H52       1.0  0.04355  0.23104  0.62038  1.0000
  H   H53       1.0  0.01878  0.39726  0.50942  1.0000
  H   H54       1.0  0.03277  0.34032  0.60935  1.0000
  H   H55       1.0  0.39708  0.36249  0.33023  1.0000
  C   C54       1.0  0.99414  0.40651  0.65543  1.0000
  C   C55       1.0  0.03774  0.34296  0.71600  1.0000
  H   H56       1.0  0.00799  0.38678  0.66019  1.0000
  C   C56       1.0  0.03186  0.31237  0.69905  1.0000
  H   H57       1.0  0.06760  0.39897  0.75126  1.0000
  C   C57       1.0  0.02077  0.44606  0.78549  1.0000
  C   C58       1.0  0.01223  0.37998  0.79773  1.0000
  N   N4        1.0  0.07201  0.37881  0.71445  1.0000
  C   C59       1.0  0.07637  0.41078  0.73185  1.0000
  H   H58       1.0  0.05624  0.42481  0.72579  1.0000
  C   C60       1.0  0.10092  0.38536  0.69608  1.0000
  H   H59       1.0  0.10862  0.43460  0.73238  1.0000
  H   H60       1.0  0.12786  0.41394  0.69453  1.0000
  H   H61       1.0  0.36696  0.99256  0.97570  1.0000
  H   H62       1.0  0.05154  0.43431  0.81683  1.0000
  H   H63       1.0  0.00450  0.28400  0.70021  1.0000
  H   H64       1.0  0.05740  0.29531  0.66723  1.0000
  S   S26       1.0  0.11104  0.47874  0.68286  1.0000
  C   C61       1.0  0.03009  0.42137  0.80157  1.0000
  C   C62       1.0  0.47887  0.13782  0.98796  1.0000
  H   H65       1.0  0.01472  0.33793  0.73041  1.0000
  H   H66       1.0  0.44897  0.13721  0.98434  1.0000
  H   H67       1.0  0.01993  0.36113  0.81007  1.0000
  C   C63       1.0  0.09602  0.35546  0.67880  1.0000
  H   H68       1.0  0.46710  0.04347  0.98005  1.0000
  C   C64       1.0  0.06138  0.31873  0.68044  1.0000
  H   H69       1.0  0.46165  0.03896  0.93372  1.0000
  C   C65       1.0  0.48722  0.03685  0.94315  1.0000
  H   H70       1.0  0.37408  0.98898  0.92951  1.0000
  H   H71       1.0  0.11874  0.36085  0.66405  1.0000
  C   C66       1.0  0.47615  0.98834  0.83601  1.0000
  C   C67       1.0  0.49024  0.03928  0.96938  1.0000
  C   C68       1.0  0.99274  0.42904  0.76587  1.0000
  H   H72       1.0  0.32485  0.89079  0.05895  1.0000
  C   C69       1.0  0.33538  0.84069  0.02754  1.0000
  N   N5        1.0  0.35678  0.48902  0.25576  1.0000
  C   C70       1.0  0.35505  0.88408  0.09205  1.0000
  H   H73       1.0  0.40267  0.82337  0.09682  1.0000
  H   H74       1.0  0.42396  0.91198  0.99408  1.0000
  Fe  Fe15      1.0  0.45629  0.53447  0.19325  1.0000
  H   H75       1.0  0.35546  0.52645  0.31340  1.0000
  H   H76       1.0  0.33331  0.81170  0.02078  1.0000
  H   H77       1.0  0.44540  0.69576  0.13497  1.0000
  S   S27       1.0  0.42790  0.83890  0.00994  1.0000
  H   H78       1.0  0.35013  0.90653  0.10255  1.0000
  C   C71       1.0  0.37037  0.82942  0.06414  1.0000
  S   S28       1.0  0.49050  0.62883  0.26607  1.0000
  H   H79       1.0  0.35795  0.86475  0.01549  1.0000
  S   S29       1.0  0.43927  0.96488  0.11767  1.0000
  S   S30       1.0  0.47269  0.80079  0.06615  1.0000
  C   C72       1.0  0.34120  0.87531  0.06732  1.0000
  C   C73       1.0  0.37578  0.52395  0.24249  1.0000
  C   C74       1.0  0.38462  0.83744  0.08885  1.0000
  H   H80       1.0  0.40356  0.58843  0.24396  1.0000
  C   C75       1.0  0.45914  0.72870  0.13250  1.0000
  N   N6        1.0  0.34863  0.84803  0.05377  1.0000
  C   C76       1.0  0.37668  0.86483  0.10289  1.0000
  C   C77       1.0  0.48204  0.62895  0.31668  1.0000
  H   H81       1.0  0.44571  0.63360  0.10250  1.0000
  C   C78       1.0  0.37967  0.56159  0.27991  1.0000
  C   C79       1.0  0.47966  0.60567  0.29571  1.0000
  H   H82       1.0  0.47326  0.95495  0.99704  1.0000
  S   S31       1.0  0.32953  0.93044  0.01348  1.0000
  H   H83       1.0  0.45191  0.92196  0.07615  1.0000
  H   H84       1.0  0.38864  0.87239  0.12182  1.0000
  H   H85       1.0  0.41817  0.76193  0.99283  1.0000
  H   H86       1.0  0.38232  0.52359  0.22267  1.0000
  C   C80       1.0  0.38749  0.56071  0.25434  1.0000
  H   H87       1.0  0.38974  0.58998  0.28946  1.0000
  C   C81       1.0  0.47316  0.92398  0.09082  1.0000
  H   H88       1.0  0.37726  0.80859  0.05321  1.0000
  C   C82       1.0  0.46607  0.56442  0.29861  1.0000
  S   S32       1.0  0.47767  0.52907  0.23179  1.0000
  S   S33       1.0  0.47100  0.59930  0.19650  1.0000
  Fe  Fe16      1.0  0.47481  0.82125  0.02643  1.0000
  H   H89       1.0  0.44201  0.74096  0.14423  1.0000
  H   H90       1.0  0.45514  0.73408  0.11234  1.0000
  H   H91       1.0  0.46365  0.54625  0.28247  1.0000
  H   H92       1.0  0.30462  0.84039  0.02508  1.0000
  S   S34       1.0  0.43244  0.96814  0.04435  1.0000
  C   C83       1.0  0.47837  0.65216  0.10508  1.0000
  S   S35       1.0  0.47075  0.69826  0.06709  1.0000
  C   C84       1.0  0.36061  0.52590  0.29335  1.0000
  S   S36       1.0  0.39607  0.48759  0.17951  1.0000
  C   C85       1.0  0.34952  0.48964  0.28095  1.0000
  C   C86       1.0  0.47322  0.94311  0.11332  1.0000
  Fe  Fe17      1.0  0.37923  0.98089  0.03447  1.0000
  H   H93       1.0  0.48337  0.61771  0.13654  1.0000
  C   C87       1.0  0.45351  0.54647  0.32237  1.0000
  S   S37       1.0  0.43946  0.54872  0.37308  1.0000
  H   H94       1.0  0.10052  0.55776  0.55213  1.0000
  H   H95       1.0  0.04625  0.53234  0.55919  1.0000
  C   C88       1.0  0.01948  0.56953  0.61216  1.0000
  H   H96       1.0  0.07578  0.52598  0.60461  1.0000
  N   N7        1.0  0.06003  0.53953  0.52045  1.0000
  C   C89       1.0  0.06949  0.55411  0.54624  1.0000
  H   H97       1.0  0.06859  0.58336  0.54829  1.0000
  C   C90       1.0  0.07998  0.51946  0.50977  1.0000
  C   C91       1.0  0.49168  0.49941  0.40632  1.0000
  H   H98       1.0  0.99403  0.53229  0.47346  1.0000
  H   H99       1.0  0.03076  0.49691  0.45355  1.0000
  H   H100      1.0  0.01265  0.55880  0.51652  1.0000
  C   C92       1.0  0.02096  0.57054  0.63851  1.0000
  C   C93       1.0  0.45573  0.57002  0.34327  1.0000
  H   H101      1.0  0.04750  0.57722  0.60149  1.0000
  H   H102      1.0  0.44173  0.51452  0.32446  1.0000
  C   C94       1.0  0.08926  0.50460  0.63945  1.0000
  H   H103      1.0  0.04998  0.57868  0.64791  1.0000
  C   C95       1.0  0.02947  0.54415  0.50770  1.0000
  C   C96       1.0  0.01895  0.52945  0.48333  1.0000
  C   C97       1.0  0.03966  0.50964  0.47212  1.0000
  H   H104      1.0  0.46135  0.49886  0.40672  1.0000
  C   C98       1.0  0.08220  0.50321  0.61353  1.0000
  H   H105      1.0  0.10320  0.51451  0.52018  1.0000
  C   C99       1.0  0.47062  0.61127  0.34042  1.0000
  C   C100      1.0  0.07022  0.50435  0.48543  1.0000
  H   H106      1.0  0.47237  0.62953  0.35652  1.0000
  H   H107      1.0  0.08782  0.52816  0.65039  1.0000
  H   H108      1.0  0.08545  0.48768  0.47725  1.0000
  Fe  Fe18      1.0  0.36560  0.83030  0.83566  1.0000
  S   S38       1.0  0.31627  0.85124  0.83883  1.0000
  S   S39       1.0  0.40991  0.84775  0.80324  1.0000
  Fe  Fe19      1.0  0.34046  0.78347  0.88398  1.0000
  S   S40       1.0  0.28941  0.80084  0.89183  1.0000
  S   S41       1.0  0.35826  0.74585  0.90936  1.0000
  Fe  Fe20      1.0  0.27524  0.78821  0.85070  1.0000
  S   S42       1.0  0.20938  0.75208  0.83790  1.0000
  Fe  Fe21      1.0  0.33530  0.86201  0.87931  1.0000
  S   S43       1.0  0.35302  0.92297  0.89595  1.0000
  S   S44       1.0  0.32315  0.76625  0.84401  1.0000
  S   S45       1.0  0.38754  0.84536  0.87505  1.0000
  Fe  Fe22      1.0  0.12547  0.60468  0.72833  1.0000
  S   S46       1.0  0.12587  0.54717  0.74018  1.0000
  S   S47       1.0  0.18275  0.66226  0.73402  1.0000
  Fe  Fe23      1.0  0.04005  0.56306  0.70557  1.0000
  H   H109      1.0  0.38640  0.85476  0.96818  1.0000
  H   H110      1.0  0.39235  0.72629  0.95288  1.0000
  Fe  Fe24      1.0  0.06114  0.53004  0.75282  1.0000
  Fe  Fe25      1.0  0.09757  0.52419  0.70288  1.0000
  N   N8        1.0  0.18660  0.61704  0.80920  1.0000
  S   S48       1.0  0.06237  0.58946  0.74380  1.0000
  S   S49       1.0  0.10347  0.58345  0.68928  1.0000
  H   H111      1.0  0.26583  0.75869  0.79725  1.0000
  H   H112      1.0  0.05304  0.64669  0.67453  1.0000
  C   C101      1.0  0.34520  0.92467  0.92849  1.0000
  H   H113      1.0  0.10679  0.71889  0.75391  1.0000
  C   C102      1.0  0.32644  0.88968  0.94276  1.0000
  C   C103      1.0  0.35953  0.96179  0.94046  1.0000
  H   H114      1.0  0.31532  0.86095  0.93375  1.0000
  H   H115      1.0  0.37192  0.94584  0.84149  1.0000
  C   C104      1.0  0.12159  0.70469  0.71712  1.0000
  C   C105      1.0  0.17428  0.64519  0.84698  1.0000
  H   H116      1.0  0.24109  0.64697  0.78688  1.0000
  C   C106      1.0  0.37528  0.77063  0.93785  1.0000
  C   C107      1.0  0.37338  0.80676  0.94229  1.0000
  H   H117      1.0  0.11213  0.61706  0.86144  1.0000
  H   H118      1.0  0.08726  0.56533  0.82791  1.0000
  C   C108      1.0  0.39160  0.75461  0.95609  1.0000
  H   H119      1.0  0.36017  0.81898  0.92844  1.0000
  C   C109      1.0  0.40195  0.95474  0.83279  1.0000
  C   C110      1.0  0.47509  0.89523  0.83314  1.0000
  C   C111      1.0  0.20196  0.72898  0.80837  1.0000
  C   C112      1.0  0.16229  0.70080  0.80148  1.0000
  C   C113      1.0  0.15609  0.67973  0.77886  1.0000
  C   C114      1.0  0.18933  0.68778  0.76262  1.0000
  C   C115      1.0  0.22874  0.71673  0.76917  1.0000
  C   C116      1.0  0.23518  0.73691  0.79214  1.0000
  H   H120      1.0  0.13652  0.69451  0.81403  1.0000
  H   H121      1.0  0.12561  0.65741  0.77402  1.0000
  H   H122      1.0  0.25457  0.72316  0.75664  1.0000
  C   C117      1.0  0.09466  0.70335  0.73642  1.0000
  N   N9        1.0  0.10671  0.68416  0.69533  1.0000
  C   C118      1.0  0.21470  0.61698  0.78930  1.0000
  C   C119      1.0  0.40679  0.77508  0.97856  1.0000
  H   H123      1.0  0.15461  0.72158  0.71989  1.0000
  C   C120      1.0  0.47702  0.80371  0.89819  1.0000
  C   C121      1.0  0.11916  0.58789  0.82815  1.0000
  S   S50       1.0  0.04491  0.49808  0.78986  1.0000
  C   C122      1.0  0.40592  0.81166  0.98276  1.0000
  C   C123      1.0  0.20084  0.64475  0.82794  1.0000
  C   C124      1.0  0.44746  0.93781  0.93838  1.0000
  C   C125      1.0  0.13314  0.61667  0.84697  1.0000
  C   C126      1.0  0.06509  0.66293  0.69181  1.0000
  C   C127      1.0  0.14654  0.58840  0.80938  1.0000
  C   C128      1.0  0.33633  0.92881  0.98081  1.0000
  C   C129      1.0  0.44321  0.95429  0.79809  1.0000
  C   C130      1.0  0.13577  0.68612  0.67548  1.0000
  H   H124      1.0  0.44387  0.78592  0.89665  1.0000
  H   H125      1.0  0.18540  0.66831  0.86119  1.0000
  C   C131      1.0  0.47922  0.97683  0.81153  1.0000
  H   H126      1.0  0.23253  0.66764  0.82785  1.0000
  C   C132      1.0  0.32140  0.89177  0.96877  1.0000
  H   H127      1.0  0.44975  0.93500  0.89808  1.0000
  H   H128      1.0  0.19859  0.60945  0.77091  1.0000
  H   H129      1.0  0.30590  0.86451  0.97951  1.0000
  S   S51       1.0  0.03280  0.50231  0.71639  1.0000
  C   C133      1.0  0.35582  0.96387  0.96663  1.0000
  C   C134      1.0  0.45975  0.92756  0.91574  1.0000
  C   C135      1.0  0.38831  0.82706  0.96485  1.0000
  H   H130      1.0  0.48168  0.84939  0.77946  1.0000
  C   C136      1.0  0.48513  0.90816  0.91613  1.0000
  H   H131      1.0  0.13531  0.56584  0.79488  1.0000
  H   H132      1.0  0.00432  0.64345  0.70796  1.0000
  H   H133      1.0  0.22673  0.59493  0.79377  1.0000
  C   C137      1.0  0.05222  0.68128  0.73315  1.0000
  H   H134      1.0  0.48371  0.82901  0.86099  1.0000
  H   H135      1.0  0.43124  0.95930  0.98151  1.0000
  H   H136      1.0  0.14864  0.71589  0.66624  1.0000
  C   C138      1.0  0.03726  0.66112  0.71067  1.0000
  H   H137      1.0  0.42850  0.95354  0.93777  1.0000
  H   H138      1.0  0.34003  0.92128  0.80253  1.0000
  C   C139      1.0  0.46216  0.87135  0.81171  1.0000
  N   N10       1.0  0.40525  0.94439  0.80854  1.0000
  H   H139      1.0  0.45274  0.89911  0.84487  1.0000
  N   N11       1.0  0.45998  0.92898  0.96082  1.0000
  H   H140      1.0  0.44574  0.94415  0.77939  1.0000
  H   H141      1.0  0.43463  0.98517  0.86609  1.0000
  C   C140      1.0  0.36819  0.92195  0.79357  1.0000
  H   H142      1.0  0.12079  0.66286  0.66100  1.0000
  H   H143      1.0  0.37129  0.93571  0.77469  1.0000
  H   H144      1.0  0.16154  0.68098  0.68354  1.0000
  H   H145      1.0  0.36372  0.89070  0.79127  1.0000
  C   C141      1.0  0.48453  0.90959  0.96142  1.0000
  C   C142      1.0  0.43734  0.97696  0.84685  1.0000
  H   H146      1.0  0.48029  0.78355  0.93575  1.0000
  C   C143      1.0  0.44644  0.93936  0.98448  1.0000
  H   H147      1.0  0.03094  0.67947  0.74808  1.0000
  C   C144      1.0  0.49150  0.86774  0.79608  1.0000
  H   H148      1.0  0.58800  0.30090  0.25811  1.0000
  C   C145      1.0  0.51260  0.40600  0.30372  1.0000
  H   H149      1.0  0.49860  0.38317  0.26632  1.0000
  C   C146      1.0  0.56702  0.99992  0.06098  1.0000
  H   H150      1.0  0.69367  0.46222  0.23086  1.0000
  C   C147      1.0  0.53079  0.13979  0.01713  1.0000
  S   S52       1.0  0.51219  0.27254  0.22223  1.0000
  Fe  Fe26      1.0  0.53097  0.32634  0.19748  1.0000
  S   S53       1.0  0.59692  0.37089  0.19324  1.0000
  S   S54       1.0  0.53058  0.04421  0.01383  1.0000
  H   H151      1.0  0.54130  0.14028  0.03626  1.0000
  C   C148      1.0  0.49757  0.38475  0.13479  1.0000
  H   H152      1.0  0.60696  0.04075  0.02028  1.0000
  H   H153      1.0  0.63206  0.30336  0.27474  1.0000
  C   C149      1.0  0.53187  0.39851  0.15051  1.0000
  H   H154      1.0  0.60993  0.39180  0.28430  1.0000
  C   C150      1.0  0.59778  0.28761  0.27400  1.0000
  H   H155      1.0  0.51868  0.26960  0.28147  1.0000
  H   H156      1.0  0.57306  0.03183  0.06093  1.0000
  C   C151      1.0  0.49731  0.46138  0.31289  1.0000
  H   H157      1.0  0.58840  0.25559  0.27002  1.0000
  C   C152      1.0  0.59516  0.48285  0.26435  1.0000
  C   C153      1.0  0.62207  0.37806  0.22216  1.0000
  C   C154      1.0  0.66111  0.37882  0.22310  1.0000
  C   C155      1.0  0.68127  0.38323  0.24611  1.0000
  C   C156      1.0  0.62431  0.38833  0.26729  1.0000
  C   C157      1.0  0.60348  0.38264  0.24427  1.0000
  H   H158      1.0  0.67540  0.37504  0.20607  1.0000
  H   H159      1.0  0.71110  0.38281  0.24676  1.0000
  H   H160      1.0  0.57326  0.38211  0.24356  1.0000
  H   H161      1.0  0.59957  0.46157  0.25247  1.0000
  H   H162      1.0  0.57585  0.44877  0.17099  1.0000
  C   C158      1.0  0.66306  0.38812  0.26820  1.0000
  C   C159      1.0  0.53725  0.28048  0.29823  1.0000
  S   S55       1.0  0.68882  0.39158  0.29660  1.0000
  H   H163      1.0  0.54427  0.37841  0.15701  1.0000
  N   N12       1.0  0.57881  0.29169  0.29750  1.0000
  C   C160      1.0  0.54987  0.43819  0.15815  1.0000
  C   C161      1.0  0.61510  0.01692  0.02534  1.0000
  H   H164      1.0  0.65649  0.02832  0.99365  1.0000
  H   H165      1.0  0.61732  0.46553  0.29755  1.0000
  H   H166      1.0  0.58399  0.13745  0.00061  1.0000
  H   H167      1.0  0.52404  0.38474  0.30941  1.0000
  C   C162      1.0  0.49796  0.40515  0.27933  1.0000
  N   N13       1.0  0.50077  0.45046  0.13342  1.0000
  C   C163      1.0  0.55475  0.13816  0.99686  1.0000
  C   C164      1.0  0.53395  0.46398  0.14928  1.0000
  C   C165      1.0  0.64320  0.01015  0.01026  1.0000
  N   N14       1.0  0.59802  0.99377  0.04612  1.0000
  C   C166      1.0  0.51799  0.28276  0.32059  1.0000
  C   C167      1.0  0.60207  0.30490  0.31877  1.0000
  H   H168      1.0  0.71563  0.47845  0.27523  1.0000
  H   H169      1.0  0.63504  0.31377  0.31828  1.0000
  C   C168      1.0  0.49271  0.13979  0.01259  1.0000
  C   C169      1.0  0.60510  0.48500  0.28991  1.0000
  H   H170      1.0  0.49220  0.45190  0.23470  1.0000
  H   H171      1.0  0.56691  0.99077  0.08091  1.0000
  C   C170      1.0  0.51230  0.43439  0.32056  1.0000
  C   C171      1.0  0.88605  0.34463  0.62103  1.0000
  S   S56       1.0  0.67978  0.39829  0.36842  1.0000
  H   H172      1.0  0.60209  0.31775  0.35834  1.0000
  H   H173      1.0  0.94687  0.47796  0.63773  1.0000
  S   S57       1.0  0.60617  0.40967  0.33769  1.0000
  Fe  Fe27      1.0  0.91391  0.45818  0.50107  1.0000
  H   H174      1.0  0.88982  0.31826  0.53027  1.0000
  H   H175      1.0  0.84871  0.46731  0.39937  1.0000
  H   H176      1.0  0.97905  0.20358  0.64518  1.0000
  H   H177      1.0  0.53879  0.39759  0.37355  1.0000
  C   C172      1.0  0.96977  0.25669  0.64227  1.0000
  H   H178      1.0  0.71159  0.35741  0.45981  1.0000
  S   S58       1.0  0.85228  0.41372  0.51467  1.0000
  H   H179      1.0  0.71196  0.37370  0.41450  1.0000
  C   C173      1.0  0.94069  0.24188  0.57951  1.0000
  H   H180      1.0  0.94615  0.22233  0.59261  1.0000
  S   S59       1.0  0.93258  0.44508  0.46326  1.0000
  Fe  Fe28      1.0  0.88167  0.42024  0.55222  1.0000
  S   S60       1.0  0.87913  0.36700  0.57336  1.0000
  S   S61       1.0  0.94445  0.46022  0.53779  1.0000
  C   C174      1.0  0.95199  0.38413  0.45015  1.0000
  C   C175      1.0  0.96039  0.45805  0.64260  1.0000
  H   H181      1.0  0.94399  0.45537  0.59421  1.0000
  Fe  Fe29      1.0  0.84295  0.46738  0.52488  1.0000
  C   C176      1.0  0.91126  0.25555  0.58500  1.0000
  H   H182      1.0  0.97447  0.28903  0.52372  1.0000
  C   C177      1.0  0.87572  0.36971  0.60600  1.0000
  H   H183      1.0  0.78825  0.30411  0.64879  1.0000
  H   H184      1.0  0.93343  0.38061  0.43358  1.0000
  H   H185      1.0  0.89706  0.32478  0.61261  1.0000
  H   H186      1.0  0.89403  0.24687  0.60251  1.0000
  C   C178      1.0  0.85849  0.39629  0.64340  1.0000
  C   C179      1.0  0.92181  0.32111  0.52934  1.0000
  H   H187      1.0  0.71051  0.44319  0.48087  1.0000
  H   H188      1.0  0.50417  0.31260  0.43412  1.0000
  C   C180      1.0  0.90493  0.28111  0.56803  1.0000
  H   H189      1.0  0.85417  0.41524  0.60569  1.0000
  H   H190      1.0  0.49816  0.48440  0.32556  1.0000
  S   S62       1.0  0.86650  0.46980  0.56452  1.0000
  C   C181      1.0  0.96363  0.25410  0.55739  1.0000
  C   C182      1.0  0.73794  0.46008  0.46982  1.0000
  C   C183      1.0  0.86241  0.39594  0.61719  1.0000
  C   C184      1.0  0.97057  0.35844  0.45440  1.0000
  H   H191      1.0  0.84342  0.42303  0.46088  1.0000
  H   H192      1.0  0.52681  0.29816  0.35977  1.0000
  C   C185      1.0  0.51706  0.38046  0.38793  1.0000
  C   C186      1.0  0.98512  0.29553  0.63236  1.0000
  H   H193      1.0  0.77805  0.41576  0.39321  1.0000
  N   N15       1.0  0.81448  0.42170  0.42585  1.0000
  C   C187      1.0  0.81467  0.41175  0.45057  1.0000
  C   C188      1.0  0.77827  0.40741  0.41273  1.0000
  C   C189      1.0  0.77769  0.38839  0.46312  1.0000
  C   C190      1.0  0.74076  0.38367  0.42466  1.0000
  C   C191      1.0  0.74054  0.37446  0.45007  1.0000
  C   C192      1.0  0.50009  0.47263  0.42100  1.0000
  H   H194      1.0  0.96808  0.31296  0.63510  1.0000
  H   H195      1.0  0.98748  0.24459  0.55331  1.0000
  C   C193      1.0  0.52569  0.35454  0.40341  1.0000
  H   H196      1.0  0.92807  0.31635  0.50949  1.0000
  C   C194      1.0  0.54772  0.44685  0.43706  1.0000
  H   H197      1.0  0.77766  0.38234  0.48306  1.0000
  C   C195      1.0  0.73445  0.46642  0.44402  1.0000
  H   H198      1.0  0.87687  0.46662  0.42681  1.0000
  C   C196      1.0  0.85339  0.44716  0.41317  1.0000
  Fe  Fe30      1.0  0.70648  0.46345  0.37721  1.0000
  C   C197      1.0  0.95682  0.41374  0.46765  1.0000
  C   C198      1.0  0.95627  0.27942  0.54078  1.0000
  H   H199      1.0  0.52450  0.43615  0.33933  1.0000
  C   C199      1.0  0.54143  0.29630  0.34230  1.0000
  N   N16       1.0  0.53855  0.47372  0.42073  1.0000
  H   H200      1.0  0.86581  0.42840  0.40350  1.0000
  N   N17       1.0  0.92717  0.29254  0.54619  1.0000
  C   C200      1.0  0.58371  0.30731  0.34146  1.0000
  Fe  Fe31      1.0  0.66978  0.41621  0.32979  1.0000
  H   H201      1.0  0.88224  0.29190  0.57245  1.0000
  S   S63       1.0  0.78102  0.46331  0.51302  1.0000
  Fe  Fe32      1.0  0.61904  0.39834  0.37719  1.0000
  S   S64       1.0  0.57188  0.34995  0.40045  1.0000
  S   S65       1.0  0.64630  0.46211  0.38931  1.0000
  H   H202      1.0  0.94329  0.35205  0.53480  1.0000
  H   H203      1.0  0.70442  0.45433  0.43524  1.0000
  H   H204      1.0  0.84751  0.41608  0.65203  1.0000
  C   C201      1.0  0.88224  0.34504  0.64709  1.0000
  C   C202      1.0  0.77691  0.47451  0.48120  1.0000
  C   C203      1.0  0.49762  0.33262  0.42211  1.0000
  H   H205      1.0  0.96647  0.33519  0.44107  1.0000
  H   H206      1.0  0.56800  0.43586  0.42726  1.0000
  H   H207      1.0  0.56334  0.46271  0.45437  1.0000
  N   N18       1.0  0.97455  0.44168  0.62424  1.0000
  H   H208      1.0  0.51917  0.42000  0.44246  1.0000
  H   H209      1.0  0.97409  0.43015  0.58493  1.0000
  C   C204      1.0  0.99115  0.23381  0.63798  1.0000
  C   C205      1.0  0.97306  0.45284  0.59801  1.0000
  C   C206      1.0  0.98095  0.41816  0.48893  1.0000
  Fe  Fe33      1.0  0.63866  0.47393  0.34874  1.0000
  H   H210      1.0  0.98607  0.44163  0.50206  1.0000
  C   C207      1.0  0.99152  0.41640  0.63034  1.0000
  S   S66       1.0  0.70160  0.48166  0.33754  1.0000
  H   H211      1.0  0.73586  0.29868  0.64663  1.0000
  Fe  Fe34      1.0  0.66145  0.07997  0.86056  1.0000
  S   S67       1.0  0.59931  0.04092  0.84400  1.0000
  S   S68       1.0  0.70718  0.14188  0.84832  1.0000
  Fe  Fe35      1.0  0.64853  0.02383  0.90506  1.0000
  C   C208      1.0  0.76372  0.30908  0.65866  1.0000
  N   N19       1.0  0.75392  0.28759  0.68271  1.0000
  Fe  Fe36      1.0  0.57610  0.03344  0.88367  1.0000
  S   S69       1.0  0.51639  0.03247  0.89638  1.0000
  C   C209      1.0  0.96232  0.44873  0.66784  1.0000
  S   S70       1.0  0.63639  0.07719  0.89947  1.0000
  H   H212      1.0  0.84668  0.16215  0.76843  1.0000
  Fe  Fe37      1.0  0.91823  0.29223  0.74135  1.0000
  S   S71       1.0  0.89291  0.22973  0.72676  1.0000
  C   C210      1.0  0.73802  0.24686  0.68275  1.0000
  Fe  Fe38      1.0  0.86988  0.31662  0.70551  1.0000
  S   S72       1.0  0.83887  0.25620  0.68801  1.0000
  S   S73       1.0  0.85931  0.36764  0.69075  1.0000
  Fe  Fe39      1.0  0.83205  0.23241  0.72733  1.0000
  S   S74       1.0  0.77474  0.17641  0.73694  1.0000
  Fe  Fe40      1.0  0.90189  0.25845  0.68872  1.0000
  H   H213      1.0  0.86881  0.24273  0.78964  1.0000
  S   S75       1.0  0.85658  0.29301  0.74500  1.0000
  S   S76       1.0  0.93368  0.32078  0.70324  1.0000
  H   H214      1.0  0.58898  0.16585  0.94644  1.0000
  H   H215      1.0  0.95234  0.37468  0.74730  1.0000
  C   C211      1.0  0.76125  0.30798  0.70487  1.0000
  C   C212      1.0  0.80471  0.11851  0.79397  1.0000
  H   H216      1.0  0.76507  0.21311  0.82425  1.0000
  N   N20       1.0  0.54083  0.13592  0.97276  1.0000
  S   S77       1.0  0.96325  0.31125  0.77310  1.0000
  C   C213      1.0  0.51770  0.03232  0.92915  1.0000
  C   C214      1.0  0.55031  0.02903  0.94143  1.0000
  C   C215      1.0  0.55367  0.03208  0.96748  1.0000
  H   H217      1.0  0.54799  0.11999  0.93510  1.0000
  H   H218      1.0  0.73301  0.23073  0.66523  1.0000
  C   C216      1.0  0.73655  0.24601  0.72803  1.0000
  H   H219      1.0  0.57349  0.02465  0.93096  1.0000
  H   H220      1.0  0.84750  0.20211  0.84325  1.0000
  H   H221      1.0  0.95048  0.46146  0.68228  1.0000
  C   C217      1.0  0.72256  0.15205  0.81672  1.0000
  C   C218      1.0  0.70685  0.12245  0.79843  1.0000
  C   C219      1.0  0.72235  0.13067  0.77378  1.0000
  C   C220      1.0  0.75385  0.16828  0.76744  1.0000
  C   C221      1.0  0.76881  0.19820  0.78556  1.0000
  C   C222      1.0  0.75302  0.19011  0.81013  1.0000
  H   H222      1.0  0.68331  0.09307  0.80338  1.0000
  H   H223      1.0  0.71054  0.10750  0.75975  1.0000
  H   H224      1.0  0.79276  0.22737  0.78075  1.0000
  H   H225      1.0  0.79141  0.09585  0.77966  1.0000
  H   H226      1.0  0.77546  0.34183  0.66119  1.0000
  H   H227      1.0  0.49245  0.13423  0.94904  1.0000
  H   H228      1.0  0.58434  0.11781  0.95689  1.0000
  C   C223      1.0  0.75290  0.28754  0.72784  1.0000
  N   N21       1.0  0.85183  0.18534  0.80550  1.0000
  H   H229      1.0  0.90566  0.22278  0.78459  1.0000
  S   S78       1.0  0.67454  0.01487  0.94144  1.0000
  C   C224      1.0  0.78916  0.11109  0.81843  1.0000
  C   C225      1.0  0.80498  0.14123  0.83630  1.0000
  C   C226      1.0  0.97447  0.38756  0.76220  1.0000
  S   S79       1.0  0.67905  0.02988  0.86751  1.0000
  C   C227      1.0  0.50355  0.13607  0.96813  1.0000
  C   C228      1.0  0.56683  0.13502  0.95179  1.0000
  C   C229      1.0  0.72894  0.22547  0.70537  1.0000
  H   H230      1.0  0.79162  0.13627  0.85502  1.0000
  C   C230      1.0  0.83603  0.15613  0.78774  1.0000
  H   H231      1.0  0.71718  0.19320  0.70542  1.0000
  H   H232      1.0  0.90194  0.24173  0.81465  1.0000
  H   H233      1.0  0.57961  0.03038  0.97663  1.0000
  C   C231      1.0  0.83637  0.17848  0.82945  1.0000
  C   C232      1.0  0.88347  0.22500  0.79828  1.0000
  H   H234      1.0  0.98409  0.44769  0.75403  1.0000
  H   H235      1.0  0.76370  0.08261  0.82330  1.0000
  H   H236      1.0  0.75971  0.30389  0.74535  1.0000
  S   S80       1.0  0.92042  0.23268  0.65574  1.0000
  H   H237      1.0  0.77451  0.34034  0.70493  1.0000
  C   C233      1.0  0.98442  0.36301  0.77805  1.0000
  C   C234      1.0  0.52395  0.03768  0.98146  1.0000
  H   H238      1.0  0.73046  0.22970  0.74568  1.0000
  H   H239      1.0  0.50385  0.00542  0.84668  1.0000
  Fe  Fe41      1.0  0.61483  0.99051  0.85419  1.0000
  C   C235      1.0  0.86792  0.37041  0.65831  1.0000
  H   H240      1.0  0.98081  0.41528  0.69380  1.0000
  C   C236      1.0  0.97924  0.42271  0.67425  1.0000
  H   H241      1.0  0.89016  0.32538  0.65839  1.0000
  C   C237      1.0  0.52585  0.90630  0.10689  1.0000
  H   H242      1.0  0.61828  0.79691  0.15746  1.0000
  H   H243      1.0  0.57012  0.73300  0.17763  1.0000
  S   S81       1.0  0.56161  0.61111  0.21810  1.0000
  Fe  Fe42      1.0  0.53269  0.61027  0.18066  1.0000
  S   S82       1.0  0.56881  0.65884  0.15286  1.0000
  Fe  Fe43      1.0  0.53846  0.54528  0.21289  1.0000
  S   S83       1.0  0.57292  0.50917  0.22157  1.0000
  H   H244      1.0  0.71822  0.61501  0.27229  1.0000
  Fe  Fe44      1.0  0.55875  0.82556  0.01647  1.0000
  H   H245      1.0  0.54686  0.92631  0.14437  1.0000
  S   S84       1.0  0.56539  0.80569  0.05552  1.0000
  H   H246      1.0  0.66925  0.50502  0.20684  1.0000
  C   C238      1.0  0.59991  0.51278  0.30530  1.0000
  H   H247      1.0  0.51779  0.79674  0.11442  1.0000
  C   C239      1.0  0.58081  0.50899  0.25402  1.0000
  H   H248      1.0  0.59398  0.94465  0.06846  1.0000
  C   C240      1.0  0.57476  0.53618  0.26949  1.0000
  H   H249      1.0  0.66346  0.59474  0.26588  1.0000
  H   H250      1.0  0.56352  0.55639  0.26168  1.0000
  Fe  Fe45      1.0  0.53836  0.84654  0.06775  1.0000
  C   C241      1.0  0.70412  0.53078  0.27551  1.0000
  C   C242      1.0  0.49963  0.64310  0.12432  1.0000
  H   H251      1.0  0.58003  0.55949  0.30695  1.0000
  H   H252      1.0  0.67503  0.97349  0.00481  1.0000
  H   H253      1.0  0.55754  0.73467  0.08073  1.0000
  H   H254      1.0  0.50869  0.50851  0.12218  1.0000
  C   C243      1.0  0.54182  0.66710  0.12774  1.0000
  C   C244      1.0  0.56264  0.69981  0.11172  1.0000
  C   C245      1.0  0.68814  0.58829  0.27430  1.0000
  H   H255      1.0  0.64301  0.93102  0.04229  1.0000
  H   H256      1.0  0.59533  0.71832  0.11421  1.0000
  S   S85       1.0  0.55851  0.88320  0.10258  1.0000
  C   C246      1.0  0.58434  0.53809  0.29510  1.0000
  S   S86       1.0  0.51545  0.54566  0.17397  1.0000
  C   C247      1.0  0.54122  0.70929  0.09284  1.0000
  C   C248      1.0  0.49897  0.68567  0.08957  1.0000
  H   H257      1.0  0.49658  0.70181  0.16587  1.0000
  N   N22       1.0  0.69010  0.55388  0.26223  1.0000
  S   S87       1.0  0.53839  0.87105  0.02934  1.0000
  H   H258      1.0  0.53584  0.98213  0.05299  1.0000
  C   C249      1.0  0.67888  0.54563  0.23762  1.0000
  C   C250      1.0  0.55874  0.74771  0.16413  1.0000
  H   H259      1.0  0.71331  0.53756  0.29494  1.0000
  H   H260      1.0  0.66735  0.56365  0.22712  1.0000
  C   C251      1.0  0.60790  0.96334  0.05225  1.0000
  C   C252      1.0  0.58578  0.78336  0.15266  1.0000
  C   C253      1.0  0.65359  0.97931  0.01649  1.0000
  C   C254      1.0  0.57087  0.80119  0.13477  1.0000
  C   C255      1.0  0.63576  0.95561  0.03756  1.0000
  H   H261      1.0  0.59147  0.82904  0.12574  1.0000
  C   C256      1.0  0.52630  0.92562  0.12940  1.0000
  H   H262      1.0  0.68040  0.58227  0.29460  1.0000
  H   H263      1.0  0.49808  0.89012  0.07036  1.0000
  C   C257      1.0  0.51709  0.73008  0.15730  1.0000
  C   C258      1.0  0.67988  0.51248  0.22601  1.0000
  H   H264      1.0  0.49958  0.95812  0.15026  1.0000
  C   C259      1.0  0.70558  0.49743  0.26447  1.0000
  C   C260      1.0  0.52906  0.78272  0.12838  1.0000
  H   H265      1.0  0.54846  0.49482  0.15521  1.0000
  C   C261      1.0  0.69324  0.48826  0.23958  1.0000
  C   C262      1.0  0.49958  0.94358  0.13273  1.0000
  C   C263      1.0  0.49908  0.90533  0.08768  1.0000
  Fe  Fe46      1.0  0.49841  0.59504  0.23354  1.0000
  S   S88       1.0  0.49511  0.77690  0.01085  1.0000
  N   N23       1.0  0.50293  0.74730  0.13931  1.0000
  Fe  Fe47      1.0  0.49933  0.76086  0.05121  1.0000
  H   H266      1.0  0.49243  0.66080  0.31453  1.0000
  H   H267      1.0  0.83620  0.52052  0.43028  1.0000
  S   S89       1.0  0.90374  0.51201  0.50918  1.0000
  C   C264      1.0  0.94772  0.55188  0.63986  1.0000
  Fe  Fe48      1.0  0.92823  0.50973  0.54775  1.0000
  C   C265      1.0  0.94594  0.54931  0.61352  1.0000
  C   C266      1.0  0.81218  0.49652  0.46682  1.0000
  C   C267      1.0  0.76996  0.48788  0.42964  1.0000
  C   C268      1.0  0.52271  0.52712  0.39118  1.0000
  H   H268      1.0  0.91696  0.54151  0.60397  1.0000
  S   S90       1.0  0.61301  0.51647  0.33719  1.0000
  H   H269      1.0  0.84220  0.50842  0.47540  1.0000
  H   H270      1.0  0.58619  0.54967  0.37945  1.0000
  C   C269      1.0  0.56180  0.52814  0.39112  1.0000
  C   C270      1.0  0.80868  0.50349  0.44123  1.0000
  H   H271      1.0  0.51661  0.54803  0.37964  1.0000
  S   S91       1.0  0.76771  0.49348  0.39689  1.0000
  C   C271      1.0  0.98520  0.56237  0.65243  1.0000
  C   C272      1.0  0.98198  0.55884  0.59960  1.0000
  C   C273      1.0  0.56934  0.50134  0.40629  1.0000
  H   H272      1.0  0.91995  0.54565  0.65050  1.0000
  H   H273      1.0  0.60008  0.50300  0.40647  1.0000
  S   S92       1.0  0.98149  0.56001  0.56656  1.0000
  H   H274      1.0  0.61222  0.90445  0.91025  1.0000
  S   S93       1.0  0.58633  0.97968  0.89236  1.0000
  H   H275      1.0  0.55607  0.82392  0.93886  1.0000
  C   C274      1.0  0.49938  0.82791  0.87820  1.0000
  C   C275      1.0  0.62343  0.88825  0.97259  1.0000
  C   C276      1.0  0.66416  0.90771  0.96401  1.0000
  S   S94       1.0  0.60625  0.84051  0.98592  1.0000
  C   C277      1.0  0.67925  0.94618  0.95378  1.0000
  S   S95       1.0  0.59955  0.93769  0.82939  1.0000
  C   C278      1.0  0.61197  0.94498  0.95898  1.0000
  H   H276      1.0  0.52718  0.93563  0.85456  1.0000
  C   C279      1.0  0.65333  0.96493  0.95128  1.0000
  H   H277      1.0  0.55609  0.88450  0.78976  1.0000
  C   C280      1.0  0.54663  0.91237  0.82286  1.0000
  C   C281      1.0  0.59714  0.90675  0.96994  1.0000
  H   H278      1.0  0.68449  0.89343  0.96591  1.0000
  C   C282      1.0  0.53357  0.88764  0.80188  1.0000
  H   H279      1.0  0.55927  0.86949  0.86490  1.0000
  C   C283      1.0  0.54035  0.82517  0.92171  1.0000
  H   H280      1.0  0.50931  0.98421  0.80332  1.0000
  C   C284      1.0  0.51734  0.91625  0.83849  1.0000
  H   H281      1.0  0.59201  0.95971  0.95737  1.0000
  H   H282      1.0  0.62253  0.87641  0.88599  1.0000
  H   H283      1.0  0.56554  0.89159  0.97635  1.0000
  C   C285      1.0  0.54209  0.85058  0.88049  1.0000
  N   N24       1.0  0.56203  0.84876  0.90196  1.0000
  C   C286      1.0  0.60652  0.87398  0.90424  1.0000
  H   H284      1.0  0.71127  0.96164  0.94804  1.0000
  H   H285      1.0  0.62081  0.86155  0.91819  1.0000
  S   S96       1.0  0.98661  0.56624  0.68542  1.0000
  C   C287      1.0  0.49770  0.89912  0.93910  1.0000
  H   H286      1.0  0.51742  0.88412  0.93973  1.0000
  C   C288      1.0  0.49753  0.80232  0.92012  1.0000
  H   H287      1.0  0.49503  0.90036  0.89863  1.0000
  H   H288      1.0  0.49376  0.90189  0.97926  1.0000
