data_image0
_chemical_formula_structural       FeSFeSCFeHFeHSH2FeSHFeS2FeSFeCS3HFeSCHCH2C6H4CFeHNC4SCH3CH2C4SCHCHCHCH2C3H3SC2HFeHC4SCSCNHCHCH3CH2SCNSHCH3SH4CSCHCHNC4FeH2C3H3CHCHCH2C5H2CH3CHC3H2SNH2CHCHFeSCFeHCHSH2NSH4C3H4FeCH3C4H3CFeS2HFeC4FeHFeS2HFeS3C3H3C7SC3H2C2HCH2SHFeHSHC5HSNCHCNHC4SCH2SFeHCSHNCHC2NHCHSHC2SHCH3C2HSCHSH2CH2SHCH3SNC5H5NCSFeSHFeHFeHFeS2H2FeS2FeSHFeSFeS3C3H2C6H2CHC6H5C2HNHCHCHCH2CHCSC2HCHC2HCSCFeH2SHC2HC3H2C3H2CFeH2SCH2NH2NSH3CH2C2SCSCHC2NH2C2HNC2HC5HC2HCH4CHCHCH2NH3C2HCH2C3H2CNC2S2HC2HSCHCHCSH4C3SH3CHC3HCH3C5HC2H3C2HFeSCFeS2FeSFeHS2C2HFeHFeS2FeCS3H2SC4H2C2HC6H4SH2C2HC3NCHCHNH2CH2C2NC3H2CH2CH3CHFeH3CHC2HCHSH2SC2H4C2NCH3CHC2H2CSHCH4C2SH2CHCH2S3CFeSFeCSCFeS2CFeHSFeSH3SC6HCH2NC4H2FeS2FeSHFe2HS2HCFeSFeCHCFe2SH2C3SH7C2HN2C4HCHC5HC4H2S2C2SCHSH3CHCHCNC2H2SH3C5FeH5CHCHCH3CSH2CH2SHC2HCSHCHC2FeS2FeSHFeSFeS3HFeH2FeH2FeCS2H4CHCH2C4S2HC2HC4HC2HC2HNHC4HNFeSH2C2FeCH3SC2HNH3C2SCHC2HCH3C2HFeC2H2CH3NC3HC3S2CSCH2C2HCHNHC2HCSH3CH2
_chemical_formula_sum              "Fe64 S128 C384 H384 N32"
_cell_length_a       32.7462
_cell_length_b       33.747
_cell_length_c       33.575
_cell_angle_alpha    90.3431
_cell_angle_beta     90.1187
_cell_angle_gamma    89.4626

_space_group_name_H-M_alt    "P 1"
_space_group_IT_number       1

loop_
  _space_group_symop_operation_xyz
  'x, y, z'

loop_
  _atom_site_type_symbol
  _atom_site_label
  _atom_site_symmetry_multiplicity
  _atom_site_fract_x
  _atom_site_fract_y
  _atom_site_fract_z
  _atom_site_occupancy
  Fe  Fe1       1.0  0.48077  0.14669  0.49886  1.0000
  S   S1        1.0  0.49532  0.13117  0.43546  1.0000
  Fe  Fe2       1.0  0.43818  0.22465  0.47674  1.0000
  S   S2        1.0  0.44838  0.21604  0.41123  1.0000
  C   C1        1.0  0.21686  0.32998  0.30441  1.0000
  Fe  Fe3       1.0  0.43177  0.15284  0.42268  1.0000
  H   H1        1.0  0.08771  0.10918  0.06200  1.0000
  Fe  Fe4       1.0  0.51091  0.19531  0.42890  1.0000
  H   H2        1.0  0.40115  0.34159  0.10186  1.0000
  S   S3        1.0  0.50266  0.20921  0.49365  1.0000
  H   H3        1.0  0.52108  0.28746  0.42004  1.0000
  H   H4        1.0  0.14278  0.28824  0.21975  1.0000
  Fe  Fe5       1.0  0.48116  0.26408  0.09474  1.0000
  S   S4        1.0  0.48509  0.29636  0.15287  1.0000
  H   H5        1.0  0.27402  0.23760  0.11230  1.0000
  Fe  Fe6       1.0  0.43803  0.19258  0.13249  1.0000
  S   S5        1.0  0.43987  0.21922  0.19396  1.0000
  S   S6        1.0  0.41964  0.12879  0.12307  1.0000
  Fe  Fe7       1.0  0.42120  0.27501  0.16229  1.0000
  S   S7        1.0  0.37361  0.31762  0.18498  1.0000
  Fe  Fe8       1.0  0.50348  0.23773  0.17836  1.0000
  C   C2        1.0  0.35803  0.28736  0.49898  1.0000
  S   S8        1.0  0.41521  0.24734  0.10150  1.0000
  S   S9        1.0  0.50355  0.20643  0.11951  1.0000
  S   S10       1.0  0.10138  0.31542  0.13763  1.0000
  H   H6        1.0  0.20592  0.34216  0.33251  1.0000
  Fe  Fe9       1.0  0.16080  0.33741  0.11430  1.0000
  S   S11       1.0  0.20571  0.28956  0.09807  1.0000
  C   C3        1.0  0.36824  0.11344  0.12304  1.0000
  H   H7        1.0  0.42320  0.11622  0.28124  1.0000
  C   C4        1.0  0.33581  0.14022  0.12850  1.0000
  H   H8        1.0  0.27142  0.24019  0.46942  1.0000
  H   H9        1.0  0.34197  0.17141  0.13272  1.0000
  C   C5        1.0  0.32779  0.31004  0.15934  1.0000
  C   C6        1.0  0.31851  0.27268  0.14372  1.0000
  C   C7        1.0  0.28142  0.26673  0.12372  1.0000
  C   C8        1.0  0.25366  0.29819  0.11933  1.0000
  C   C9        1.0  0.26345  0.33575  0.13412  1.0000
  C   C10       1.0  0.30023  0.34156  0.15461  1.0000
  H   H10       1.0  0.33945  0.24808  0.14786  1.0000
  H   H11       1.0  0.07813  0.36216  0.32980  1.0000
  H   H12       1.0  0.24296  0.36047  0.12942  1.0000
  H   H13       1.0  0.45239  0.35293  0.05366  1.0000
  C   C11       1.0  0.11733  0.24107  0.04387  1.0000
  Fe  Fe10      1.0  0.10629  0.36501  0.18182  1.0000
  H   H14       1.0  0.16005  0.09236  0.07909  1.0000
  N   N1        1.0  0.20316  0.29670  0.24237  1.0000
  C   C12       1.0  0.31950  0.05946  0.11706  1.0000
  C   C13       1.0  0.29059  0.26327  0.48154  1.0000
  C   C14       1.0  0.52473  0.13354  0.22611  1.0000
  C   C15       1.0  0.27141  0.31773  0.25758  1.0000
  S   S12       1.0  0.17523  0.06140  0.47752  1.0000
  C   C16       1.0  0.48400  0.13313  0.33038  1.0000
  H   H15       1.0  0.51400  0.14033  0.34408  1.0000
  H   H16       1.0  0.26407  0.06760  0.43972  1.0000
  H   H17       1.0  0.49993  0.22672  0.34377  1.0000
  C   C17       1.0  0.33322  0.25782  0.48275  1.0000
  H   H18       1.0  0.30332  0.32000  0.24899  1.0000
  H   H19       1.0  0.22967  0.13083  0.27109  1.0000
  C   C18       1.0  0.52260  0.13590  0.26766  1.0000
  C   C19       1.0  0.25192  0.07898  0.30192  1.0000
  C   C20       1.0  0.52657  0.23023  0.28525  1.0000
  C   C21       1.0  0.35990  0.07307  0.11755  1.0000
  S   S13       1.0  0.13276  0.37917  0.07018  1.0000
  C   C22       1.0  0.28703  0.08615  0.12208  1.0000
  H   H20       1.0  0.29665  0.14053  0.50350  1.0000
  C   C23       1.0  0.48978  0.12413  0.20437  1.0000
  H   H21       1.0  0.46201  0.15705  0.33870  1.0000
  C   C24       1.0  0.29692  0.06917  0.44246  1.0000
  H   H22       1.0  0.54990  0.14368  0.28422  1.0000
  C   C25       1.0  0.36199  0.09070  0.41647  1.0000
  H   H23       1.0  0.07850  0.08583  0.48691  1.0000
  H   H24       1.0  0.47320  0.10487  0.34337  1.0000
  C   C26       1.0  0.38146  0.07649  0.45071  1.0000
  C   C27       1.0  0.24352  0.29897  0.23230  1.0000
  C   C28       1.0  0.17453  0.27707  0.21524  1.0000
  H   H25       1.0  0.18252  0.28303  0.18365  1.0000
  H   H26       1.0  0.50536  0.05837  0.48566  1.0000
  H   H27       1.0  0.41415  0.07946  0.45417  1.0000
  S   S14       1.0  0.08907  0.35467  0.24559  1.0000
  C   C29       1.0  0.18985  0.31100  0.27833  1.0000
  C   C30       1.0  0.54658  0.35143  0.07349  1.0000
  H   H28       1.0  0.15803  0.30826  0.28682  1.0000
  Fe  Fe11      1.0  0.07335  0.36041  0.09704  1.0000
  H   H29       1.0  0.38484  0.05223  0.11317  1.0000
  C   C31       1.0  0.29769  0.32853  0.51092  1.0000
  C   C32       1.0  0.10040  0.17104  0.05234  1.0000
  C   C33       1.0  0.29527  0.12658  0.12799  1.0000
  C   C34       1.0  0.53170  0.30208  0.44699  1.0000
  S   S15       1.0  0.50911  0.28718  0.03791  1.0000
  C   C35       1.0  0.08858  0.24585  0.51594  1.0000
  S   S16       1.0  0.41539  0.16328  0.48680  1.0000
  C   C36       1.0  0.45311  0.11758  0.22428  1.0000
  N   N2        1.0  0.48644  0.12970  0.28693  1.0000
  H   H30       1.0  0.55313  0.13981  0.21084  1.0000
  C   C37       1.0  0.52787  0.22552  0.32688  1.0000
  H   H31       1.0  0.19203  0.21410  0.06251  1.0000
  C   C38       1.0  0.15134  0.12256  0.07150  1.0000
  H   H32       1.0  0.24397  0.09084  0.33106  1.0000
  H   H33       1.0  0.35685  0.36262  0.07754  1.0000
  H   H34       1.0  0.49763  0.23462  0.27022  1.0000
  C   C39       1.0  0.50446  0.32336  0.47124  1.0000
  H   H35       1.0  0.25431  0.28632  0.20448  1.0000
  H   H36       1.0  0.30467  0.09787  0.38574  1.0000
  S   S17       1.0  0.38976  0.11895  0.38270  1.0000
  C   C40       1.0  0.45192  0.12072  0.26585  1.0000
  N   N3        1.0  0.51775  0.34129  0.50551  1.0000
  S   S18       1.0  0.23602  0.06955  0.12162  1.0000
  H   H37       1.0  0.17523  0.24460  0.22022  1.0000
  C   C41       1.0  0.27275  0.29869  0.49548  1.0000
  H   H38       1.0  0.27035  0.14744  0.13204  1.0000
  H   H39       1.0  0.37385  0.04896  0.50782  1.0000
  H   H40       1.0  0.47255  0.32526  0.46260  1.0000
  S   S19       1.0  0.21926  0.30470  0.49440  1.0000
  H   H41       1.0  0.10629  0.25555  0.07162  1.0000
  H   H42       1.0  0.24597  0.10325  0.20381  1.0000
  H   H43       1.0  0.34677  0.23058  0.47162  1.0000
  H   H44       1.0  0.52847  0.34549  0.09951  1.0000
  C   C42       1.0  0.11090  0.13194  0.06190  1.0000
  S   S20       1.0  0.41119  0.28042  0.50354  1.0000
  C   C43       1.0  0.18066  0.15228  0.07153  1.0000
  H   H45       1.0  0.21216  0.14516  0.07906  1.0000
  C   C44       1.0  0.24362  0.10172  0.26809  1.0000
  H   H46       1.0  0.49097  0.12242  0.17208  1.0000
  N   N4        1.0  0.12941  0.19998  0.05222  1.0000
  C   C45       1.0  0.25784  0.33357  0.29376  1.0000
  C   C46       1.0  0.31984  0.08618  0.41184  1.0000
  C   C47       1.0  0.16906  0.19113  0.06201  1.0000
  C   C48       1.0  0.38459  0.36971  0.09519  1.0000
  Fe  Fe12      1.0  0.19738  0.36825  0.49533  1.0000
  H   H47       1.0  0.27905  0.34843  0.31360  1.0000
  H   H48       1.0  0.42568  0.11077  0.20741  1.0000
  C   C49       1.0  0.25265  0.08626  0.23044  1.0000
  C   C50       1.0  0.34019  0.32272  0.51296  1.0000
  C   C51       1.0  0.35865  0.05940  0.48118  1.0000
  H   H49       1.0  0.28408  0.35565  0.52224  1.0000
  H   H50       1.0  0.14341  0.25847  0.03231  1.0000
  H   H51       1.0  0.06887  0.17802  0.04501  1.0000
  C   C52       1.0  0.31629  0.05650  0.47746  1.0000
  H   H52       1.0  0.30746  0.37059  0.16639  1.0000
  C   C53       1.0  0.54295  0.32754  0.03952  1.0000
  H   H53       1.0  0.35924  0.34554  0.52574  1.0000
  C   C54       1.0  0.05431  0.09075  0.50833  1.0000
  H   H54       1.0  0.13491  0.28946  0.50513  1.0000
  H   H55       1.0  0.10670  0.22125  0.50443  1.0000
  C   C55       1.0  0.10439  0.28411  0.51631  1.0000
  C   C56       1.0  0.11648  0.38127  0.28164  1.0000
  C   C57       1.0  0.10428  0.37967  0.32152  1.0000
  C   C58       1.0  0.38303  0.19753  0.57809  1.0000
  C   C59       1.0  0.48895  0.36456  0.52975  1.0000
  H   H56       1.0  0.39442  0.22749  0.58147  1.0000
  H   H57       1.0  0.09244  0.24239  0.02127  1.0000
  C   C60       1.0  0.52050  0.06432  0.54784  1.0000
  H   H58       1.0  0.43820  0.16945  0.59988  1.0000
  H   H59       1.0  0.34320  0.09152  0.56095  1.0000
  H   H60       1.0  0.27502  0.12124  0.54865  1.0000
  C   C61       1.0  0.34430  0.19108  0.56170  1.0000
  H   H61       1.0  0.53943  0.06076  0.60925  1.0000
  C   C62       1.0  0.35408  0.12140  0.56605  1.0000
  C   C63       1.0  0.39298  0.12674  0.58246  1.0000
  C   C64       1.0  0.40753  0.16507  0.58839  1.0000
  H   H62       1.0  0.41230  0.10134  0.58938  1.0000
  H   H63       1.0  0.32580  0.21646  0.55313  1.0000
  S   S21       1.0  0.49947  0.11239  0.55371  1.0000
  N   N5        1.0  0.33037  0.15336  0.55577  1.0000
  H   H64       1.0  0.49910  0.36639  0.56132  1.0000
  H   H65       1.0  0.27064  0.17320  0.53820  1.0000
  C   C65       1.0  0.29121  0.14693  0.53560  1.0000
  H   H66       1.0  0.45823  0.35076  0.52969  1.0000
  C   C66       1.0  0.08065  0.31549  0.53095  1.0000
  H   H67       1.0  0.09257  0.34540  0.53132  1.0000
  Fe  Fe13      1.0  0.17661  0.43487  0.43861  1.0000
  S   S22       1.0  0.18308  0.45469  0.37511  1.0000
  C   C67       1.0  0.14839  0.52063  0.29422  1.0000
  Fe  Fe14      1.0  0.13486  0.42333  0.12038  1.0000
  H   H68       1.0  0.45250  0.58959  0.47787  1.0000
  C   C68       1.0  0.26814  0.53303  0.51707  1.0000
  H   H69       1.0  0.50329  0.63315  0.12498  1.0000
  S   S23       1.0  0.15831  0.47686  0.48756  1.0000
  H   H70       1.0  0.55349  0.60815  0.05484  1.0000
  H   H71       1.0  0.32462  0.41920  0.49388  1.0000
  N   N6        1.0  0.37240  0.50252  0.52442  1.0000
  S   S24       1.0  0.14879  0.48825  0.11519  1.0000
  H   H72       1.0  0.10807  0.47957  0.19429  1.0000
  H   H73       1.0  0.19764  0.44274  0.29210  1.0000
  H   H74       1.0  0.41411  0.49500  0.05076  1.0000
  H   H75       1.0  0.48643  0.39516  0.51789  1.0000
  C   C69       1.0  0.26882  0.47672  0.08711  1.0000
  C   C70       1.0  0.22788  0.46795  0.09556  1.0000
  C   C71       1.0  0.20053  0.49842  0.10572  1.0000
  H   H76       1.0  0.28969  0.45311  0.07870  1.0000
  H   H77       1.0  0.21743  0.43768  0.09361  1.0000
  H   H78       1.0  0.11474  0.40118  0.38117  1.0000
  H   H79       1.0  0.38489  0.55271  0.48810  1.0000
  Fe  Fe15      1.0  0.33730  0.67083  0.12260  1.0000
  C   C72       1.0  0.39929  0.43675  0.07230  1.0000
  H   H80       1.0  0.37205  0.44732  0.08759  1.0000
  H   H81       1.0  0.33596  0.66386  0.35740  1.0000
  H   H82       1.0  0.46349  0.61420  0.28615  1.0000
  C   C73       1.0  0.45797  0.45066  0.03150  1.0000
  C   C74       1.0  0.33837  0.44826  0.49219  1.0000
  C   C75       1.0  0.25527  0.53028  0.47746  1.0000
  C   C76       1.0  0.26563  0.55969  0.45027  1.0000
  H   H83       1.0  0.23779  0.50521  0.46737  1.0000
  H   H84       1.0  0.25566  0.55723  0.41959  1.0000
  H   H85       1.0  0.17808  0.55655  0.52344  1.0000
  C   C77       1.0  0.15600  0.51168  0.22326  1.0000
  Fe  Fe16      1.0  0.43704  0.68090  0.47785  1.0000
  S   S25       1.0  0.41543  0.65575  0.41944  1.0000
  S   S26       1.0  0.40279  0.68903  0.12279  1.0000
  H   H86       1.0  0.16004  0.53096  0.32274  1.0000
  Fe  Fe17      1.0  0.35310  0.66851  0.44409  1.0000
  C   C78       1.0  0.52316  0.65812  0.11965  1.0000
  C   C79       1.0  0.15871  0.42441  0.34008  1.0000
  C   C80       1.0  0.11160  0.49993  0.29238  1.0000
  C   C81       1.0  0.12524  0.40140  0.35071  1.0000
  Fe  Fe18      1.0  0.40585  0.65782  0.06389  1.0000
  H   H87       1.0  0.45068  0.66290  0.34043  1.0000
  Fe  Fe19      1.0  0.35554  0.58789  0.09238  1.0000
  S   S27       1.0  0.34828  0.61316  0.15371  1.0000
  S   S28       1.0  0.33409  0.52604  0.07797  1.0000
  H   H88       1.0  0.19959  0.54191  0.26051  1.0000
  Fe  Fe20      1.0  0.41414  0.62936  0.14913  1.0000
  S   S29       1.0  0.45618  0.61994  0.20115  1.0000
  S   S30       1.0  0.33863  0.64450  0.06098  1.0000
  S   S31       1.0  0.42302  0.59898  0.09028  1.0000
  C   C82       1.0  0.28274  0.51588  0.08936  1.0000
  C   C83       1.0  0.21440  0.53757  0.10806  1.0000
  C   C84       1.0  0.25551  0.54627  0.10016  1.0000
  H   H89       1.0  0.19339  0.56125  0.11593  1.0000
  H   H90       1.0  0.26602  0.57653  0.10189  1.0000
  H   H91       1.0  0.32302  0.45676  0.43035  1.0000
  C   C85       1.0  0.11916  0.49103  0.22253  1.0000
  C   C86       1.0  0.05936  0.46296  0.25556  1.0000
  C   C87       1.0  0.44970  0.65545  0.23917  1.0000
  C   C88       1.0  0.45468  0.64433  0.27902  1.0000
  C   C89       1.0  0.44722  0.67182  0.30978  1.0000
  C   C90       1.0  0.33766  0.46927  0.45653  1.0000
  C   C91       1.0  0.34244  0.67352  0.24331  1.0000
  S   S32       1.0  0.30356  0.62657  0.42665  1.0000
  C   C92       1.0  0.17074  0.52639  0.25942  1.0000
  C   C93       1.0  0.28951  0.59170  0.46233  1.0000
  C   C94       1.0  0.47196  0.57951  0.50188  1.0000
  H   H92       1.0  0.09503  0.49472  0.31979  1.0000
  H   H93       1.0  0.34460  0.67627  0.21126  1.0000
  C   C95       1.0  0.06262  0.47209  0.04910  1.0000
  C   C96       1.0  0.35057  0.63680  0.26096  1.0000
  H   H94       1.0  0.15387  0.70920  0.07585  1.0000
  C   C97       1.0  0.34826  0.63331  0.30225  1.0000
  H   H95       1.0  0.17311  0.51593  0.19594  1.0000
  H   H96       1.0  0.46118  0.51727  0.49081  1.0000
  S   S33       1.0  0.07262  0.40850  0.14344  1.0000
  H   H97       1.0  0.35963  0.61151  0.24280  1.0000
  Fe  Fe21      1.0  0.12645  0.42490  0.51419  1.0000
  H   H98       1.0  0.35504  0.60522  0.31647  1.0000
  S   S34       1.0  0.13991  0.38432  0.46221  1.0000
  H   H99       1.0  0.35374  0.52393  0.42771  1.0000
  C   C98       1.0  0.33775  0.66633  0.32529  1.0000
  C   C99       1.0  0.37241  0.52309  0.48940  1.0000
  C   C100      1.0  0.43892  0.69459  0.23013  1.0000
  C   C101      1.0  0.17160  0.42510  0.30039  1.0000
  C   C102      1.0  0.47691  0.53866  0.50921  1.0000
  H   H100      1.0  0.51580  0.68096  0.17946  1.0000
  S   S35       1.0  0.23498  0.41579  0.46789  1.0000
  N   N7        1.0  0.09784  0.48482  0.25693  1.0000
  C   C103      1.0  0.35589  0.46549  0.52607  1.0000
  H   H101      1.0  0.50092  0.62505  0.05129  1.0000
  C   C104      1.0  0.46855  0.41052  0.03230  1.0000
  N   N8        1.0  0.41026  0.39754  0.07347  1.0000
  H   H102      1.0  0.16008  0.40528  0.24068  1.0000
  C   C105      1.0  0.53020  0.68507  0.15068  1.0000
  C   C106      1.0  0.35495  0.50687  0.45499  1.0000
  C   C107      1.0  0.42301  0.46391  0.05144  1.0000
  C   C108      1.0  0.15032  0.40385  0.27117  1.0000
  S   S36       1.0  0.48824  0.65859  0.51706  1.0000
  C   C109      1.0  0.30238  0.59473  0.50202  1.0000
  H   H103      1.0  0.11996  0.52711  0.04343  1.0000
  H   H104      1.0  0.07821  0.50285  0.50386  1.0000
  S   S37       1.0  0.37457  0.68897  0.50436  1.0000
  Fe  Fe22      1.0  0.21366  0.45332  0.51903  1.0000
  H   H105      1.0  0.32057  0.61959  0.51154  1.0000
  C   C110      1.0  0.44407  0.38415  0.05339  1.0000
  S   S38       1.0  0.16856  0.38320  0.16238  1.0000
  H   H106      1.0  0.09380  0.45903  0.04622  1.0000
  N   N9        1.0  0.54092  0.66326  0.08320  1.0000
  C   C111      1.0  0.53333  0.63452  0.05117  1.0000
  H   H107      1.0  0.43591  0.70371  0.19955  1.0000
  C   C112      1.0  0.33030  0.70268  0.30670  1.0000
  C   C113      1.0  0.43567  0.71074  0.30072  1.0000
  N   N10       1.0  0.33331  0.70600  0.26623  1.0000
  H   H108      1.0  0.06033  0.43944  0.23221  1.0000
  C   C114      1.0  0.05525  0.50779  0.52632  1.0000
  H   H109      1.0  0.05642  0.47739  0.08122  1.0000
  S   S39       1.0  0.29276  0.71444  0.14874  1.0000
  H   H110      1.0  0.37518  0.38258  0.12437  1.0000
  C   C115      1.0  0.49297  0.60719  0.52520  1.0000
  C   C116      1.0  0.39010  0.51981  0.56063  1.0000
  S   S40       1.0  0.44116  0.68037  0.01105  1.0000
  H   H111      1.0  0.41776  0.50262  0.56960  1.0000
  C   C117      1.0  0.14668  0.52071  0.58805  1.0000
  H   H112      1.0  0.39938  0.55111  0.55623  1.0000
  H   H113      1.0  0.50586  0.70833  0.96177  1.0000
  H   H114      1.0  0.16691  0.60600  0.53992  1.0000
  C   C118      1.0  0.52366  0.55317  0.56300  1.0000
  C   C119      1.0  0.08966  0.57119  0.00781  1.0000
  H   H115      1.0  0.36742  0.51943  0.58520  1.0000
  S   S41       1.0  0.06543  0.42893  0.54592  1.0000
  C   C120      1.0  0.17499  0.57573  0.55031  1.0000
  H   H116      1.0  0.53477  0.61516  0.57402  1.0000
  S   S42       1.0  0.50661  0.47415  0.55033  1.0000
  H   H117      1.0  0.17073  0.50174  0.57624  1.0000
  H   H118      1.0  0.30117  0.56783  0.56023  1.0000
  C   C121      1.0  0.08510  0.56868  0.61886  1.0000
  H   H119      1.0  0.11135  0.61446  0.58350  1.0000
  H   H120      1.0  0.11548  0.59110  0.00795  1.0000
  S   S43       1.0  0.25498  0.49586  0.55073  1.0000
  H   H121      1.0  0.49556  0.39983  0.01673  1.0000
  C   C122      1.0  0.51885  0.59385  0.55566  1.0000
  H   H122      1.0  0.54318  0.54342  0.58688  1.0000
  H   H123      1.0  0.47675  0.47142  0.01531  1.0000
  H   H124      1.0  0.11908  0.47325  0.62109  1.0000
  S   S44       1.0  0.18088  0.40413  0.54963  1.0000
  N   N11       1.0  0.14421  0.55971  0.57732  1.0000
  C   C123      1.0  0.09201  0.53492  0.02772  1.0000
  C   C124      1.0  0.50256  0.52537  0.54002  1.0000
  C   C125      1.0  0.11393  0.58369  0.59238  1.0000
  C   C126      1.0  0.11796  0.50457  0.61395  1.0000
  C   C127      1.0  0.08708  0.52882  0.62951  1.0000
  H   H125      1.0  0.53862  0.64768  0.02135  1.0000
  H   H126      1.0  0.06398  0.51651  0.64884  1.0000
  H   H127      1.0  0.06036  0.58747  0.62974  1.0000
  H   H128      1.0  0.20512  0.57680  0.56557  1.0000
  H   H129      1.0  0.35537  0.44943  0.55396  1.0000
  N   N12       1.0  0.05960  0.50958  0.02738  1.0000
  C   C128      1.0  0.29141  0.56546  0.52951  1.0000
  S   S45       1.0  0.34859  0.72971  0.41912  1.0000
  Fe  Fe23      1.0  0.17182  0.02350  0.42237  1.0000
  S   S46       1.0  0.12763  0.97998  0.44757  1.0000
  H   H130      1.0  0.27664  0.03625  0.19782  1.0000
  Fe  Fe24      1.0  0.22679  0.02058  0.49421  1.0000
  H   H131      1.0  0.23064  0.81077  0.08651  1.0000
  Fe  Fe25      1.0  0.18368  0.94644  0.46687  1.0000
  H   H132      1.0  0.29066  0.77353  0.46771  1.0000
  Fe  Fe26      1.0  0.13544  0.01473  0.50434  1.0000
  S   S47       1.0  0.22712  0.98695  0.43681  1.0000
  S   S48       1.0  0.36128  0.80765  0.50671  1.0000
  H   H133      1.0  0.20862  0.74589  0.11176  1.0000
  H   H134      1.0  0.29218  0.74708  0.23996  1.0000
  Fe  Fe27      1.0  0.16885  0.93689  0.09178  1.0000
  S   S49       1.0  0.20540  0.89016  0.12303  1.0000
  S   S50       1.0  0.44036  0.74324  0.45485  1.0000
  Fe  Fe28      1.0  0.22680  0.00295  0.11890  1.0000
  S   S51       1.0  0.26816  0.96086  0.15170  1.0000
  H   H135      1.0  0.38940  0.80448  0.39463  1.0000
  Fe  Fe29      1.0  0.26013  0.92096  0.09875  1.0000
  S   S52       1.0  0.31001  0.88306  0.07192  1.0000
  Fe  Fe30      1.0  0.21007  0.93398  0.17315  1.0000
  S   S53       1.0  0.20739  0.91300  0.23638  1.0000
  S   S54       1.0  0.22355  0.96518  0.06347  1.0000
  S   S55       1.0  0.16855  0.97866  0.14421  1.0000
  C   C129      1.0  0.43234  0.72227  0.26084  1.0000
  C   C130      1.0  0.19526  0.75780  0.08465  1.0000
  C   C131      1.0  0.39079  0.83613  0.40371  1.0000
  H   H136      1.0  0.12292  0.86114  0.11533  1.0000
  H   H137      1.0  0.28998  0.99662  0.25844  1.0000
  C   C132      1.0  0.30167  0.76156  0.12915  1.0000
  C   C133      1.0  0.28846  0.79529  0.15004  1.0000
  C   C134      1.0  0.29357  0.83301  0.13362  1.0000
  C   C135      1.0  0.31065  0.83697  0.09571  1.0000
  C   C136      1.0  0.32479  0.80332  0.07524  1.0000
  C   C137      1.0  0.32068  0.76562  0.09211  1.0000
  H   H138      1.0  0.27381  0.79235  0.17871  1.0000
  H   H139      1.0  0.28335  0.85897  0.14995  1.0000
  C   C138      1.0  0.53821  0.00693  0.50708  1.0000
  H   H140      1.0  0.31356  0.02835  0.11215  1.0000
  C   C139      1.0  0.17317  0.00982  0.32574  1.0000
  C   C140      1.0  0.17436  0.01852  0.28506  1.0000
  C   C141      1.0  0.18437  0.98876  0.25732  1.0000
  C   C142      1.0  0.19249  0.95012  0.27017  1.0000
  C   C143      1.0  0.18998  0.94117  0.31072  1.0000
  C   C144      1.0  0.18022  0.97095  0.33845  1.0000
  H   H141      1.0  0.34261  0.74677  0.21878  1.0000
  H   H142      1.0  0.18634  0.99590  0.22612  1.0000
  H   H143      1.0  0.19561  0.91117  0.32067  1.0000
  H   H144      1.0  0.17817  0.96371  0.36963  1.0000
  H   H145      1.0  0.25805  0.91361  0.50164  1.0000
  C   C145      1.0  0.23664  0.86016  0.47339  1.0000
  C   C146      1.0  0.28223  0.85803  0.37473  1.0000
  H   H146      1.0  0.27085  0.98642  0.32852  1.0000
  N   N13       1.0  0.35105  0.85615  0.39984  1.0000
  H   H147      1.0  0.18397  0.87211  0.03479  1.0000
  C   C147      1.0  0.50560  0.77128  0.05861  1.0000
  H   H148      1.0  0.40127  0.83687  0.43521  1.0000
  C   C148      1.0  0.26507  0.88305  0.49425  1.0000
  H   H149      1.0  0.25708  0.02767  0.35921  1.0000
  C   C149      1.0  0.05521  0.92967  0.52645  1.0000
  H   H150      1.0  0.22389  0.80269  0.44830  1.0000
  H   H151      1.0  0.37042  0.90691  0.43270  1.0000
  C   C150      1.0  0.27707  0.01832  0.33401  1.0000
  H   H152      1.0  0.42395  0.75249  0.25368  1.0000
  C   C151      1.0  0.31987  0.83852  0.37933  1.0000
  S   S56       1.0  0.11379  0.92103  0.05372  1.0000
  C   C152      1.0  0.52005  0.04472  0.51102  1.0000
  C   C153      1.0  0.16496  0.73706  0.06431  1.0000
  H   H153      1.0  0.50541  0.78889  0.08566  1.0000
  C   C154      1.0  0.06581  0.79412  0.06359  1.0000
  H   H154      1.0  0.32300  0.72834  0.32495  1.0000
  C   C155      1.0  0.24595  0.82059  0.46411  1.0000
  C   C156      1.0  0.47686  0.74111  0.05346  1.0000
  H   H155      1.0  0.09760  0.79238  0.11982  1.0000
  C   C157      1.0  0.09030  0.81005  0.09392  1.0000
  S   S57       1.0  0.18784  0.97692  0.52603  1.0000
  C   C158      1.0  0.34593  0.89321  0.41591  1.0000
  Fe  Fe31      1.0  0.37615  0.74938  0.47674  1.0000
  H   H156      1.0  0.33730  0.80628  0.04569  1.0000
  H   H157      1.0  0.06416  0.95024  0.50236  1.0000
  S   S58       1.0  0.18982  0.88061  0.45757  1.0000
  H   H158      1.0  0.33487  0.76924  0.26649  1.0000
  C   C159      1.0  0.20786  0.79444  0.07013  1.0000
  C   C160      1.0  0.30302  0.86650  0.50510  1.0000
  H   H159      1.0  0.33074  0.73959  0.07578  1.0000
  C   C161      1.0  0.28393  0.80415  0.47477  1.0000
  C   C162      1.0  0.27755  0.02641  0.26147  1.0000
  C   C163      1.0  0.32522  0.74423  0.24710  1.0000
  H   H160      1.0  0.32383  0.80907  0.36679  1.0000
  H   H161      1.0  0.25712  0.84378  0.35930  1.0000
  C   C164      1.0  0.30881  0.91362  0.41170  1.0000
  C   C165      1.0  0.10514  0.84889  0.09117  1.0000
  C   C166      1.0  0.09605  0.87194  0.05778  1.0000
  H   H162      1.0  0.46088  0.88881  0.05374  1.0000
  H   H163      1.0  0.24727  0.91067  0.38861  1.0000
  C   C167      1.0  0.27675  0.89581  0.39103  1.0000
  Fe  Fe32      1.0  0.41267  0.71893  0.39891  1.0000
  H   H164      1.0  0.30462  0.94254  0.42545  1.0000
  H   H165      1.0  0.11123  0.87697  0.50287  1.0000
  S   S59       1.0  0.42361  0.74513  0.33849  1.0000
  C   C168      1.0  0.31270  0.82715  0.49497  1.0000
  H   H166      1.0  0.41375  0.85072  0.38458  1.0000
  H   H167      1.0  0.45445  0.73599  0.07626  1.0000
  N   N14       1.0  0.19131  0.80974  0.03603  1.0000
  H   H168      1.0  0.16844  0.04844  0.27507  1.0000
  H   H169      1.0  0.53750  0.99176  0.47861  1.0000
  N   N15       1.0  0.26825  0.04165  0.29827  1.0000
  S   S60       1.0  0.28759  0.03916  0.51752  1.0000
  H   H170      1.0  0.32507  0.88440  0.52093  1.0000
  H   H171      1.0  0.30941  0.02229  0.34307  1.0000
  H   H172      1.0  0.40915  0.83638  0.04581  1.0000
  C   C169      1.0  0.05667  0.81715  0.03015  1.0000
  H   H173      1.0  0.23617  0.85511  0.03107  1.0000
  H   H174      1.0  0.44998  0.82838  0.52500  1.0000
  C   C170      1.0  0.53491  0.77842  0.02922  1.0000
  C   C171      1.0  0.26988  0.04848  0.22705  1.0000
  S   S61       1.0  0.16688  0.04821  0.36069  1.0000
  C   C172      1.0  0.14803  0.75296  0.02967  1.0000
  S   S62       1.0  0.08390  0.02476  0.54789  1.0000
  C   C173      1.0  0.53072  0.83467  0.60862  1.0000
  H   H175      1.0  0.47902  0.74282  0.53990  1.0000
  C   C174      1.0  0.46116  0.75970  0.56256  1.0000
  C   C175      1.0  0.51039  0.79922  0.60063  1.0000
  N   N16       1.0  0.09161  0.91696  0.54866  1.0000
  H   H176      1.0  0.20281  0.85052  0.98902  1.0000
  H   H177      1.0  0.14670  0.80274  0.99021  1.0000
  C   C176      1.0  0.53918  0.04593  0.58060  1.0000
  C   C177      1.0  0.50576  0.72586  0.98889  1.0000
  H   H178      1.0  0.08077  0.95664  0.59737  1.0000
  N   N17       1.0  0.48131  0.79740  0.57133  1.0000
  C   C178      1.0  0.47260  0.83000  0.54864  1.0000
  C   C179      1.0  0.07209  0.85579  0.02712  1.0000
  H   H179      1.0  0.37473  0.79565  0.97557  1.0000
  C   C180      1.0  0.16127  0.78980  0.01614  1.0000
  C   C181      1.0  0.10056  0.93385  0.58478  1.0000
  C   C182      1.0  0.49272  0.86585  0.55560  1.0000
  C   C183      1.0  0.52173  0.86814  0.58598  1.0000
  C   C184      1.0  0.46340  0.81882  0.96251  1.0000
  H   H180      1.0  0.39786  0.76886  0.01661  1.0000
  C   C185      1.0  0.53489  0.75572  0.99426  1.0000
  C   C186      1.0  0.13597  0.92287  0.60552  1.0000
  H   H181      1.0  0.55354  0.83612  0.63205  1.0000
  C   C187      1.0  0.49275  0.84854  0.96603  1.0000
  H   H182      1.0  0.54818  0.92173  0.77962  1.0000
  H   H183      1.0  0.53748  0.89576  0.59172  1.0000
  H   H184      1.0  0.45855  0.74114  0.58965  1.0000
  H   H185      1.0  0.51636  0.85163  0.94360  1.0000
  C   C188      1.0  0.40371  0.78297  0.98733  1.0000
  H   H186      1.0  0.12343  0.73767  0.01447  1.0000
  C   C189      1.0  0.43272  0.83944  0.02336  1.0000
  H   H187      1.0  0.14332  0.93702  0.63369  1.0000
  C   C190      1.0  0.11746  0.88937  0.53216  1.0000
  H   H188      1.0  0.46464  0.79899  0.93700  1.0000
  H   H189      1.0  0.42963  0.76464  0.55107  1.0000
  N   N18       1.0  0.43435  0.81417  0.99135  1.0000
  H   H190      1.0  0.41434  0.75872  0.96715  1.0000
  H   H191      1.0  0.06577  0.87309  0.00077  1.0000
  H   H192      1.0  0.48624  0.89170  0.53747  1.0000
  C   C191      1.0  0.49205  0.87366  0.99917  1.0000
  C   C192      1.0  0.20418  0.84874  0.02200  1.0000
  H   H193      1.0  0.51811  0.77321  0.61805  1.0000
  C   C193      1.0  0.15287  0.87734  0.55233  1.0000
  H   H194      1.0  0.19015  0.88599  0.60451  1.0000
  H   H195      1.0  0.51531  0.89612  0.00277  1.0000
  C   C194      1.0  0.47696  0.71819  0.01865  1.0000
  C   C195      1.0  0.46173  0.86933  0.02792  1.0000
  C   C196      1.0  0.16222  0.89436  0.58914  1.0000
  H   H196      1.0  0.17348  0.85573  0.53888  1.0000
  H   H197      1.0  0.91701  0.28354  0.08050  1.0000
  C   C197      1.0  0.67806  0.17386  0.50913  1.0000
  N   N19       1.0  0.61791  0.26827  0.07475  1.0000
  C   C198      1.0  0.65719  0.32695  0.08686  1.0000
  C   C199      1.0  0.56538  0.21961  0.34631  1.0000
  S   S63       1.0  0.02062  0.34814  0.05576  1.0000
  S   S64       1.0  0.56866  0.21226  0.39802  1.0000
  H   H198      1.0  0.02976  0.14206  0.47818  1.0000
  C   C200      1.0  0.90034  0.29996  0.05787  1.0000
  C   C201      1.0  0.61656  0.15212  0.47631  1.0000
  H   H199      1.0  0.62829  0.21342  0.04511  1.0000
  S   S65       1.0  0.56298  0.23131  0.21101  1.0000
  C   C202      1.0  0.64378  0.32778  0.12628  1.0000
  H   H200      1.0  0.60734  0.29826  0.17055  1.0000
  C   C203      1.0  0.60545  0.26830  0.11364  1.0000
  H   H201      1.0  0.65304  0.35161  0.14606  1.0000
  C   C204      1.0  0.60445  0.23694  0.04742  1.0000
  S   S66       1.0  0.96095  0.16924  0.52442  1.0000
  H   H202      1.0  0.61807  0.31659  0.50123  1.0000
  H   H203      1.0  0.66293  0.18680  0.44790  1.0000
  H   H204      1.0  0.93229  0.35452  0.06868  1.0000
  H   H205      1.0  0.57627  0.11748  0.51204  1.0000
  C   C205      1.0  0.65342  0.17246  0.47518  1.0000
  C   C206      1.0  0.60475  0.13356  0.51153  1.0000
  C   C207      1.0  0.61796  0.29813  0.13991  1.0000
  S   S67       1.0  0.97915  0.16579  0.03672  1.0000
  H   H206      1.0  0.58542  0.24542  0.12457  1.0000
  H   H207      1.0  0.86404  0.25002  0.03942  1.0000
  H   H208      1.0  0.67655  0.35037  0.07571  1.0000
  C   C208      1.0  0.56281  0.22872  0.26317  1.0000
  H   H209      1.0  0.62822  0.22212  0.26582  1.0000
  C   C209      1.0  0.98986  0.21664  0.04179  1.0000
  C   C210      1.0  0.60144  0.21896  0.32416  1.0000
  C   C211      1.0  0.00718  0.23070  0.07729  1.0000
  H   H210      1.0  0.02843  0.28167  0.10977  1.0000
  C   C212      1.0  0.01658  0.27099  0.08176  1.0000
  H   H211      1.0  0.59421  0.28306  0.43931  1.0000
  H   H212      1.0  0.59735  0.15051  0.45001  1.0000
  H   H213      1.0  0.01270  0.21048  0.10166  1.0000
  C   C213      1.0  0.64405  0.29665  0.06139  1.0000
  C   C214      1.0  0.90896  0.33979  0.05117  1.0000
  C   C215      1.0  0.00928  0.29743  0.05056  1.0000
  C   C216      1.0  0.58616  0.31830  0.49252  1.0000
  C   C217      1.0  0.60014  0.22329  0.28276  1.0000
  H   H214      1.0  0.63052  0.21457  0.33894  1.0000
  C   C218      1.0  0.87093  0.28107  0.03463  1.0000
  C   C219      1.0  0.02673  0.12260  0.50347  1.0000
  H   H215      1.0  0.57534  0.22360  0.05753  1.0000
  H   H216      1.0  0.70734  0.18870  0.50851  1.0000
  H   H217      1.0  0.65398  0.29660  0.03058  1.0000
  C   C220      1.0  0.55812  0.33938  0.51606  1.0000
  C   C221      1.0  0.57278  0.29954  0.45782  1.0000
  H   H218      1.0  0.85665  0.35884  0.93799  1.0000
  Fe  Fe33      1.0  0.81703  0.14929  0.57532  1.0000
  S   S68       1.0  0.84811  0.20172  0.54828  1.0000
  C   C222      1.0  0.70814  0.06395  0.58444  1.0000
  Fe  Fe34      1.0  0.87346  0.14569  0.64584  1.0000
  S   S69       1.0  0.91021  0.19810  0.62652  1.0000
  S   S70       1.0  0.88006  0.10601  0.69894  1.0000
  Fe  Fe35      1.0  0.84941  0.22555  0.61079  1.0000
  S   S71       1.0  0.83220  0.28841  0.62710  1.0000
  Fe  Fe36      1.0  0.90653  0.17039  0.56562  1.0000
  H   H219      1.0  0.62668  0.36442  0.78961  1.0000
  S   S72       1.0  0.81329  0.17603  0.63623  1.0000
  S   S73       1.0  0.87499  0.11570  0.58627  1.0000
  C   C223      1.0  0.99111  0.10351  0.56333  1.0000
  C   C224      1.0  0.85094  0.30225  0.00455  1.0000
  H   H220      1.0  0.71462  0.37813  0.61871  1.0000
  Fe  Fe37      1.0  0.83652  0.16354  0.98089  1.0000
  H   H221      1.0  0.76021  0.14958  0.80398  1.0000
  Fe  Fe38      1.0  0.89426  0.16766  0.91107  1.0000
  S   S74       1.0  0.93641  0.12092  0.93529  1.0000
  S   S75       1.0  0.90514  0.20401  0.85659  1.0000
  Fe  Fe39      1.0  0.87844  0.08908  0.95081  1.0000
  C   C225      1.0  0.99191  0.28341  0.01506  1.0000
  S   S76       1.0  0.87349  0.11652  0.01183  1.0000
  S   S77       1.0  0.83697  0.13336  0.92117  1.0000
  S   S78       1.0  0.89012  0.20172  0.96810  1.0000
  H   H222      1.0  0.78501  0.35952  0.63849  1.0000
  H   H223      1.0  0.56893  0.35410  0.54285  1.0000
  S   S79       1.0  0.65014  0.33364  0.57934  1.0000
  C   C226      1.0  0.74944  0.29795  0.92577  1.0000
  C   C227      1.0  0.77437  0.26708  0.91193  1.0000
  C   C228      1.0  0.78358  0.23494  0.93658  1.0000
  C   C229      1.0  0.76729  0.23324  0.97500  1.0000
  H   H224      1.0  0.56356  0.31795  0.97926  1.0000
  H   H225      1.0  0.80384  0.21183  0.92602  1.0000
  C   C230      1.0  0.74987  0.05754  0.65694  1.0000
  C   C231      1.0  0.80101  0.19875  0.74377  1.0000
  H   H226      1.0  0.79307  0.17532  0.72299  1.0000
  C   C232      1.0  0.89166  0.13243  0.74241  1.0000
  C   C233      1.0  0.89118  0.11314  0.77921  1.0000
  C   C234      1.0  0.89687  0.13478  0.81455  1.0000
  C   C235      1.0  0.90349  0.17561  0.81293  1.0000
  C   C236      1.0  0.90555  0.19457  0.77606  1.0000
  C   C237      1.0  0.89927  0.17306  0.74082  1.0000
  H   H227      1.0  0.88554  0.08163  0.78047  1.0000
  H   H228      1.0  0.89552  0.12000  0.84302  1.0000
  H   H229      1.0  0.91085  0.22614  0.77481  1.0000
  H   H230      1.0  0.89976  0.18807  0.71253  1.0000
  S   S80       1.0  0.78186  0.19475  0.00689  1.0000
  H   H231      1.0  0.83237  0.28141  0.81722  1.0000
  H   H232      1.0  0.81567  0.21467  0.84162  1.0000
  C   C238      1.0  0.70073  0.32127  0.59307  1.0000
  C   C239      1.0  0.71636  0.28345  0.58398  1.0000
  H   H233      1.0  0.97239  0.28796  0.57741  1.0000
  C   C240      1.0  0.78149  0.30048  0.61415  1.0000
  C   C241      1.0  0.76591  0.33822  0.62332  1.0000
  C   C242      1.0  0.05026  0.06521  0.54074  1.0000
  N   N20       1.0  0.02622  0.27041  0.54507  1.0000
  C   C243      1.0  0.56643  0.33611  0.00579  1.0000
  H   H234      1.0  0.68477  0.15611  0.57001  1.0000
  C   C244      1.0  0.82293  0.25862  0.79629  1.0000
  H   H235      1.0  0.01554  0.05228  0.59348  1.0000
  N   N21       1.0  0.62885  0.13545  0.54480  1.0000
  H   H236      1.0  0.58425  0.12434  0.58909  1.0000
  H   H237      1.0  0.98618  0.30364  0.99075  1.0000
  C   C245      1.0  0.81013  0.23637  0.72906  1.0000
  H   H238      1.0  0.80908  0.24215  0.69730  1.0000
  H   H239      1.0  0.78755  0.26866  0.88254  1.0000
  C   C246      1.0  0.66515  0.15519  0.54394  1.0000
  C   C247      1.0  0.74386  0.08555  0.59061  1.0000
  N   N22       1.0  0.80333  0.19124  0.78372  1.0000
  C   C248      1.0  0.79353  0.15170  0.79856  1.0000
  C   C249      1.0  0.81336  0.22075  0.80998  1.0000
  C   C250      1.0  0.76474  0.08213  0.62687  1.0000
  H   H240      1.0  0.80818  0.05341  0.98865  1.0000
  H   H241      1.0  0.81020  0.14539  0.82678  1.0000
  C   C251      1.0  0.82143  0.26635  0.75551  1.0000
  H   H242      1.0  0.96713  0.10847  0.58491  1.0000
  H   H243      1.0  0.71354  0.32026  0.97487  1.0000
  C   C252      1.0  0.73297  0.29644  0.96417  1.0000
  H   H244      1.0  0.79309  0.09738  0.63153  1.0000
  H   H245      1.0  0.82943  0.29534  0.74427  1.0000
  H   H246      1.0  0.80314  0.12842  0.77682  1.0000
  C   C253      1.0  0.72578  0.34867  0.61254  1.0000
  H   H247      1.0  0.61240  0.37375  0.98036  1.0000
  Fe  Fe40      1.0  0.92778  0.15258  0.99373  1.0000
  H   H248      1.0  0.76847  0.24390  0.58714  1.0000
  H   H249      1.0  0.80755  0.35131  0.96079  1.0000
  H   H250      1.0  0.72941  0.26274  0.01857  1.0000
  C   C254      1.0  0.83888  0.36265  0.96590  1.0000
  H   H251      1.0  0.97020  0.23239  0.98267  1.0000
  C   C255      1.0  0.75664  0.27306  0.59447  1.0000
  C   C256      1.0  0.04129  0.30814  0.54506  1.0000
  H   H252      1.0  0.69729  0.26214  0.56879  1.0000
  C   C257      1.0  0.01866  0.07175  0.56821  1.0000
  H   H253      1.0  0.61649  0.08251  0.57585  1.0000
  S   S81       1.0  0.76207  0.11673  0.55300  1.0000
  H   H254      1.0  0.66592  0.33494  0.81443  1.0000
  H   H255      1.0  0.63611  0.12161  0.60678  1.0000
  S   S82       1.0  0.74141  0.33918  0.89535  1.0000
  C   C258      1.0  0.74164  0.26384  0.98871  1.0000
  C   C259      1.0  0.61587  0.11508  0.58100  1.0000
  H   H256      1.0  0.98446  0.23605  0.57849  1.0000
  H   H257      1.0  0.64264  0.37721  0.83884  1.0000
  H   H258      1.0  0.82902  0.28706  0.98592  1.0000
  H   H259      1.0  0.69210  0.06608  0.55632  1.0000
  C   C260      1.0  0.98240  0.24309  0.01061  1.0000
  C   C261      1.0  0.65370  0.36537  0.80978  1.0000
  N   N23       1.0  0.85919  0.34142  0.99848  1.0000
  C   C262      1.0  0.59403  0.36779  0.00630  1.0000
  H   H260      1.0  0.76660  0.05460  0.68460  1.0000
  H   H261      1.0  0.59809  0.24927  0.01736  1.0000
  H   H262      1.0  0.67028  0.37738  0.73301  1.0000
  C   C263      1.0  0.98475  0.26289  0.55939  1.0000
  H   H263      1.0  0.02304  0.33291  0.55597  1.0000
  C   C264      1.0  0.99495  0.12893  0.53085  1.0000
  C   C265      1.0  0.04916  0.23951  0.53043  1.0000
  H   H264      1.0  0.96404  0.25753  0.53365  1.0000
  H   H265      1.0  0.03699  0.20969  0.52990  1.0000
  C   C266      1.0  0.88799  0.36022  0.02113  1.0000
  S   S83       1.0  0.63273  0.43093  0.04263  1.0000
  H   H266      1.0  0.57606  0.40206  0.10006  1.0000
  C   C267      1.0  0.81350  0.59086  0.03842  1.0000
  H   H267      1.0  0.78917  0.60793  0.05224  1.0000
  H   H268      1.0  0.66207  0.65996  0.51692  1.0000
  H   H269      1.0  0.03354  0.48356  0.24934  1.0000
  H   H270      1.0  0.04879  0.57000  0.51324  1.0000
  C   C268      1.0  0.59763  0.39168  0.04029  1.0000
  C   C269      1.0  0.56694  0.69413  0.07703  1.0000
  S   S84       1.0  0.86060  0.65682  0.04986  1.0000
  H   H271      1.0  0.05371  0.44746  0.28416  1.0000
  H   H272      1.0  0.58113  0.69827  0.04819  1.0000
  C   C270      1.0  0.57347  0.38365  0.07368  1.0000
  H   H273      1.0  0.04086  0.44966  0.03746  1.0000
  C   C271      1.0  0.85209  0.60785  0.03360  1.0000
  H   H274      1.0  0.77657  0.53875  0.02993  1.0000
  H   H275      1.0  0.81132  0.58281  0.66047  1.0000
  S   S85       1.0  0.65497  0.42507  0.65234  1.0000
  S   S86       1.0  0.94482  0.69861  0.74112  1.0000
  S   S87       1.0  0.58402  0.49399  0.64012  1.0000
  C   C272      1.0  0.68897  0.64363  0.61332  1.0000
  Fe  Fe41      1.0  0.64509  0.47836  0.61429  1.0000
  S   S88       1.0  0.69018  0.52597  0.60314  1.0000
  Fe  Fe42      1.0  0.59134  0.43685  0.67310  1.0000
  C   C273      1.0  0.84135  0.59868  0.91087  1.0000
  S   S89       1.0  0.62078  0.44506  0.56185  1.0000
  C   C274      1.0  0.74736  0.43742  0.76255  1.0000
  Fe  Fe43      1.0  0.70022  0.47788  0.91501  1.0000
  S   S90       1.0  0.70783  0.49680  0.97893  1.0000
  S   S91       1.0  0.69157  0.51645  0.86105  1.0000
  C   C275      1.0  0.76439  0.45436  0.54816  1.0000
  Fe  Fe44      1.0  0.76629  0.46153  0.97748  1.0000
  H   H276      1.0  0.68827  0.59885  0.67703  1.0000
  S   S92       1.0  0.76079  0.44730  0.91278  1.0000
  Fe  Fe45      1.0  0.67844  0.43799  0.99280  1.0000
  S   S93       1.0  0.98043  0.66097  0.02034  1.0000
  H   H277      1.0  0.77089  0.45638  0.75060  1.0000
  H   H278      1.0  0.57684  0.43229  0.82270  1.0000
  H   H279      1.0  0.88139  0.45334  0.63182  1.0000
  S   S94       1.0  0.66560  0.42254  0.92883  1.0000
  C   C276      1.0  0.99420  0.52134  0.58335  1.0000
  C   C277      1.0  0.77557  0.56858  0.92686  1.0000
  C   C278      1.0  0.65743  0.49523  0.82660  1.0000
  C   C279      1.0  0.66267  0.50119  0.78561  1.0000
  C   C280      1.0  0.63764  0.48141  0.75793  1.0000
  C   C281      1.0  0.60699  0.45609  0.77131  1.0000
  H   H280      1.0  0.63923  0.62337  0.68381  1.0000
  C   C282      1.0  0.62615  0.47070  0.83978  1.0000
  H   H281      1.0  0.68675  0.52024  0.77523  1.0000
  H   H282      1.0  0.64236  0.48536  0.72633  1.0000
  N   N24       1.0  0.68567  0.39060  0.79337  1.0000
  C   C283      1.0  0.73456  0.52302  0.63195  1.0000
  C   C284      1.0  0.75778  0.55711  0.63618  1.0000
  C   C285      1.0  0.78609  0.48591  0.66882  1.0000
  C   C286      1.0  0.74852  0.48727  0.64840  1.0000
  H   H283      1.0  0.79790  0.45808  0.67997  1.0000
  H   H284      1.0  0.73163  0.46044  0.64356  1.0000
  Fe  Fe46      1.0  0.88676  0.57639  0.67479  1.0000
  S   S95       1.0  0.87930  0.59144  0.61023  1.0000
  S   S96       1.0  0.85806  0.51939  0.69427  1.0000
  Fe  Fe47      1.0  0.92690  0.65486  0.69397  1.0000
  S   S97       1.0  0.92179  0.67630  0.63101  1.0000
  H   H285      1.0  0.98801  0.59176  0.83115  1.0000
  Fe  Fe48      1.0  0.85858  0.65121  0.63262  1.0000
  Fe  Fe49      1.0  0.94305  0.61421  0.61541  1.0000
  H   H286      1.0  0.76158  0.45102  0.82374  1.0000
  S   S98       1.0  0.86250  0.63456  0.69699  1.0000
  S   S99       1.0  0.95251  0.59458  0.67861  1.0000
  H   H287      1.0  0.82772  0.57337  0.79937  1.0000
  C   C287      1.0  0.02061  0.55597  0.98827  1.0000
  Fe  Fe50      1.0  0.72708  0.39352  0.93117  1.0000
  S   S100      1.0  0.99252  0.62844  0.90901  1.0000
  Fe  Fe51      1.0  0.91609  0.68428  0.02255  1.0000
  C   C288      1.0  0.00807  0.55289  0.56025  1.0000
  H   H288      1.0  0.74460  0.56791  0.91314  1.0000
  C   C289      1.0  0.81898  0.49677  0.57025  1.0000
  Fe  Fe52      1.0  0.55975  0.45650  0.59006  1.0000
  Fe  Fe53      1.0  0.97613  0.67413  0.95512  1.0000
  S   S101      1.0  0.83038  0.47973  0.99371  1.0000
  H   H289      1.0  0.97107  0.52658  0.60577  1.0000
  H   H290      1.0  0.62095  0.46704  0.87127  1.0000
  C   C290      1.0  0.95734  0.70253  0.82111  1.0000
  C   C291      1.0  0.97925  0.62261  0.82840  1.0000
  C   C292      1.0  0.97924  0.64732  0.86209  1.0000
  S   S102      1.0  0.56189  0.39988  0.62527  1.0000
  H   H291      1.0  0.96831  0.61889  0.76502  1.0000
  H   H292      1.0  0.77431  0.55582  0.84845  1.0000
  H   H293      1.0  0.88641  0.50110  0.61034  1.0000
  H   H294      1.0  0.00086  0.45895  0.59640  1.0000
  H   H295      1.0  0.99252  0.56414  0.97294  1.0000
  H   H296      1.0  0.89058  0.60762  0.82233  1.0000
  H   H297      1.0  0.90494  0.45846  0.58312  1.0000
  C   C293      1.0  0.79437  0.55596  0.65725  1.0000
  C   C294      1.0  0.80914  0.52045  0.67303  1.0000
  H   H298      1.0  0.74794  0.58453  0.62261  1.0000
  N   N25       1.0  0.80657  0.58039  0.89795  1.0000
  N   N26       1.0  0.84029  0.46452  0.58399  1.0000
  C   C295      1.0  0.80163  0.57098  0.85852  1.0000
  C   C296      1.0  0.87201  0.60879  0.88389  1.0000
  C   C297      1.0  0.88026  0.46952  0.60307  1.0000
  C   C298      1.0  0.86700  0.59990  0.84354  1.0000
  H   H299      1.0  0.71244  0.65182  0.63462  1.0000
  C   C299      1.0  0.83792  0.52926  0.00869  1.0000
  H   H300      1.0  0.89964  0.62319  0.89425  1.0000
  C   C300      1.0  0.72182  0.41623  0.73703  1.0000
  C   C301      1.0  0.83167  0.58077  0.83068  1.0000
  C   C302      1.0  0.01115  0.48311  0.57804  1.0000
  C   C303      1.0  0.87649  0.54628  0.00377  1.0000
  C   C304      1.0  0.96773  0.68712  0.85842  1.0000
  H   H301      1.0  0.83089  0.52641  0.57407  1.0000
  C   C305      1.0  0.62904  0.60792  0.59687  1.0000
  C   C306      1.0  0.65703  0.60274  0.66453  1.0000
  C   C307      1.0  0.60090  0.45135  0.81224  1.0000
  C   C308      1.0  0.95753  0.67803  0.78737  1.0000
  H   H302      1.0  0.90101  0.52903  0.99057  1.0000
  H   H303      1.0  0.83579  0.39483  0.97279  1.0000
  S   S103      1.0  0.79626  0.67664  0.61747  1.0000
  S   S104      1.0  0.99084  0.60200  0.56834  1.0000
  C   C309      1.0  0.04227  0.47637  0.54996  1.0000
  C   C310      1.0  0.78676  0.42156  0.56132  1.0000
  S   S105      1.0  0.73793  0.40418  0.99620  1.0000
  C   C311      1.0  0.96800  0.63790  0.79104  1.0000
  H   H304      1.0  0.84557  0.60552  0.94223  1.0000
  S   S106      1.0  0.57738  0.42816  0.73785  1.0000
  H   H305      1.0  0.78308  0.53859  0.93838  1.0000
  H   H306      1.0  0.77411  0.58969  0.95239  1.0000
  H   H307      1.0  0.60513  0.58753  0.60509  1.0000
  C   C312      1.0  0.88345  0.58560  0.01579  1.0000
  H   H308      1.0  0.72575  0.41822  0.70510  1.0000
  C   C313      1.0  0.74226  0.43436  0.80360  1.0000
  H   H309      1.0  0.73424  0.45059  0.53523  1.0000
  C   C314      1.0  0.69077  0.39295  0.75302  1.0000
  N   N27       1.0  0.65868  0.61806  0.62377  1.0000
  C   C315      1.0  0.78073  0.49218  0.55224  1.0000
  C   C316      1.0  0.69087  0.65880  0.57469  1.0000
  H   H310      1.0  0.91327  0.59848  0.01191  1.0000
  H   H311      1.0  0.71564  0.67827  0.56637  1.0000
  S   S107      1.0  0.91056  0.69250  0.95703  1.0000
  H   H312      1.0  0.84185  0.40153  0.58998  1.0000
  H   H313      1.0  0.99789  0.50032  0.00900  1.0000
  H   H314      1.0  0.64275  0.57295  0.66511  1.0000
  C   C317      1.0  0.82486  0.42720  0.57939  1.0000
  C   C318      1.0  0.80630  0.55176  0.02567  1.0000
  C   C319      1.0  0.02396  0.51993  0.00854  1.0000
  C   C320      1.0  0.71142  0.41027  0.81858  1.0000
  C   C321      1.0  0.62976  0.62283  0.55807  1.0000
  Fe  Fe54      1.0  0.62575  0.39236  0.60187  1.0000
  H   H315      1.0  0.70766  0.40799  0.85050  1.0000
  H   H316      1.0  0.76321  0.51796  0.54283  1.0000
  H   H317      1.0  0.96748  0.70638  0.88420  1.0000
  H   H318      1.0  0.05151  0.60956  0.97204  1.0000
  H   H319      1.0  0.60642  0.61436  0.53670  1.0000
  C   C322      1.0  0.66097  0.64837  0.54697  1.0000
  H   H320      1.0  0.77454  0.39196  0.55779  1.0000
  C   C323      1.0  0.03820  0.54581  0.53141  1.0000
  H   H321      1.0  0.89504  0.39113  0.01590  1.0000
  C   C324      1.0  0.05377  0.58160  0.98780  1.0000
  H   H322      1.0  0.01711  0.92050  0.04419  1.0000
  H   H323      1.0  0.03933  0.90382  0.51317  1.0000
  H   H324      1.0  0.82852  0.74987  0.05280  1.0000
  C   C325      1.0  0.84677  0.87198  0.03258  1.0000
  S   S108      1.0  0.04976  0.74446  0.06689  1.0000
  H   H325      1.0  0.80365  0.92059  0.03783  1.0000
  H   H326      1.0  0.74343  0.87692  0.03861  1.0000
  C   C326      1.0  0.77932  0.82297  0.03216  1.0000
  H   H327      1.0  0.99305  0.00503  0.06113  1.0000
  H   H328      1.0  0.59399  0.74700  0.10176  1.0000
  S   S109      1.0  0.57179  0.81494  0.03785  1.0000
  H   H329      1.0  0.75278  0.80401  0.03202  1.0000
  C   C327      1.0  0.77382  0.86404  0.03592  1.0000
  C   C328      1.0  0.80775  0.88865  0.03569  1.0000
  H   H330      1.0  0.04208  0.98865  0.04191  1.0000
  C   C329      1.0  0.57454  0.72172  0.10736  1.0000
  S   S110      1.0  0.93479  0.74708  0.03444  1.0000
  H   H331      1.0  0.56110  0.73861  0.16800  1.0000
  C   C330      1.0  0.55582  0.71721  0.14434  1.0000
  H   H332      1.0  0.87337  0.89084  0.03226  1.0000
  C   C331      1.0  0.85117  0.83077  0.02923  1.0000
  C   C332      1.0  0.01057  0.99833  0.03356  1.0000
  Fe  Fe55      1.0  0.70659  0.88140  0.59888  1.0000
  S   S111      1.0  0.69930  0.88788  0.66467  1.0000
  S   S112      1.0  0.76793  0.85842  0.57860  1.0000
  Fe  Fe56      1.0  0.62343  0.92084  0.58222  1.0000
  S   S113      1.0  0.60971  0.92969  0.64720  1.0000
  H   H333      1.0  0.77545  0.77109  0.69315  1.0000
  Fe  Fe57      1.0  0.67508  0.94842  0.65131  1.0000
  S   S114      1.0  0.69973  0.00013  0.68566  1.0000
  Fe  Fe58      1.0  0.63530  0.86811  0.65356  1.0000
  S   S115      1.0  0.61090  0.82109  0.69338  1.0000
  S   S116      1.0  0.68731  0.94383  0.58584  1.0000
  S   S117      1.0  0.64385  0.85709  0.58820  1.0000
  H   H334      1.0  0.79544  0.75021  0.00948  1.0000
  Fe  Fe59      1.0  0.61322  0.87597  0.90669  1.0000
  H   H335      1.0  0.56333  0.89022  0.71432  1.0000
  H   H336      1.0  0.68572  0.98395  0.91803  1.0000
  Fe  Fe60      1.0  0.67910  0.81763  0.92750  1.0000
  H   H337      1.0  0.74452  0.02296  0.01293  1.0000
  H   H338      1.0  0.94932  0.73358  0.81840  1.0000
  Fe  Fe61      1.0  0.67635  0.89685  0.96924  1.0000
  C   C333      1.0  0.75155  0.74524  0.61458  1.0000
  S   S118      1.0  0.61087  0.81191  0.92373  1.0000
  S   S119      1.0  0.68144  0.87993  0.90487  1.0000
  H   H339      1.0  0.71521  0.79879  0.61147  1.0000
  H   H340      1.0  0.84636  0.72308  0.67738  1.0000
  H   H341      1.0  0.77047  0.01426  0.82572  1.0000
  H   H342      1.0  0.83298  0.85837  0.94427  1.0000
  C   C334      1.0  0.75305  0.96848  0.98005  1.0000
  H   H343      1.0  0.77030  0.91792  0.94418  1.0000
  C   C335      1.0  0.77852  0.94743  0.95384  1.0000
  H   H344      1.0  0.79903  0.95471  0.68881  1.0000
  H   H345      1.0  0.84181  0.03123  0.57133  1.0000
  C   C336      1.0  0.77268  0.78275  0.91247  1.0000
  C   C337      1.0  0.80297  0.75408  0.90564  1.0000
  C   C338      1.0  0.84396  0.76276  0.91333  1.0000
  C   C339      1.0  0.85482  0.79996  0.92820  1.0000
  S   S120      1.0  0.67948  0.83465  0.99213  1.0000
  S   S121      1.0  0.57476  0.90326  0.85884  1.0000
  H   H346      1.0  0.77727  0.94498  0.55076  1.0000
  C   C340      1.0  0.69345  0.03905  0.61439  1.0000
  C   C341      1.0  0.58309  0.87902  0.81325  1.0000
  H   H347      1.0  0.84925  0.77601  0.67006  1.0000
  C   C342      1.0  0.69356  0.98582  0.88664  1.0000
  C   C343      1.0  0.55762  0.98887  0.53967  1.0000
  C   C344      1.0  0.59927  0.84279  0.73951  1.0000
  C   C345      1.0  0.61471  0.82613  0.77457  1.0000
  H   H348      1.0  0.93549  0.88527  0.95036  1.0000
  C   C346      1.0  0.74113  0.00272  0.83481  1.0000
  C   C347      1.0  0.60716  0.84460  0.81139  1.0000
  H   H349      1.0  0.63318  0.79941  0.77320  1.0000
  C   C348      1.0  0.96311  0.97738  0.98084  1.0000
  C   C349      1.0  0.77644  0.80825  0.59057  1.0000
  H   H350      1.0  0.72112  0.99013  0.77498  1.0000
  N   N28       1.0  0.98993  0.96732  0.01054  1.0000
  H   H351      1.0  0.77038  0.93987  0.62241  1.0000
  C   C350      1.0  0.80951  0.97092  0.66306  1.0000
  C   C351      1.0  0.81495  0.79074  0.58424  1.0000
  C   C352      1.0  0.94335  0.94795  0.95871  1.0000
  C   C353      1.0  0.78847  0.76761  0.72272  1.0000
  H   H352      1.0  0.92263  0.95595  0.93473  1.0000
  N   N29       1.0  0.80514  0.98402  0.59288  1.0000
  Fe  Fe62      1.0  0.99897  0.72503  0.02583  1.0000
  S   S122      1.0  0.72155  0.77080  0.90366  1.0000
  H   H353      1.0  0.85134  0.73700  0.58755  1.0000
  H   H354      1.0  0.83438  0.75480  0.82776  1.0000
  C   C354      1.0  0.83869  0.00056  0.66725  1.0000
  C   C355      1.0  0.78594  0.97668  0.55409  1.0000
  Fe  Fe63      1.0  0.61123  0.83469  0.98663  1.0000
  C   C356      1.0  0.76406  0.00660  0.99256  1.0000
  H   H355      1.0  0.73132  0.78100  0.75240  1.0000
  H   H356      1.0  0.98227  0.86731  0.00604  1.0000
  H   H357      1.0  0.03842  0.80490  0.00629  1.0000
  S   S123      1.0  0.00023  0.73616  0.96005  1.0000
  C   C357      1.0  0.85424  0.75172  0.69178  1.0000
  C   C358      1.0  0.77990  0.76862  0.79417  1.0000
  H   H358      1.0  0.86721  0.74080  0.90716  1.0000
  N   N30       1.0  0.82890  0.75795  0.72723  1.0000
  H   H359      1.0  0.57291  0.99503  0.60176  1.0000
  H   H360      1.0  0.95685  0.00826  0.97387  1.0000
  H   H361      1.0  0.01344  0.02604  0.01605  1.0000
  C   C359      1.0  0.97677  0.89823  0.99879  1.0000
  C   C360      1.0  0.78355  0.82049  0.92609  1.0000
  S   S124      1.0  0.90520  0.80884  0.94352  1.0000
  C   C361      1.0  0.82472  0.82928  0.93340  1.0000
  H   H362      1.0  0.76028  0.84283  0.93119  1.0000
  C   C362      1.0  0.85089  0.02180  0.63393  1.0000
  C   C363      1.0  0.74493  0.78550  0.60629  1.0000
  H   H363      1.0  0.85139  0.00773  0.69628  1.0000
  C   C364      1.0  0.76338  0.77320  0.75607  1.0000
  H   H364      1.0  0.66564  0.02265  0.60956  1.0000
  H   H365      1.0  0.65319  0.92662  0.78365  1.0000
  H   H366      1.0  0.76081  0.77284  0.82038  1.0000
  C   C365      1.0  0.73110  0.00120  0.87517  1.0000
  C   C366      1.0  0.66635  0.97238  0.85744  1.0000
  H   H367      1.0  0.87715  0.74476  0.76811  1.0000
  Fe  Fe64      1.0  0.93438  0.75347  0.96809  1.0000
  C   C367      1.0  0.55821  0.00863  0.57642  1.0000
  C   C368      1.0  0.79309  0.96289  0.62539  1.0000
  H   H368      1.0  0.75245  0.01172  0.89758  1.0000
  H   H369      1.0  0.65165  0.97394  0.75868  1.0000
  C   C369      1.0  0.71316  0.98902  0.80636  1.0000
  H   H370      1.0  0.83941  0.80821  0.57202  1.0000
  H   H371      1.0  0.61562  0.96369  0.79725  1.0000
  H   H372      1.0  0.83516  0.94792  0.92095  1.0000
  N   N31       1.0  0.67618  0.97446  0.81789  1.0000
  C   C370      1.0  0.64786  0.95895  0.78787  1.0000
  C   C371      1.0  0.84524  0.75295  0.76444  1.0000
  C   C372      1.0  0.83328  0.01352  0.59682  1.0000
  H   H373      1.0  0.63737  0.96011  0.86665  1.0000
  C   C373      1.0  0.81525  0.96440  0.94084  1.0000
  C   C374      1.0  0.57557  0.87744  0.74132  1.0000
  C   C375      1.0  0.82176  0.75048  0.59308  1.0000
  S   S125      1.0  0.60789  0.89863  0.96914  1.0000
  S   S126      1.0  0.87206  0.02373  0.93702  1.0000
  C   C376      1.0  0.82606  0.00273  0.95332  1.0000
  S   S127      1.0  0.70809  0.94791  0.99924  1.0000
  C   C377      1.0  0.80016  0.02387  0.97889  1.0000
  H   H374      1.0  0.61998  0.83210  0.83825  1.0000
  H   H375      1.0  0.88154  0.81808  0.02643  1.0000
  C   C378      1.0  0.99636  0.92839  0.02014  1.0000
  C   C379      1.0  0.82110  0.75844  0.79840  1.0000
  H   H376      1.0  0.55750  0.76086  0.97153  1.0000
  C   C380      1.0  0.71468  0.03532  0.65043  1.0000
  H   H377      1.0  0.79467  0.72502  0.89469  1.0000
  N   N32       1.0  0.81760  0.80693  0.02801  1.0000
  H   H378      1.0  0.84880  0.75672  0.00337  1.0000
  C   C381      1.0  0.95042  0.90821  0.96765  1.0000
  C   C382      1.0  0.78988  0.72757  0.60788  1.0000
  H   H379      1.0  0.88739  0.75095  0.69914  1.0000
  C   C383      1.0  0.56690  0.89517  0.77825  1.0000
  S   S128      1.0  0.58002  0.94137  0.53389  1.0000
  H   H380      1.0  0.03311  0.94588  0.54584  1.0000
  H   H381      1.0  0.87319  0.04519  0.63715  1.0000
  H   H382      1.0  0.72683  0.72787  0.62635  1.0000
  C   C384      1.0  0.82278  0.76390  0.02341  1.0000
  H   H383      1.0  0.75811  0.99554  0.55113  1.0000
  H   H384      1.0  0.80709  0.98351  0.52928  1.0000
