data_image0
_chemical_formula_structural       FeS2FeS2FeSFeS3CFeS2FeS2FeSFeS3HSHSFeSFeSHC8H4C5NH4C6H5C6H4CFeH2C3H6CHCHCHC2H3CHC2H2C2H2CH3CH2NC5H2C4HC5H2C3NH2CN2C3HCH7C2NHCH2C3HC2H2C3HCFeS2FeS2FeSFeS3HFeS2FeS2FeSFeS3CSHSFeSFeSH2C7H4CFeC2H6C6H5C6H7CHC3H3CHC2H2NC5H2CH3CH2C3HCHC2HNH8C2H2NCNHC2HC2HCHC4H2C3HCSNC3HC3H4C3H3C2FeCFeS2FeCH2S2HSC3HC2HC6H4CSHCSHCSC2H5C2NH2FeH4C4HNH2C3SFeSH3CHCH2FeHFeS2FeH3S2CSCSH4FeC6H5CHCNCNHCHCH2SH2NCHSC2NC6H6SCHC2FeH5SH2CFeS2FeHCHFeHS2H2CHSCNSCHC6H9C2HC3H9FeSHC2FeS2H3CFeHS3FeH2C2NHCHC6HCH2NCH5CHCH5CSHFeC2FeS2FeS2FeSFeS3HSFeS2FeSFeSC2FeS2FeSFeCFeHS2FeHC2H3C3SCHC9H4C2HC2H3NHC6H4C6H3NSNC6H8C2NH4CH2C3H2C4HCH2CNH2CHC2H2NHSH4CH2CHC2H2CHCHCSHCSHSH2CFeS2FeS2FeSFeS3HSFeS2FeSFeS3FeS2FeSFeHFeCS2HC3H6C3H2C7H4CHC2HCH4C6H4C6H4SC2NHC3SFeH6CH2C3NCHC2H2NCHC2NC6H2NH2CH2C3H2C2H2CH5CH3CH8SHC2HC2HSHCNH2CH2C2SC2H2SCH7FeSHFeS2FeSFeS2FeSCFeSFe3CS3C2FeS2FeS3FeS3HFeSH2CFeSFeCS2HCH2C3HCH2C3N2HCHSC6HC3HCHCHCSHC2HCH3CH2C3FeHC7H5C2SH4C2SHNCSH2CH2CH2CH2CHSCSHC2H2NH3CH2SCHC2H2CH3CH6CH2SC2H3CHC4HNHCHC4HCHNHNC6H2SCSH2CHSH3FeC2FeC4SCH2C2HCHNC2H2FeSCFeSHFeSFeS2FeSHFeSFeCFeCS3CHFeS2FeHSHFeS4FeSHC2FeSFeHSFeHSHC2H3CH2CH2SCHC4SNH2C4H2CHC8H2CSCHC4H2C6H4CSC4NC3SH2CSHC2H4CHC4NCHC2HCHC2S3HCH3S2H2CSH3FeH2C2HNC3H5FeHSHC2NC3HC4H2CHNHCH2C2HC2HCH5CFeH2CSHFeC5SC2SHSHFeHFeSHFeSFeCH2S2FeS2FeS2FeSFeS3FeS2FeS2FeSFeS3CHCHCHC6HC2HC3HC2NHCHC7H5CHC5HC2SH2C4H3CHC4H3C3H2C4H3C5HC2NH5CHSH2CHCHS2C2HCHC2HCH2C2NC2HCHCSCHCHCH2CH7FeNC3H4C2HCNHC3H3NSH2C3SFeHCH2CH2CFeC2HCNHCHCHCHCSCHC3H2C2H3CHC2SHSCFeSFeSCFeHFeCFeS2CFeS2FeS2FeSFeS3FeSCFeS2FeSFeS3H2SC4HSCNCH2CNHCH2C3NCH2C6H4C2H2S2HCHCH6C2HC5SH2CHC4HSC5H2CHC2SCSNC6H2CH6C2H2CHC2HC2H3CH3CSHCNCH3C2H2CHC2HNHCH2CH4CHSHC7HSH2C2HCH3CH3C5HFeNC2HCH5SHCHFeHSHFeSCHS4HC4HC2H3NCFeHC2HNHFeH2CHC2H2CHS2NCHSCS2C2HCH2FeS2FeS2FeSFeS3HFeS2FeS2FeSFeS4CSHFeSFeSC5HCH2C7H4CH2C7H4C6H4CNC2H4CH3C3HCH3C3HC4H3C2H4NSC3HCH2CHNSH2CH2CNC4H2C2HCH2C2H3C4NHC2HCFeH2CH3CH2CH8CFeS2FeS2FeSFeS3HFeS2FeS2FeSFeS3FeHS2FeSFeSCHC2NCH2CHC6H4C9H3SC7H5CH4CH2CHC4H4NHCHC2H2CNC2HCSCH2CHC3H2NCHC3HCHCH3C2HC6H3CH2CNHC3HCH2CHCHCH6CH2NHCHFeS2C2S2CSCH2C8H4CFeCH8CHNHCH3C2HC2HNFeSHC2HFeS2H2S2CSH2CH2C6H4CNHCH4C2NHC2H3SFeCNC2H4CH2CHC2H3CHC2HFeHS2C3S3CNCHCHCFeHC6H6C2HNCH4CH6FeCH2CH3CFeS2C2HS3HCH6NC7HC2HFe2H4CSNH2C3H2CHCHCHCHC2FeCHCSHFeS2FeS2FeSFeS3HSFeSHFeSFeSCSFeS2FeSFeCFeCS2CHCHC2HC2SC8H4CSC2NCH4C6H6CHCHC6H2C4HCHNHC3H2FeCH4SCH6SH3C3H2NH2NC2HCHC2H5NC3H2C2H4CH3CHC2HC3SHCNC2HCH3FeS2FeS2FeSFeS3HSFeSCFeSFeSCSFeS2FeSFeHFeHS2C2NHC2H3C2HC6H4C4H5C7H4C2HNCHC4H4SHCH2CHSHSNH2CHNHC2HCHCH4CNH4CHCHCHCH2C2NH2C6HS2HCH3C3HCHFeCHCHC2NHCHCHC5H7C3H2C2HCH
_chemical_formula_sum              "Fe192 S384 C1152 H1152 N96"
_cell_length_a       59.4522
_cell_length_b       90.4928
_cell_length_c       49.5457
_cell_angle_alpha    89.8321
_cell_angle_beta     90.0216
_cell_angle_gamma    88.4174

_space_group_name_H-M_alt    "P 1"
_space_group_IT_number       1

loop_
  _space_group_symop_operation_xyz
  'x, y, z'

loop_
  _atom_site_type_symbol
  _atom_site_label
  _atom_site_symmetry_multiplicity
  _atom_site_fract_x
  _atom_site_fract_y
  _atom_site_fract_z
  _atom_site_occupancy
  Fe  Fe1       1.0  0.10242  0.00068  0.40881  1.0000
  S   S1        1.0  0.08059  0.02084  0.41628  1.0000
  S   S2        1.0  0.12143  0.98968  0.44465  1.0000
  Fe  Fe2       1.0  0.09012  0.00048  0.34708  1.0000
  S   S3        1.0  0.06741  0.02078  0.35199  1.0000
  S   S4        1.0  0.08436  0.98647  0.30853  1.0000
  Fe  Fe3       1.0  0.09498  0.03034  0.37791  1.0000
  S   S5        1.0  0.10051  0.05576  0.37803  1.0000
  Fe  Fe4       1.0  0.05537  0.00996  0.38988  1.0000
  S   S6        1.0  0.02023  0.00561  0.40474  1.0000
  S   S7        1.0  0.11863  0.01051  0.37130  1.0000
  S   S8        1.0  0.07648  0.98934  0.38428  1.0000
  C   C1        1.0  0.99000  0.98520  0.33692  1.0000
  Fe  Fe5       1.0  0.16485  0.13737  0.37451  1.0000
  S   S9        1.0  0.13483  0.15169  0.36228  1.0000
  S   S10       1.0  0.16601  0.11168  0.37411  1.0000
  Fe  Fe6       1.0  0.19563  0.16504  0.38098  1.0000
  S   S11       1.0  0.16695  0.18031  0.36892  1.0000
  S   S12       1.0  0.22641  0.17714  0.39786  1.0000
  Fe  Fe7       1.0  0.14565  0.16665  0.39655  1.0000
  S   S13       1.0  0.12287  0.17956  0.42621  1.0000
  Fe  Fe8       1.0  0.15916  0.16409  0.33607  1.0000
  S   S14       1.0  0.15906  0.17104  0.29123  1.0000
  S   S15       1.0  0.17444  0.15183  0.40989  1.0000
  S   S16       1.0  0.18899  0.14923  0.34693  1.0000
  H   H1        1.0  0.15481  0.20798  0.44206  1.0000
  S   S17       1.0  0.07506  0.18958  0.11430  1.0000
  H   H2        1.0  0.20021  0.11920  0.28540  1.0000
  S   S18       1.0  0.12743  0.19814  0.12505  1.0000
  Fe  Fe9       1.0  0.10524  0.19494  0.08853  1.0000
  S   S19       1.0  0.11620  0.17936  0.05400  1.0000
  Fe  Fe10      1.0  0.09650  0.19527  0.15040  1.0000
  S   S20       1.0  0.09238  0.18380  0.19153  1.0000
  H   H3        1.0  0.14383  0.09721  0.31942  1.0000
  C   C2        1.0  0.01791  0.18263  0.06538  1.0000
  C   C3        1.0  0.28319  0.16651  0.42586  1.0000
  C   C4        1.0  0.14010  0.17369  0.26359  1.0000
  C   C5        1.0  0.11674  0.17299  0.26645  1.0000
  C   C6        1.0  0.10250  0.17587  0.24407  1.0000
  C   C7        1.0  0.11133  0.17966  0.21865  1.0000
  C   C8        1.0  0.13470  0.18017  0.21572  1.0000
  C   C9        1.0  0.14895  0.17711  0.23800  1.0000
  H   H4        1.0  0.10961  0.17041  0.28593  1.0000
  H   H5        1.0  0.08446  0.17537  0.24656  1.0000
  H   H6        1.0  0.14179  0.18290  0.19629  1.0000
  H   H7        1.0  0.16699  0.17759  0.23546  1.0000
  C   C10       1.0  0.11981  0.18206  0.01858  1.0000
  C   C11       1.0  0.12427  0.04417  0.43818  1.0000
  C   C12       1.0  0.13636  0.16935  0.47722  1.0000
  C   C13       1.0  0.12307  0.17943  0.46229  1.0000
  C   C14       1.0  0.10996  0.19009  0.47636  1.0000
  N   N1        1.0  0.01266  0.98633  0.33294  1.0000
  H   H8        1.0  0.12853  0.15909  0.01170  1.0000
  H   H9        1.0  0.14646  0.16103  0.46681  1.0000
  H   H10       1.0  0.09955  0.19792  0.46508  1.0000
  H   H11       1.0  0.11222  0.20546  0.01830  1.0000
  C   C15       1.0  0.29318  0.19575  0.36624  1.0000
  C   C16       1.0  0.27915  0.20416  0.38336  1.0000
  C   C17       1.0  0.25796  0.19883  0.39132  1.0000
  C   C18       1.0  0.25013  0.18523  0.38175  1.0000
  C   C19       1.0  0.26363  0.17725  0.36343  1.0000
  C   C20       1.0  0.28500  0.18242  0.35594  1.0000
  H   H12       1.0  0.00208  0.17975  0.07465  1.0000
  H   H13       1.0  0.24788  0.20508  0.40568  1.0000
  H   H14       1.0  0.25817  0.16668  0.35615  1.0000
  H   H15       1.0  0.13787  0.20761  0.27791  1.0000
  H   H16       1.0  0.18373  0.09674  0.30579  1.0000
  C   C21       1.0  0.11911  0.07114  0.37693  1.0000
  C   C22       1.0  0.14245  0.06937  0.37375  1.0000
  C   C23       1.0  0.15638  0.08184  0.37329  1.0000
  C   C24       1.0  0.14737  0.09635  0.37606  1.0000
  C   C25       1.0  0.12403  0.09813  0.37926  1.0000
  C   C26       1.0  0.11009  0.08566  0.37965  1.0000
  H   H17       1.0  0.14981  0.05838  0.37147  1.0000
  H   H18       1.0  0.17435  0.08021  0.37070  1.0000
  H   H19       1.0  0.11668  0.10911  0.38168  1.0000
  H   H20       1.0  0.09211  0.08728  0.38224  1.0000
  C   C27       1.0  0.02066  0.19682  0.05482  1.0000
  Fe  Fe11      1.0  0.06601  0.21380  0.11160  1.0000
  H   H21       1.0  0.00748  0.19640  0.12681  1.0000
  H   H22       1.0  0.04562  0.97697  0.34021  1.0000
  C   C28       1.0  0.07982  0.97126  0.26028  1.0000
  C   C29       1.0  0.02826  0.97687  0.34858  1.0000
  C   C30       1.0  0.09374  0.98039  0.27572  1.0000
  H   H23       1.0  0.09870  0.21138  0.26101  1.0000
  H   H24       1.0  0.07558  0.98333  0.46384  1.0000
  H   H25       1.0  0.07029  0.16850  0.05182  1.0000
  H   H26       1.0  0.13659  0.14214  0.29410  1.0000
  H   H27       1.0  0.27218  0.15743  0.42152  1.0000
  H   H28       1.0  0.12952  0.01416  0.47805  1.0000
  C   C31       1.0  0.12108  0.97911  0.23881  1.0000
  H   H29       1.0  0.28318  0.19940  0.45846  1.0000
  C   C32       1.0  0.11446  0.98428  0.26468  1.0000
  H   H30       1.0  0.01423  0.02729  0.36160  1.0000
  C   C33       1.0  0.02070  0.99654  0.31521  1.0000
  H   H31       1.0  0.02882  0.98079  0.36980  1.0000
  C   C34       1.0  0.08751  0.97947  0.47897  1.0000
  C   C35       1.0  0.11694  0.19593  0.00623  1.0000
  H   H32       1.0  0.01232  0.01389  0.28665  1.0000
  H   H33       1.0  0.28497  0.21447  0.39139  1.0000
  H   H34       1.0  0.25894  0.17795  0.45099  1.0000
  C   C36       1.0  0.03584  0.17236  0.06435  1.0000
  H   H35       1.0  0.15439  0.01224  0.44059  1.0000
  C   C37       1.0  0.10483  0.05078  0.44920  1.0000
  C   C38       1.0  0.18043  0.19076  0.44405  1.0000
  H   H36       1.0  0.03410  0.16138  0.07279  1.0000
  H   H37       1.0  0.29560  0.17578  0.34268  1.0000
  C   C39       1.0  0.12273  0.02449  0.46988  1.0000
  C   C40       1.0  0.11057  0.98120  0.47462  1.0000
  H   H38       1.0  0.10371  0.12771  0.30491  1.0000
  H   H39       1.0  0.13428  0.00157  0.99514  1.0000
  C   C41       1.0  0.99801  0.02295  0.36675  1.0000
  H   H40       1.0  0.18348  0.21277  0.20179  1.0000
  H   H41       1.0  0.03869  0.99772  0.31252  1.0000
  H   H42       1.0  0.17624  0.14191  0.27928  1.0000
  C   C42       1.0  0.15288  0.21312  0.23957  1.0000
  H   H43       1.0  0.09777  0.06089  0.44036  1.0000
  H   H44       1.0  0.30980  0.15854  0.39972  1.0000
  N   N2        1.0  0.13773  0.11956  0.30696  1.0000
  C   C43       1.0  0.14669  0.13201  0.29607  1.0000
  C   C44       1.0  0.15072  0.10696  0.31007  1.0000
  C   C45       1.0  0.16916  0.13197  0.28770  1.0000
  C   C46       1.0  0.17334  0.10661  0.30234  1.0000
  C   C47       1.0  0.18259  0.11922  0.29109  1.0000
  H   H45       1.0  0.10702  0.10894  0.31636  1.0000
  H   H46       1.0  0.13150  0.02056  0.00544  1.0000
  C   C48       1.0  0.16413  0.20262  0.48324  1.0000
  C   C49       1.0  0.11456  0.12004  0.31711  1.0000
  C   C50       1.0  0.99446  0.20392  0.11930  1.0000
  C   C51       1.0  0.07250  0.98136  0.01179  1.0000
  H   H47       1.0  0.11449  0.12382  0.33843  1.0000
  C   C52       1.0  0.28948  0.19018  0.44645  1.0000
  C   C53       1.0  0.27574  0.17806  0.44247  1.0000
  C   C54       1.0  0.05614  0.17635  0.05263  1.0000
  C   C55       1.0  0.18477  0.17066  0.00839  1.0000
  C   C56       1.0  0.15287  0.02426  0.43587  1.0000
  H   H48       1.0  0.13224  0.04943  0.42112  1.0000
  H   H49       1.0  0.16986  0.21107  0.24693  1.0000
  C   C57       1.0  0.16566  0.20130  0.45516  1.0000
  C   C58       1.0  0.00057  0.21731  0.10731  1.0000
  C   C59       1.0  0.17626  0.18512  0.00598  1.0000
  N   N3        1.0  0.13268  0.03103  0.44815  1.0000
  H   H50       1.0  0.05685  0.98576  0.01994  1.0000
  H   H51       1.0  0.13716  0.98223  0.23069  1.0000
  C   C60       1.0  0.08553  0.97120  0.02736  1.0000
  N   N4        1.0  0.04087  0.20079  0.04423  1.0000
  N   N5        1.0  0.14908  0.21687  0.21313  1.0000
  C   C61       1.0  0.30426  0.16714  0.41361  1.0000
  C   C62       1.0  0.05836  0.19070  0.04261  1.0000
  C   C63       1.0  0.00586  0.00571  0.30043  1.0000
  H   H52       1.0  0.18158  0.18949  0.42233  1.0000
  C   C64       1.0  0.12624  0.16987  0.00245  1.0000
  H   H53       1.0  0.18208  0.16447  0.02685  1.0000
  H   H54       1.0  0.20457  0.17321  0.45231  1.0000
  H   H55       1.0  0.12544  0.99126  0.27610  1.0000
  H   H56       1.0  0.00671  0.20478  0.05590  1.0000
  H   H57       1.0  0.07429  0.19376  0.03390  1.0000
  H   H58       1.0  0.04086  0.21584  0.01134  1.0000
  H   H59       1.0  0.16810  0.02978  0.44331  1.0000
  C   C65       1.0  0.99636  0.01238  0.38724  1.0000
  C   C66       1.0  0.13484  0.21126  0.25729  1.0000
  N   N6        1.0  0.31015  0.19069  0.43439  1.0000
  H   H60       1.0  0.15204  0.02519  0.41350  1.0000
  C   C67       1.0  0.19337  0.18160  0.46098  1.0000
  H   H61       1.0  0.16690  0.19018  0.02253  1.0000
  H   H62       1.0  0.32000  0.20987  0.45626  1.0000
  C   C68       1.0  0.09418  0.04397  0.47083  1.0000
  C   C69       1.0  0.31756  0.17942  0.41801  1.0000
  C   C70       1.0  0.11287  0.21337  0.24783  1.0000
  H   H63       1.0  0.31973  0.21160  0.41992  1.0000
  C   C71       1.0  0.10322  0.03076  0.48136  1.0000
  C   C72       1.0  0.10711  0.97006  0.22332  1.0000
  H   H64       1.0  0.06376  0.96812  0.26842  1.0000
  H   H65       1.0  0.07875  0.04878  0.47908  1.0000
  C   C73       1.0  0.04360  0.21575  0.03350  1.0000
  C   C74       1.0  0.11289  0.97037  0.99049  1.0000
  C   C75       1.0  0.19141  0.18320  0.48898  1.0000
  H   H66       1.0  0.16394  0.21413  0.17431  1.0000
  C   C76       1.0  0.10920  0.21755  0.22103  1.0000
  Fe  Fe12      1.0  0.09812  0.00141  0.90746  1.0000
  S   S21       1.0  0.09030  0.02584  0.91119  1.0000
  S   S22       1.0  0.11028  0.98629  0.94263  1.0000
  Fe  Fe13      1.0  0.08856  0.00151  0.84505  1.0000
  S   S23       1.0  0.07950  0.02595  0.84517  1.0000
  S   S24       1.0  0.08082  0.98590  0.80923  1.0000
  Fe  Fe14      1.0  0.10945  0.02902  0.87243  1.0000
  S   S25       1.0  0.13550  0.04716  0.86506  1.0000
  Fe  Fe15      1.0  0.06117  0.02126  0.88373  1.0000
  S   S26       1.0  0.02713  0.03143  0.89342  1.0000
  S   S27       1.0  0.11986  0.00464  0.87026  1.0000
  S   S28       1.0  0.06769  0.99679  0.88225  1.0000
  H   H67       1.0  0.19786  0.18731  0.91842  1.0000
  Fe  Fe16      1.0  0.15713  0.14045  0.87521  1.0000
  S   S29       1.0  0.13251  0.15885  0.86300  1.0000
  S   S30       1.0  0.13984  0.11793  0.88022  1.0000
  Fe  Fe17      1.0  0.19624  0.16289  0.87986  1.0000
  S   S31       1.0  0.17346  0.18185  0.86784  1.0000
  S   S32       1.0  0.23156  0.16832  0.89544  1.0000
  Fe  Fe18      1.0  0.14835  0.17206  0.89647  1.0000
  S   S33       1.0  0.13180  0.18809  0.92686  1.0000
  Fe  Fe19      1.0  0.16010  0.16678  0.83580  1.0000
  S   S34       1.0  0.16114  0.17417  0.79131  1.0000
  S   S35       1.0  0.17149  0.15354  0.90980  1.0000
  S   S36       1.0  0.18426  0.14792  0.84657  1.0000
  C   C77       1.0  0.19922  0.17226  0.96298  1.0000
  S   S37       1.0  0.07882  0.18976  0.61299  1.0000
  H   H68       1.0  0.18201  0.14482  0.78379  1.0000
  S   S38       1.0  0.12986  0.20096  0.62558  1.0000
  Fe  Fe20      1.0  0.10907  0.19622  0.58831  1.0000
  S   S39       1.0  0.12590  0.18154  0.55573  1.0000
  Fe  Fe21      1.0  0.09859  0.19682  0.64967  1.0000
  S   S40       1.0  0.09460  0.18605  0.69147  1.0000
  H   H69       1.0  0.18635  0.12646  0.79712  1.0000
  H   H70       1.0  0.20843  0.16717  0.94635  1.0000
  C   C78       1.0  0.00110  0.98511  0.90456  1.0000
  C   C79       1.0  0.14224  0.17693  0.76376  1.0000
  C   C80       1.0  0.15107  0.18076  0.73839  1.0000
  C   C81       1.0  0.13684  0.18345  0.71598  1.0000
  C   C82       1.0  0.11355  0.18221  0.71862  1.0000
  C   C83       1.0  0.10477  0.17807  0.74386  1.0000
  C   C84       1.0  0.11897  0.17557  0.76637  1.0000
  H   H71       1.0  0.16906  0.18177  0.73608  1.0000
  H   H72       1.0  0.14391  0.18643  0.69666  1.0000
  H   H73       1.0  0.08677  0.17706  0.74613  1.0000
  H   H74       1.0  0.11191  0.17268  0.78574  1.0000
  C   C85       1.0  0.12360  0.18073  0.51979  1.0000
  Fe  Fe22      1.0  0.06741  0.21362  0.60928  1.0000
  C   C86       1.0  0.12999  0.17149  0.97444  1.0000
  C   C87       1.0  0.12702  0.18532  0.96205  1.0000
  H   H75       1.0  0.11005  0.01231  0.98471  1.0000
  H   H76       1.0  0.12953  0.21302  0.68231  1.0000
  H   H77       1.0  0.14679  0.16205  0.51698  1.0000
  H   H78       1.0  0.13505  0.16200  0.96242  1.0000
  H   H79       1.0  0.11802  0.20826  0.96882  1.0000
  H   H80       1.0  0.10024  0.19915  0.51529  1.0000
  C   C88       1.0  0.28590  0.19960  0.86230  1.0000
  C   C89       1.0  0.28659  0.19452  0.88903  1.0000
  C   C90       1.0  0.26974  0.18514  0.89886  1.0000
  C   C91       1.0  0.25167  0.18091  0.88239  1.0000
  C   C92       1.0  0.25062  0.18635  0.85592  1.0000
  C   C93       1.0  0.26772  0.19547  0.84591  1.0000
  H   H81       1.0  0.14439  0.14525  0.75157  1.0000
  H   H82       1.0  0.27091  0.18095  0.91929  1.0000
  H   H83       1.0  0.23699  0.18318  0.84287  1.0000
  H   H84       1.0  0.26695  0.19918  0.82518  1.0000
  H   H85       1.0  0.18081  0.12898  0.76172  1.0000
  C   C94       1.0  0.13606  0.06689  0.86920  1.0000
  C   C95       1.0  0.15542  0.07446  0.86123  1.0000
  C   C96       1.0  0.15690  0.08996  0.86435  1.0000
  C   C97       1.0  0.13903  0.09823  0.87571  1.0000
  C   C98       1.0  0.11966  0.09067  0.88366  1.0000
  C   C99       1.0  0.11815  0.07517  0.88044  1.0000
  H   H86       1.0  0.16946  0.06826  0.85258  1.0000
  H   H87       1.0  0.17198  0.09547  0.85821  1.0000
  H   H88       1.0  0.10568  0.09686  0.89246  1.0000
  H   H89       1.0  0.10312  0.06963  0.88672  1.0000
  H   H90       1.0  0.14387  0.04779  0.92386  1.0000
  H   H91       1.0  0.15490  0.99633  0.95596  1.0000
  H   H92       1.0  0.99903  0.04322  0.82646  1.0000
  C   C100      1.0  0.09984  0.98047  0.97490  1.0000
  H   H93       1.0  0.06191  0.97130  0.50571  1.0000
  C   C101      1.0  0.00254  0.21725  0.60819  1.0000
  C   C102      1.0  0.08978  0.98080  0.77579  1.0000
  C   C103      1.0  0.07978  0.97260  0.50284  1.0000
  H   H94       1.0  0.30048  0.19743  0.90188  1.0000
  H   H95       1.0  0.04161  0.99353  0.77044  1.0000
  H   H96       1.0  0.10325  0.14454  0.75846  1.0000
  C   C104      1.0  0.10756  0.98755  0.76245  1.0000
  H   H97       1.0  0.14355  0.97729  0.49178  1.0000
  C   C105      1.0  0.00781  0.01207  0.85849  1.0000
  C   C106      1.0  0.00448  0.02411  0.87574  1.0000
  H   H98       1.0  0.08197  0.21241  0.76255  1.0000
  H   H99       1.0  0.02449  0.00724  0.85573  1.0000
  N   N7        1.0  0.15225  0.13257  0.78686  1.0000
  C   C107      1.0  0.14404  0.12547  0.80907  1.0000
  C   C108      1.0  0.13786  0.13935  0.76886  1.0000
  C   C109      1.0  0.11456  0.13903  0.77272  1.0000
  C   C110      1.0  0.10605  0.13184  0.79530  1.0000
  C   C111      1.0  0.17656  0.13319  0.78217  1.0000
  H   H100      1.0  0.15535  0.12020  0.82363  1.0000
  H   H101      1.0  0.99025  0.96971  0.62372  1.0000
  C   C112      1.0  0.12084  0.12498  0.81358  1.0000
  H   H102      1.0  0.08804  0.13164  0.79877  1.0000
  H   H103      1.0  0.16734  0.03006  0.89725  1.0000
  H   H104      1.0  0.17411  0.18422  0.53900  1.0000
  C   C113      1.0  0.13883  0.21402  0.76811  1.0000
  H   H105      1.0  0.99353  0.04900  0.79196  1.0000
  H   H106      1.0  0.11444  0.11941  0.83133  1.0000
  C   C114      1.0  0.04196  0.01461  0.79034  1.0000
  C   C115      1.0  0.12568  0.97605  0.49476  1.0000
  C   C116      1.0  0.99175  0.00637  0.93198  1.0000
  H   H107      1.0  0.16037  0.20179  0.53539  1.0000
  C   C117      1.0  0.16301  0.01208  0.92529  1.0000
  H   H108      1.0  0.99701  0.01570  0.94393  1.0000
  C   C118      1.0  0.13651  0.16996  0.50573  1.0000
  C   C119      1.0  0.11029  0.19081  0.50487  1.0000
  H   H109      1.0  0.99216  0.99694  0.83132  1.0000
  N   N8        1.0  0.19019  0.18627  0.96051  1.0000
  H   H110      1.0  0.19074  0.20070  0.53691  1.0000
  H   H111      1.0  0.17271  0.00413  0.91339  1.0000
  H   H112      1.0  0.01133  0.20189  0.63993  1.0000
  H   H113      1.0  0.20676  0.20272  0.93806  1.0000
  H   H114      1.0  0.01360  0.97773  0.89543  1.0000
  H   H115      1.0  0.12596  0.03952  0.96627  1.0000
  H   H116      1.0  0.03705  0.03544  0.81043  1.0000
  H   H117      1.0  0.06006  0.01420  0.79333  1.0000
  C   C120      1.0  0.15291  0.00775  0.94943  1.0000
  C   C121      1.0  0.09931  0.21427  0.75698  1.0000
  H   H118      1.0  0.02564  0.99828  0.92480  1.0000
  H   H119      1.0  0.11662  0.99615  0.77254  1.0000
  N   N9        1.0  0.00601  0.02696  0.79641  1.0000
  C   C122      1.0  0.13670  0.03182  0.95512  1.0000
  N   N10       1.0  0.17690  0.19360  0.49975  1.0000
  H   H120      1.0  0.15211  0.21056  0.49169  1.0000
  C   C123      1.0  0.10219  0.97206  0.72217  1.0000
  C   C124      1.0  0.19319  0.19467  0.93550  1.0000
  H   H121      1.0  0.12753  0.98852  0.72603  1.0000
  C   C125      1.0  0.11372  0.98318  0.73596  1.0000
  C   C126      1.0  0.99766  0.20735  0.62907  1.0000
  H   H122      1.0  0.20130  0.17592  0.50206  1.0000
  C   C127      1.0  0.15994  0.02660  0.91620  1.0000
  H   H123      1.0  0.11267  0.20886  0.79640  1.0000
  C   C128      1.0  0.02886  0.02658  0.79984  1.0000
  C   C129      1.0  0.00787  0.99660  0.92113  1.0000
  C   C130      1.0  0.99570  0.01576  0.78308  1.0000
  C   C131      1.0  0.14675  0.03656  0.93120  1.0000
  H   H124      1.0  0.01314  0.18964  0.56724  1.0000
  H   H125      1.0  0.17723  0.20055  0.92968  1.0000
  C   C132      1.0  0.17558  0.19522  0.52915  1.0000
  C   C133      1.0  0.03157  0.00299  0.77733  1.0000
  C   C134      1.0  0.00829  0.00355  0.77357  1.0000
  H   H126      1.0  0.06931  0.99378  0.97436  1.0000
  C   C135      1.0  0.12036  0.19750  0.97814  1.0000
  S   S41       1.0  0.30772  0.21036  0.84772  1.0000
  N   N11       1.0  0.13992  0.01758  0.96399  1.0000
  C   C136      1.0  0.11793  0.96927  0.51874  1.0000
  C   C137      1.0  0.07831  0.96962  0.76203  1.0000
  C   C138      1.0  0.07954  0.98595  0.98583  1.0000
  H   H127      1.0  0.99614  0.20578  0.53177  1.0000
  C   C139      1.0  0.11652  0.21227  0.77593  1.0000
  C   C140      1.0  0.99267  0.03966  0.80644  1.0000
  C   C141      1.0  0.99499  0.19017  0.56453  1.0000
  H   H128      1.0  0.00001  0.99450  0.76372  1.0000
  H   H129      1.0  0.15236  0.21184  0.78243  1.0000
  H   H130      1.0  0.17167  0.20383  0.97963  1.0000
  H   H131      1.0  0.20310  0.15293  0.98838  1.0000
  C   C142      1.0  0.17902  0.19278  0.98169  1.0000
  C   C143      1.0  0.19642  0.16418  0.98681  1.0000
  C   C144      1.0  0.98949  0.00626  0.84470  1.0000
  H   H132      1.0  0.09494  0.02521  0.49790  1.0000
  H   H133      1.0  0.98837  0.17576  0.59808  1.0000
  H   H134      1.0  0.28885  0.21674  0.79299  1.0000
  C   C145      1.0  0.14361  0.21783  0.74136  1.0000
  C   C146      1.0  0.12844  0.01281  0.98858  1.0000
  Fe  Fe23      1.0  0.29908  0.30465  0.11906  1.0000
  C   C147      1.0  0.31816  0.27286  0.01332  1.0000
  Fe  Fe24      1.0  0.26039  0.28247  0.10974  1.0000
  S   S42       1.0  0.28332  0.26301  0.11823  1.0000
  S   S43       1.0  0.22546  0.27697  0.09268  1.0000
  Fe  Fe25      1.0  0.29622  0.27610  0.15332  1.0000
  C   C148      1.0  0.27138  0.25306  0.00672  1.0000
  H   H135      1.0  0.29838  0.43277  0.16419  1.0000
  H   H136      1.0  0.30402  0.24216  0.23625  1.0000
  S   S44       1.0  0.27192  0.29540  0.14622  1.0000
  S   S45       1.0  0.28546  0.29341  0.08183  1.0000
  H   H137      1.0  0.22640  0.26604  0.03662  1.0000
  S   S46       1.0  0.14429  0.23777  0.13709  1.0000
  C   C149      1.0  0.28379  0.28269  0.25905  1.0000
  C   C150      1.0  0.28791  0.24180  0.00851  1.0000
  C   C151      1.0  0.26350  0.25076  0.05352  1.0000
  H   H138      1.0  0.12474  0.22261  0.18311  1.0000
  C   C152      1.0  0.29959  0.35573  0.11224  1.0000
  C   C153      1.0  0.29244  0.23516  0.03345  1.0000
  H   H139      1.0  0.09219  0.21887  0.21324  1.0000
  C   C154      1.0  0.20399  0.26512  0.10505  1.0000
  C   C155      1.0  0.18729  0.26022  0.08717  1.0000
  C   C156      1.0  0.16941  0.25143  0.09628  1.0000
  C   C157      1.0  0.16757  0.24770  0.12365  1.0000
  C   C158      1.0  0.18430  0.25261  0.14147  1.0000
  C   C159      1.0  0.20250  0.26103  0.13225  1.0000
  H   H140      1.0  0.18797  0.26341  0.06615  1.0000
  H   H141      1.0  0.15665  0.24797  0.08227  1.0000
  H   H142      1.0  0.18308  0.25007  0.16271  1.0000
  H   H143      1.0  0.21497  0.26478  0.14639  1.0000
  C   C160      1.0  0.31549  0.25104  0.23963  1.0000
  S   S47       1.0  0.09568  0.21908  0.08421  1.0000
  H   H144      1.0  0.29998  0.27754  0.46933  1.0000
  C   C161      1.0  0.28016  0.23964  0.05612  1.0000
  S   S48       1.0  0.29775  0.26275  0.19276  1.0000
  H   H145      1.0  0.28332  0.35073  0.11077  1.0000
  C   C162      1.0  0.31014  0.42537  0.17463  1.0000
  S   S49       1.0  0.31776  0.32692  0.11937  1.0000
  C   C163      1.0  0.16799  0.21867  0.19455  1.0000
  C   C164      1.0  0.27253  0.26950  0.26249  1.0000
  H   H146      1.0  0.29118  0.26063  0.32536  1.0000
  H   H147      1.0  0.29784  0.23870  0.99091  1.0000
  H   H148      1.0  0.28397  0.23485  0.07576  1.0000
  H   H149      1.0  0.28260  0.28857  0.23994  1.0000
  H   H150      1.0  0.26681  0.25114  0.28919  1.0000
  C   C165      1.0  0.12764  0.21940  0.20394  1.0000
  C   C166      1.0  0.24250  0.26945  0.02736  1.0000
  N   N12       1.0  0.25937  0.25736  0.02907  1.0000
  H   H151      1.0  0.26262  0.26517  0.24603  1.0000
  H   H152      1.0  0.23896  0.27286  0.00621  1.0000
  Fe  Fe26      1.0  0.30865  0.27435  0.09246  1.0000
  H   H153      1.0  0.30786  0.28079  0.02441  1.0000
  H   H154      1.0  0.28623  0.37803  0.10702  1.0000
  H   H155      1.0  0.29615  0.40576  0.15809  1.0000
  H   H156      1.0  0.30866  0.38162  0.16724  1.0000
  C   C167      1.0  0.28900  0.26697  0.30688  1.0000
  C   C168      1.0  0.27506  0.26159  0.28658  1.0000
  C   C169      1.0  0.31289  0.27125  0.48008  1.0000
  C   C170      1.0  0.30133  0.37128  0.11007  1.0000
  H   H157      1.0  0.25410  0.25426  0.07126  1.0000
  N   N13       1.0  0.30026  0.27980  0.30315  1.0000
  H   H158      1.0  0.24845  0.27920  0.03868  1.0000
  H   H159      1.0  0.30687  0.29775  0.27656  1.0000
  C   C171      1.0  0.31691  0.26245  0.22035  1.0000
  C   C172      1.0  0.30898  0.41006  0.17129  1.0000
  C   C173      1.0  0.29765  0.28772  0.27973  1.0000
  S   S50       1.0  0.02947  0.22243  0.10230  1.0000
  Fe  Fe27      1.0  0.11671  0.22216  0.12201  1.0000
  S   S51       1.0  0.08612  0.21935  0.14875  1.0000
  H   H160      1.0  0.30594  0.22691  0.03539  1.0000
  H   H161      1.0  0.30486  0.29340  0.33746  1.0000
  H   H162      1.0  0.03159  0.22378  0.04314  1.0000
  C   C174      1.0  0.31882  0.34672  0.11649  1.0000
  H   H163      1.0  0.17136  0.23060  0.19205  1.0000
  C   C175      1.0  0.31455  0.28543  0.32474  1.0000
  H   H164      1.0  0.31762  0.32583  0.05952  1.0000
  H   H165      1.0  0.06072  0.21973  0.03800  1.0000
  Fe  Fe28      1.0  0.30054  0.30482  0.62225  1.0000
  H   H166      1.0  0.30083  0.27806  0.51955  1.0000
  Fe  Fe29      1.0  0.26251  0.28231  0.61227  1.0000
  S   S52       1.0  0.28654  0.26288  0.61568  1.0000
  S   S53       1.0  0.22616  0.27753  0.59874  1.0000
  Fe  Fe30      1.0  0.30090  0.27454  0.65176  1.0000
  H   H167      1.0  0.19526  0.30285  0.59821  1.0000
  H   H168      1.0  0.16103  0.21870  0.73526  1.0000
  H   H169      1.0  0.29802  0.43921  0.63518  1.0000
  S   S54       1.0  0.27553  0.29356  0.64989  1.0000
  S   S55       1.0  0.28544  0.29518  0.58433  1.0000
  C   C176      1.0  0.28561  0.22795  0.78578  1.0000
  S   S56       1.0  0.13876  0.24354  0.63459  1.0000
  C   C177      1.0  0.31330  0.27155  0.50858  1.0000
  S   S57       1.0  0.30897  0.25927  0.68786  1.0000
  H   H170      1.0  0.29147  0.23763  0.82450  1.0000
  H   H171      1.0  0.29179  0.34975  0.59708  1.0000
  H   H172      1.0  0.29775  0.37645  0.58845  1.0000
  H   H173      1.0  0.30456  0.41357  0.64211  1.0000
  Fe  Fe31      1.0  0.11656  0.22431  0.62116  1.0000
  C   C178      1.0  0.20638  0.26476  0.61188  1.0000
  C   C179      1.0  0.19663  0.25442  0.59445  1.0000
  C   C180      1.0  0.17691  0.24691  0.60181  1.0000
  C   C181      1.0  0.16619  0.25000  0.62643  1.0000
  C   C182      1.0  0.17634  0.25996  0.64417  1.0000
  C   C183      1.0  0.19633  0.26715  0.63712  1.0000
  H   H174      1.0  0.20386  0.25266  0.57465  1.0000
  H   H175      1.0  0.16933  0.23939  0.58778  1.0000
  H   H176      1.0  0.16826  0.26255  0.66321  1.0000
  H   H177      1.0  0.20321  0.27525  0.65060  1.0000
  H   H178      1.0  0.13335  0.26013  0.55378  1.0000
  C   C184      1.0  0.27671  0.24517  0.74981  1.0000
  H   H179      1.0  0.27981  0.26334  0.83406  1.0000
  C   C185      1.0  0.31267  0.41592  0.66119  1.0000
  N   N14       1.0  0.31221  0.42996  0.67142  1.0000
  C   C186      1.0  0.28586  0.26635  0.81359  1.0000
  N   N15       1.0  0.28342  0.25404  0.79472  1.0000
  H   H180      1.0  0.30384  0.26921  0.81513  1.0000
  C   C187      1.0  0.30627  0.35500  0.60561  1.0000
  H   H181      1.0  0.27608  0.27633  0.80688  1.0000
  C   C188      1.0  0.28714  0.23985  0.80357  1.0000
  H   H182      1.0  0.27351  0.24745  0.72857  1.0000
  H   H183      1.0  0.16864  0.31178  0.60653  1.0000
  S   S58       1.0  0.08578  0.22040  0.64692  1.0000
  H   H184      1.0  0.12017  0.26880  0.59868  1.0000
  H   H185      1.0  0.98765  0.23194  0.57844  1.0000
  N   N16       1.0  0.12662  0.21985  0.72296  1.0000
  C   C189      1.0  0.27864  0.25682  0.76811  1.0000
  H   H186      1.0  0.31037  0.45220  0.65743  1.0000
  S   S59       1.0  0.31785  0.32733  0.62875  1.0000
  C   C190      1.0  0.28030  0.23065  0.75874  1.0000
  C   C191      1.0  0.13179  0.22309  0.69468  1.0000
  N   N17       1.0  0.16610  0.28982  0.59218  1.0000
  C   C192      1.0  0.14698  0.28426  0.60317  1.0000
  C   C193      1.0  0.17352  0.28511  0.56743  1.0000
  C   C194      1.0  0.13482  0.27362  0.58940  1.0000
  C   C195      1.0  0.16177  0.27447  0.55310  1.0000
  C   C196      1.0  0.14231  0.26869  0.56424  1.0000
  C   C197      1.0  0.17829  0.30111  0.60696  1.0000
  H   H187      1.0  0.14136  0.28772  0.62304  1.0000
  H   H188      1.0  0.18905  0.28919  0.55905  1.0000
  H   H189      1.0  0.18109  0.29757  0.62821  1.0000
  H   H190      1.0  0.16808  0.27048  0.53385  1.0000
  H   H191      1.0  0.27944  0.22155  0.74461  1.0000
  H   H192      1.0  0.27687  0.26809  0.76070  1.0000
  S   S60       1.0  0.03082  0.22084  0.59738  1.0000
  C   C198      1.0  0.30039  0.44197  0.65684  1.0000
  H   H193      1.0  0.14930  0.22682  0.69189  1.0000
  C   C199      1.0  0.31947  0.27371  0.98493  1.0000
  C   C200      1.0  0.30971  0.37023  0.60076  1.0000
  Fe  Fe32      1.0  0.30983  0.27599  0.58988  1.0000
  H   H194      1.0  0.28368  0.44425  0.66615  1.0000
  H   H195      1.0  0.12043  0.23206  0.68681  1.0000
  H   H196      1.0  0.32072  0.28657  0.71602  1.0000
  H   H197      1.0  0.31012  0.28235  0.97431  1.0000
  H   H198      1.0  0.26863  0.25853  0.98745  1.0000
  S   S61       1.0  0.09713  0.21990  0.58280  1.0000
  H   H199      1.0  0.31410  0.32235  0.52196  1.0000
  H   H200      1.0  0.09137  0.21884  0.71541  1.0000
  C   C201      1.0  0.10471  0.21799  0.73037  1.0000
  Fe  Fe33      1.0  0.26717  0.66321  0.37279  1.0000
  S   S62       1.0  0.29284  0.67963  0.36050  1.0000
  S   S63       1.0  0.23127  0.66971  0.38696  1.0000
  Fe  Fe34      1.0  0.30169  0.63647  0.36614  1.0000
  H   H201      1.0  0.29863  0.58085  0.39059  1.0000
  C   C202      1.0  0.31300  0.68102  0.23281  1.0000
  H   H202      1.0  0.22505  0.64581  0.31914  1.0000
  Fe  Fe35      1.0  0.30251  0.66351  0.32750  1.0000
  H   H203      1.0  0.29539  0.68410  0.23051  1.0000
  S   S64       1.0  0.29093  0.65093  0.40134  1.0000
  S   S65       1.0  0.27556  0.64745  0.33886  1.0000
  H   H204      1.0  0.13922  0.67046  0.35847  1.0000
  H   H205      1.0  0.15918  0.69727  0.39713  1.0000
  C   C203      1.0  0.19077  0.65385  0.35029  1.0000
  H   H206      1.0  0.15076  0.68237  0.31574  1.0000
  S   S66       1.0  0.30362  0.61110  0.37385  1.0000
  C   C204      1.0  0.18273  0.67039  0.31403  1.0000
  N   N18       1.0  0.19693  0.66038  0.32657  1.0000
  S   S67       1.0  0.30083  0.67248  0.28399  1.0000
  C   C205      1.0  0.16978  0.65716  0.36188  1.0000
  H   H207      1.0  0.99353  0.71310  0.38424  1.0000
  C   C206      1.0  0.21145  0.68411  0.37763  1.0000
  C   C207      1.0  0.19198  0.68637  0.39349  1.0000
  C   C208      1.0  0.17432  0.69615  0.38513  1.0000
  C   C209      1.0  0.17568  0.70363  0.36044  1.0000
  C   C210      1.0  0.19547  0.70175  0.34501  1.0000
  C   C211      1.0  0.21336  0.69225  0.35369  1.0000
  H   H208      1.0  0.19025  0.68019  0.41206  1.0000
  H   H209      1.0  0.31827  0.65436  0.09328  1.0000
  H   H210      1.0  0.31404  0.65416  0.12921  1.0000
  H   H211      1.0  0.22825  0.69081  0.34134  1.0000
  H   H212      1.0  0.31302  0.66475  0.02005  1.0000
  H   H213      1.0  0.20254  0.64656  0.36102  1.0000
  H   H214      1.0  0.16535  0.65236  0.38118  1.0000
  H   H215      1.0  0.18798  0.67610  0.29593  1.0000
  H   H216      1.0  0.22051  0.65978  0.29383  1.0000
  C   C212      1.0  0.15516  0.66730  0.34917  1.0000
  C   C213      1.0  0.31476  0.58134  0.38057  1.0000
  H   H217      1.0  0.23172  0.66468  0.32635  1.0000
  C   C214      1.0  0.21961  0.65753  0.31585  1.0000
  C   C215      1.0  0.31194  0.54192  0.32999  1.0000
  C   C216      1.0  0.16161  0.67395  0.32506  1.0000
  H   H218      1.0  0.30330  0.55293  0.33174  1.0000
  H   H219      1.0  0.30755  0.71100  0.02869  1.0000
  H   H220      1.0  0.29894  0.53363  0.32591  1.0000
  H   H221      1.0  0.19675  0.70736  0.32580  1.0000
  H   H222      1.0  0.32014  0.53925  0.34964  1.0000
  H   H223      1.0  0.28488  0.69757  0.99528  1.0000
  H   H224      1.0  0.31018  0.66717  0.45501  1.0000
  H   H225      1.0  0.07119  0.71149  0.45690  1.0000
  H   H226      1.0  0.32058  0.67118  0.11197  1.0000
  Fe  Fe36      1.0  0.31702  0.66652  0.38695  1.0000
  S   S68       1.0  0.15182  0.71301  0.34558  1.0000
  H   H227      1.0  0.31566  0.70837  0.28184  1.0000
  C   C217      1.0  0.32051  0.67458  0.25725  1.0000
  C   C218      1.0  0.31074  0.71229  0.00723  1.0000
  Fe  Fe37      1.0  0.27558  0.66318  0.86584  1.0000
  S   S69       1.0  0.30270  0.67995  0.86392  1.0000
  S   S70       1.0  0.23716  0.66776  0.86428  1.0000
  H   H228      1.0  0.26961  0.61256  0.79452  1.0000
  H   H229      1.0  0.28117  0.60149  0.83861  1.0000
  H   H230      1.0  0.12600  0.70926  0.80509  1.0000
  C   C219      1.0  0.26166  0.61636  0.81304  1.0000
  Fe  Fe38      1.0  0.32033  0.66432  0.83494  1.0000
  H   H231      1.0  0.24068  0.63301  0.79345  1.0000
  S   S71       1.0  0.29172  0.65098  0.90107  1.0000
  S   S72       1.0  0.29223  0.64796  0.83497  1.0000
  S   S73       1.0  0.14117  0.70272  0.86252  1.0000
  Fe  Fe39      1.0  0.31038  0.63680  0.87015  1.0000
  H   H232      1.0  0.22359  0.64193  0.83603  1.0000
  H   H233      1.0  0.21648  0.63852  0.88264  1.0000
  C   C220      1.0  0.24542  0.62780  0.81243  1.0000
  C   C221      1.0  0.23246  0.63211  0.88609  1.0000
  N   N19       1.0  0.24205  0.62649  0.86074  1.0000
  H   H234      1.0  0.26375  0.61075  0.88069  1.0000
  C   C222      1.0  0.23579  0.63279  0.83663  1.0000
  H   H235      1.0  0.22886  0.62289  0.90015  1.0000
  C   C223      1.0  0.21144  0.67869  0.86413  1.0000
  C   C224      1.0  0.21021  0.69420  0.86698  1.0000
  C   C225      1.0  0.18897  0.70196  0.86677  1.0000
  C   C226      1.0  0.16885  0.69425  0.86361  1.0000
  C   C227      1.0  0.17039  0.67886  0.86065  1.0000
  C   C228      1.0  0.19129  0.67121  0.86097  1.0000
  H   H236      1.0  0.22556  0.70020  0.86941  1.0000
  C   C229      1.0  0.25814  0.61540  0.86153  1.0000
  H   H237      1.0  0.15516  0.67271  0.85820  1.0000
  H   H238      1.0  0.19173  0.65933  0.85872  1.0000
  N   N20       1.0  0.30272  0.70574  0.96128  1.0000
  C   C230      1.0  0.26809  0.61011  0.83772  1.0000
  H   H239      1.0  0.28857  0.68576  0.94779  1.0000
  H   H240      1.0  0.31043  0.66834  0.50514  1.0000
  H   H241      1.0  0.24448  0.63963  0.89580  1.0000
  H   H242      1.0  0.31400  0.58341  0.90798  1.0000
  H   H243      1.0  0.27174  0.70242  0.94102  1.0000
  C   C231      1.0  0.28911  0.69761  0.94190  1.0000
  H   H244      1.0  0.29644  0.69784  0.92124  1.0000
  C   C232      1.0  0.14076  0.70609  0.79240  1.0000
  H   H245      1.0  0.31238  0.66057  0.76019  1.0000
  H   H246      1.0  0.13464  0.70054  0.77396  1.0000
  H   H247      1.0  0.15129  0.69791  0.80395  1.0000
  H   H248      1.0  0.18821  0.71384  0.86920  1.0000
  H   H249      1.0  0.31062  0.66349  0.71028  1.0000
  C   C233      1.0  0.29806  0.70468  0.98825  1.0000
  S   S74       1.0  0.31267  0.61186  0.88156  1.0000
  H   H250      1.0  0.31318  0.66345  0.96990  1.0000
  Fe  Fe40      1.0  0.32002  0.66682  0.89713  1.0000
  C   C234      1.0  0.31985  0.71433  0.95247  1.0000
  C   C235      1.0  0.32070  0.67088  0.72206  1.0000
  Fe  Fe41      1.0  0.19792  0.78524  0.11028  1.0000
  S   S75       1.0  0.17310  0.76712  0.11401  1.0000
  S   S76       1.0  0.23202  0.77760  0.09184  1.0000
  Fe  Fe42      1.0  0.16135  0.80936  0.12507  1.0000
  S   S77       1.0  0.13500  0.79194  0.12922  1.0000
  S   S78       1.0  0.14569  0.83226  0.13692  1.0000
  Fe  Fe43      1.0  0.16106  0.77853  0.15188  1.0000
  S   S79       1.0  0.15509  0.76299  0.18755  1.0000
  Fe  Fe44      1.0  0.14934  0.78212  0.09101  1.0000
  S   S80       1.0  0.12554  0.77270  0.05949  1.0000
  S   S81       1.0  0.18726  0.79606  0.14972  1.0000
  S   S82       1.0  0.17420  0.80007  0.08528  1.0000
  H   H251      1.0  0.12268  0.85006  0.05963  1.0000
  S   S83       1.0  0.13218  0.75242  0.36348  1.0000
  Fe  Fe45      1.0  0.07109  0.73671  0.36639  1.0000
  S   S84       1.0  0.07861  0.76082  0.36892  1.0000
  S   S85       1.0  0.03483  0.72812  0.37325  1.0000
  Fe  Fe46      1.0  0.10334  0.75680  0.33502  1.0000
  S   S86       1.0  0.10698  0.77368  0.30103  1.0000
  Fe  Fe47      1.0  0.10691  0.75411  0.39716  1.0000
  S   S87       1.0  0.10876  0.76892  0.43450  1.0000
  C   C236      1.0  0.17789  0.74945  0.03629  1.0000
  C   C237      1.0  0.14586  0.77904  0.01035  1.0000
  Fe  Fe48      1.0  0.10513  0.92134  0.12141  1.0000
  S   S88       1.0  0.11860  0.94455  0.11728  1.0000
  S   S89       1.0  0.12776  0.90126  0.10864  1.0000
  Fe  Fe49      1.0  0.05934  0.93369  0.13902  1.0000
  S   S90       1.0  0.02469  0.93013  0.15615  1.0000
  Fe  Fe50      1.0  0.08582  0.95061  0.09614  1.0000
  C   C238      1.0  0.04623  0.75817  0.43106  1.0000
  Fe  Fe51      1.0  0.10095  0.94965  0.15708  1.0000
  H   H252      1.0  0.03651  0.96041  0.09416  1.0000
  S   S91       1.0  0.07320  0.92731  0.09841  1.0000
  S   S92       1.0  0.09012  0.92614  0.16244  1.0000
  Fe  Fe52      1.0  0.12284  0.72851  0.36043  1.0000
  H   H253      1.0  0.07147  0.76533  0.47305  1.0000
  C   C239      1.0  0.00457  0.92427  0.10735  1.0000
  C   C240      1.0  0.14007  0.75585  0.46996  1.0000
  H   H254      1.0  0.07430  0.82539  0.12117  1.0000
  H   H255      1.0  0.04861  0.72860  0.42815  1.0000
  H   H256      1.0  0.18146  0.79035  0.24723  1.0000
  C   C241      1.0  0.12432  0.82738  0.04615  1.0000
  C   C242      1.0  0.18357  0.75430  0.26667  1.0000
  C   C243      1.0  0.16659  0.76920  0.30083  1.0000
  S   S93       1.0  0.09443  0.73298  0.33058  1.0000
  C   C244      1.0  0.00561  0.73353  0.36797  1.0000
  H   H257      1.0  0.02130  0.92191  0.09967  1.0000
  C   C245      1.0  0.19523  0.75850  0.04473  1.0000
  C   C246      1.0  0.16967  0.78192  0.28531  1.0000
  C   C247      1.0  0.11856  0.81290  0.05213  1.0000
  C   C248      1.0  0.14136  0.85150  0.12888  1.0000
  C   C249      1.0  0.15237  0.85841  0.10750  1.0000
  C   C250      1.0  0.14788  0.87354  0.10163  1.0000
  C   C251      1.0  0.13211  0.88202  0.11671  1.0000
  C   C252      1.0  0.12086  0.87506  0.13787  1.0000
  C   C253      1.0  0.12560  0.85998  0.14400  1.0000
  H   H258      1.0  0.16452  0.85214  0.09560  1.0000
  H   H259      1.0  0.15676  0.87874  0.08524  1.0000
  H   H260      1.0  0.10860  0.88130  0.14964  1.0000
  H   H261      1.0  0.11683  0.85481  0.16050  1.0000
  C   C254      1.0  0.12844  0.77203  0.02382  1.0000
  C   C255      1.0  0.11291  0.76403  0.00863  1.0000
  H   H262      1.0  0.17807  0.73240  0.29986  1.0000
  C   C256      1.0  0.12481  0.76757  0.46484  1.0000
  C   C257      1.0  0.18691  0.76680  0.25061  1.0000
  H   H263      1.0  0.22177  0.77263  0.03213  1.0000
  H   H264      1.0  0.09925  0.75866  0.01883  1.0000
  H   H265      1.0  0.14271  0.74733  0.45494  1.0000
  N   N21       1.0  0.17406  0.74722  0.00938  1.0000
  H   H266      1.0  0.15788  0.78529  0.02170  1.0000
  C   C258      1.0  0.13892  0.76604  0.21727  1.0000
  C   C259      1.0  0.13508  0.75399  0.23453  1.0000
  C   C260      1.0  0.12454  0.75605  0.25978  1.0000
  C   C261      1.0  0.11780  0.77024  0.26813  1.0000
  C   C262      1.0  0.12092  0.78223  0.25048  1.0000
  C   C263      1.0  0.13141  0.78016  0.22517  1.0000
  H   H267      1.0  0.14067  0.74301  0.22852  1.0000
  H   H268      1.0  0.12188  0.74669  0.27291  1.0000
  H   H269      1.0  0.11566  0.79324  0.25670  1.0000
  H   H270      1.0  0.13425  0.78954  0.21213  1.0000
  C   C264      1.0  0.29446  0.75055  0.12336  1.0000
  C   C265      1.0  0.27880  0.75694  0.14159  1.0000
  C   C266      1.0  0.25926  0.76474  0.13241  1.0000
  C   C267      1.0  0.25527  0.76660  0.10473  1.0000
  C   C268      1.0  0.27085  0.76014  0.08648  1.0000
  C   C269      1.0  0.29013  0.75203  0.09566  1.0000
  H   H271      1.0  0.28193  0.75602  0.16303  1.0000
  H   H272      1.0  0.24766  0.76970  0.14679  1.0000
  H   H273      1.0  0.26817  0.76158  0.06504  1.0000
  N   N22       1.0  0.17361  0.75563  0.29149  1.0000
  S   S94       1.0  0.06951  0.95727  0.13573  1.0000
  N   N23       1.0  0.13921  0.92427  0.20592  1.0000
  C   C270      1.0  0.15100  0.93158  0.18652  1.0000
  C   C271      1.0  0.13631  0.90936  0.20396  1.0000
  C   C272      1.0  0.16060  0.92390  0.16474  1.0000
  C   C273      1.0  0.14597  0.90131  0.18264  1.0000
  C   C274      1.0  0.15823  0.90865  0.16299  1.0000
  C   C275      1.0  0.12840  0.93254  0.22802  1.0000
  H   H274      1.0  0.15285  0.94346  0.18761  1.0000
  H   H275      1.0  0.12633  0.90364  0.21879  1.0000
  H   H276      1.0  0.16947  0.92977  0.14905  1.0000
  H   H277      1.0  0.01117  0.94582  0.03180  1.0000
  H   H278      1.0  0.16533  0.90258  0.14599  1.0000
  H   H279      1.0  0.11609  0.95794  0.02793  1.0000
  H   H280      1.0  0.12342  0.80393  0.03868  1.0000
  H   H281      1.0  0.11077  0.93559  0.22239  1.0000
  C   C276      1.0  0.99871  0.74719  0.35677  1.0000
  C   C277      1.0  0.11801  0.83876  0.06377  1.0000
  N   N24       1.0  0.00762  0.95663  0.07007  1.0000
  H   H282      1.0  0.01129  0.75494  0.35068  1.0000
  H   H283      1.0  0.07536  0.95921  0.22290  1.0000
  H   H284      1.0  0.19381  0.76565  0.23040  1.0000
  H   H285      1.0  0.04106  0.75271  0.41201  1.0000
  C   C278      1.0  0.20849  0.76543  0.02557  1.0000
  H   H286      1.0  0.10273  0.79862  0.08055  1.0000
  H   H287      1.0  0.15079  0.74032  0.30760  1.0000
  C   C279      1.0  0.08938  0.81800  0.11868  1.0000
  C   C280      1.0  0.20446  0.76312  0.99817  1.0000
  C   C281      1.0  0.07091  0.75348  0.46986  1.0000
  H   H288      1.0  0.18825  0.74352  0.25867  1.0000
  H   H289      1.0  0.13380  0.82975  0.02801  1.0000
  C   C282      1.0  0.00162  0.92843  0.13430  1.0000
  C   C283      1.0  0.05837  0.73303  0.44462  1.0000
  C   C284      1.0  0.01830  0.96066  0.09324  1.0000
  C   C285      1.0  0.08413  0.72888  0.48173  1.0000
  H   H290      1.0  0.15768  0.77019  0.31989  1.0000
  C   C286      1.0  0.17987  0.78068  0.26002  1.0000
  H   H291      1.0  0.30203  0.74738  0.08131  1.0000
  H   H292      1.0  0.98810  0.91963  0.06964  1.0000
  C   C287      1.0  0.16912  0.74244  0.30765  1.0000
  N   N25       1.0  0.10079  0.82118  0.09316  1.0000
  H   H293      1.0  0.08390  0.80637  0.11977  1.0000
  H   H294      1.0  0.05695  0.76756  0.42517  1.0000
  C   C288      1.0  0.10609  0.83544  0.08725  1.0000
  H   H295      1.0  0.12839  0.92597  0.24698  1.0000
  C   C289      1.0  0.02115  0.95207  0.04664  1.0000
  C   C290      1.0  0.10678  0.80997  0.07590  1.0000
  H   H296      1.0  0.03094  0.76251  0.44149  1.0000
  H   H297      1.0  0.14362  0.88949  0.18100  1.0000
  N   N26       1.0  0.05886  0.74795  0.44883  1.0000
  H   H298      1.0  0.10165  0.84429  0.10114  1.0000
  S   S95       1.0  0.09885  0.72991  0.39608  1.0000
  H   H299      1.0  0.16318  0.79255  0.29233  1.0000
  H   H300      1.0  0.10109  0.81981  0.13581  1.0000
  H   H301      1.0  0.16292  0.72558  0.00169  1.0000
  H   H302      1.0  0.16732  0.74441  0.05142  1.0000
  C   C291      1.0  0.10582  0.96574  0.01642  1.0000
  H   H303      1.0  0.13729  0.94295  0.23230  1.0000
  H   H304      1.0  0.19839  0.76020  0.06603  1.0000
  C   C292      1.0  0.08638  0.96616  0.23434  1.0000
  H   H305      1.0  0.17461  0.74395  0.32890  1.0000
  C   C293      1.0  0.07109  0.72328  0.46088  1.0000
  C   C294      1.0  0.08394  0.74408  0.48641  1.0000
  H   H306      1.0  0.02286  0.96523  0.34834  1.0000
  H   H307      1.0  0.31537  0.73273  0.19800  1.0000
  C   C295      1.0  0.12158  0.77850  0.48475  1.0000
  H   H308      1.0  0.03553  0.94474  0.05308  1.0000
  C   C296      1.0  0.98865  0.72372  0.37565  1.0000
  H   H309      1.0  0.02819  0.96195  0.03668  1.0000
  C   C297      1.0  0.15643  0.73719  0.00099  1.0000
  S   S96       1.0  0.11684  0.96353  0.19095  1.0000
  H   H310      1.0  0.14149  0.73836  0.01441  1.0000
  C   C298      1.0  0.00594  0.96480  0.11615  1.0000
  S   S97       1.0  0.31967  0.74176  0.13640  1.0000
  H   H311      1.0  0.01455  0.96730  0.13485  1.0000
  S   S98       1.0  0.07551  0.96586  0.06012  1.0000
  H   H312      1.0  0.10982  0.78763  0.48105  1.0000
  H   H313      1.0  0.30484  0.72030  0.23851  1.0000
  C   C299      1.0  0.18722  0.75378  0.99037  1.0000
  Fe  Fe53      1.0  0.20045  0.78513  0.62639  1.0000
  S   S99       1.0  0.17754  0.76635  0.61905  1.0000
  S   S100      1.0  0.23517  0.77730  0.64231  1.0000
  Fe  Fe54      1.0  0.16175  0.80854  0.61604  1.0000
  S   S101      1.0  0.13750  0.79030  0.60697  1.0000
  S   S102      1.0  0.14167  0.83099  0.61768  1.0000
  Fe  Fe55      1.0  0.15205  0.77894  0.64378  1.0000
  S   S103      1.0  0.12856  0.76778  0.67362  1.0000
  Fe  Fe56      1.0  0.16526  0.77938  0.58284  1.0000
  S   S104      1.0  0.16519  0.76501  0.54466  1.0000
  S   S105      1.0  0.17529  0.79719  0.65372  1.0000
  S   S106      1.0  0.18914  0.79806  0.58930  1.0000
  H   H314      1.0  0.27927  0.72971  0.56308  1.0000
  S   S107      1.0  0.14449  0.74590  0.86633  1.0000
  Fe  Fe57      1.0  0.07862  0.74409  0.86559  1.0000
  S   S108      1.0  0.09785  0.76545  0.86686  1.0000
  S   S109      1.0  0.03954  0.74825  0.86541  1.0000
  Fe  Fe58      1.0  0.12053  0.75529  0.83518  1.0000
  S   S110      1.0  0.13775  0.76850  0.80190  1.0000
  Fe  Fe59      1.0  0.12028  0.75439  0.89803  1.0000
  S   S111      1.0  0.13834  0.76663  0.93205  1.0000
  S   S112      1.0  0.10067  0.73455  0.83203  1.0000
  S   S113      1.0  0.10032  0.73353  0.89877  1.0000
  Fe  Fe60      1.0  0.11000  0.92088  0.62704  1.0000
  S   S114      1.0  0.12082  0.94449  0.62046  1.0000
  S   S115      1.0  0.13756  0.90232  0.62538  1.0000
  Fe  Fe61      1.0  0.06139  0.93137  0.63586  1.0000
  S   S116      1.0  0.02742  0.92321  0.64859  1.0000
  Fe  Fe62      1.0  0.08985  0.94758  0.59437  1.0000
  H   H315      1.0  0.02335  0.93901  0.59761  1.0000
  Fe  Fe63      1.0  0.09869  0.95068  0.65635  1.0000
  C   C300      1.0  0.12187  0.92751  0.73230  1.0000
  S   S117      1.0  0.08032  0.92365  0.59907  1.0000
  S   S118      1.0  0.09030  0.92701  0.66442  1.0000
  H   H316      1.0  0.16674  0.74177  0.73409  1.0000
  C   C301      1.0  0.00457  0.92658  0.62661  1.0000
  C   C302      1.0  0.00698  0.93506  0.60320  1.0000
  C   C303      1.0  0.26287  0.73511  0.56581  1.0000
  H   H317      1.0  0.10990  0.90528  0.72939  1.0000
  H   H318      1.0  0.21518  0.77033  0.53521  1.0000
  H   H319      1.0  0.16160  0.78314  0.97188  1.0000
  H   H320      1.0  0.01681  0.74214  0.92399  1.0000
  H   H321      1.0  0.23493  0.76269  0.51136  1.0000
  H   H322      1.0  0.00679  0.95540  0.66210  1.0000
  C   C304      1.0  0.15215  0.75524  0.49452  1.0000
  C   C305      1.0  0.01130  0.74227  0.85894  1.0000
  C   C306      1.0  0.08423  0.90865  0.53322  1.0000
  H   H323      1.0  0.22239  0.74080  0.61340  1.0000
  H   H324      1.0  0.10141  0.79229  0.65006  1.0000
  C   C307      1.0  0.09672  0.89781  0.54722  1.0000
  C   C308      1.0  0.14101  0.85085  0.61988  1.0000
  C   C309      1.0  0.16053  0.85912  0.62169  1.0000
  C   C310      1.0  0.15907  0.87475  0.62345  1.0000
  C   C311      1.0  0.13812  0.88246  0.62353  1.0000
  C   C312      1.0  0.11857  0.87422  0.62171  1.0000
  C   C313      1.0  0.12004  0.85858  0.61991  1.0000
  H   H325      1.0  0.17681  0.85347  0.62167  1.0000
  H   H326      1.0  0.17439  0.88089  0.62476  1.0000
  H   H327      1.0  0.10229  0.87985  0.62170  1.0000
  H   H328      1.0  0.10476  0.85241  0.61849  1.0000
  C   C314      1.0  0.14909  0.76626  0.51433  1.0000
  H   H329      1.0  0.18574  0.74427  0.81758  1.0000
  C   C315      1.0  0.25314  0.74370  0.54512  1.0000
  C   C316      1.0  0.13295  0.76930  0.96700  1.0000
  H   H330      1.0  0.16125  0.94558  0.66387  1.0000
  C   C317      1.0  0.99855  0.74328  0.92407  1.0000
  H   H331      1.0  0.12862  0.96601  0.98243  1.0000
  H   H332      1.0  0.10349  0.75608  0.96907  1.0000
  H   H333      1.0  0.18394  0.75221  0.96901  1.0000
  H   H334      1.0  0.13106  0.78644  0.52429  1.0000
  C   C318      1.0  0.13229  0.76721  0.70914  1.0000
  C   C319      1.0  0.11678  0.75962  0.72514  1.0000
  C   C320      1.0  0.11833  0.75968  0.75356  1.0000
  C   C321      1.0  0.13529  0.76750  0.76627  1.0000
  C   C322      1.0  0.15094  0.77495  0.75024  1.0000
  C   C323      1.0  0.14960  0.77469  0.72185  1.0000
  H   H335      1.0  0.10332  0.75380  0.71549  1.0000
  H   H336      1.0  0.10619  0.75391  0.76564  1.0000
  H   H337      1.0  0.16416  0.78100  0.75988  1.0000
  H   H338      1.0  0.16164  0.78058  0.70982  1.0000
  C   C324      1.0  0.29892  0.75362  0.60752  1.0000
  C   C325      1.0  0.29040  0.74975  0.63284  1.0000
  C   C326      1.0  0.27062  0.75686  0.64285  1.0000
  C   C327      1.0  0.25862  0.76756  0.62744  1.0000
  C   C328      1.0  0.26682  0.77112  0.60179  1.0000
  C   C329      1.0  0.28699  0.76437  0.59214  1.0000
  H   H339      1.0  0.29939  0.74163  0.64509  1.0000
  H   H340      1.0  0.26471  0.75416  0.66288  1.0000
  H   H341      1.0  0.25813  0.77953  0.58988  1.0000
  H   H342      1.0  0.12145  0.93632  0.53598  1.0000
  S   S119      1.0  0.06852  0.95536  0.62976  1.0000
  C   C330      1.0  0.13416  0.90997  0.69839  1.0000
  C   C331      1.0  0.14785  0.92075  0.68730  1.0000
  N   N27       1.0  0.12705  0.91462  0.55223  1.0000
  H   H343      1.0  0.10821  0.81100  0.64173  1.0000
  C   C332      1.0  0.16502  0.72603  0.80647  1.0000
  C   C333      1.0  0.14793  0.77778  0.98209  1.0000
  C   C334      1.0  0.13360  0.77787  0.50934  1.0000
  S   S120      1.0  0.08390  0.95857  0.55253  1.0000
  Fe  Fe64      1.0  0.12383  0.72575  0.86524  1.0000
  H   H344      1.0  0.15781  0.91803  0.66956  1.0000
  H   H345      1.0  0.99829  0.76680  0.93046  1.0000
  H   H346      1.0  0.20871  0.75358  0.51773  1.0000
  H   H347      1.0  0.18752  0.75412  0.77082  1.0000
  H   H348      1.0  0.20555  0.75535  0.57575  1.0000
  H   H349      1.0  0.13339  0.89915  0.68903  1.0000
  C   C335      1.0  0.22255  0.75979  0.52714  1.0000
  H   H350      1.0  0.06739  0.90643  0.52616  1.0000
  H   H351      1.0  0.15089  0.82221  0.71728  1.0000
  C   C336      1.0  0.98804  0.93868  0.58727  1.0000
  C   C337      1.0  0.25169  0.73395  0.59045  1.0000
  C   C338      1.0  0.11521  0.76257  0.98040  1.0000
  N   N28       1.0  0.15378  0.71919  0.78613  1.0000
  C   C339      1.0  0.22169  0.74970  0.57291  1.0000
  H   H352      1.0  0.16419  0.72186  0.82696  1.0000
  C   C340      1.0  0.11481  0.92536  0.53880  1.0000
  C   C341      1.0  0.14935  0.91803  0.56278  1.0000
  H   H353      1.0  0.11152  0.93043  0.74963  1.0000
  H   H354      1.0  0.08355  0.93121  0.51880  1.0000
  N   N29       1.0  0.23289  0.75097  0.54896  1.0000
  C   C342      1.0  0.16672  0.73720  0.75439  1.0000
  H   H355      1.0  0.99672  0.76422  0.86313  1.0000
  C   C343      1.0  0.12099  0.91343  0.72095  1.0000
  C   C344      1.0  0.00622  0.72745  0.85436  1.0000
  N   N30       1.0  0.10898  0.80550  0.68391  1.0000
  C   C345      1.0  0.12713  0.81417  0.68820  1.0000
  C   C346      1.0  0.09955  0.79799  0.70487  1.0000
  C   C347      1.0  0.13622  0.81556  0.71410  1.0000
  C   C348      1.0  0.10803  0.79927  0.73109  1.0000
  C   C349      1.0  0.12652  0.80809  0.73566  1.0000
  C   C350      1.0  0.09955  0.80398  0.65675  1.0000
  H   H356      1.0  0.13486  0.81995  0.67152  1.0000
  H   H357      1.0  0.08579  0.79063  0.70124  1.0000
  N   N31       1.0  0.14834  0.93459  0.69829  1.0000
  H   H358      1.0  0.10092  0.79298  0.74756  1.0000
  H   H359      1.0  0.29347  0.76758  0.57265  1.0000
  C   C351      1.0  0.09330  0.92252  0.52898  1.0000
  H   H360      1.0  0.26204  0.74463  0.52612  1.0000
  H   H361      1.0  0.12760  0.89262  0.56806  1.0000
  C   C352      1.0  0.11820  0.90102  0.55674  1.0000
  C   C353      1.0  0.99319  0.75271  0.85976  1.0000
  C   C354      1.0  0.15423  0.72473  0.76040  1.0000
  H   H362      1.0  0.08145  0.80731  0.65669  1.0000
  H   H363      1.0  0.13636  0.94891  0.72965  1.0000
  C   C355      1.0  0.17842  0.74414  0.77499  1.0000
  C   C356      1.0  0.13591  0.93796  0.72081  1.0000
  H   H364      1.0  0.15946  0.92363  0.54713  1.0000
  H   H365      1.0  0.14751  0.92532  0.58067  1.0000
  C   C357      1.0  0.23097  0.74129  0.59409  1.0000
  H   H366      1.0  0.08969  0.88707  0.55113  1.0000
  H   H367      1.0  0.01974  0.71921  0.85359  1.0000
  H   H368      1.0  0.13367  0.80875  0.75578  1.0000
  H   H369      1.0  0.14478  0.71964  0.74437  1.0000
  H   H370      1.0  0.15804  0.95703  0.69288  1.0000
  C   C358      1.0  0.17745  0.73861  0.80124  1.0000
  H   H371      1.0  0.18067  0.94329  0.69197  1.0000
  H   H372      1.0  0.15887  0.90787  0.56926  1.0000
  H   H373      1.0  0.99343  0.72026  0.91587  1.0000
  C   C359      1.0  0.16289  0.94564  0.68623  1.0000
  H   H374      1.0  0.25937  0.72768  0.60691  1.0000
  H   H375      1.0  0.98996  0.94538  0.56934  1.0000
  H   H376      1.0  0.16404  0.74619  0.49814  1.0000
  H   H377      1.0  0.07540  0.95667  0.72542  1.0000
  H   H378      1.0  0.15048  0.73973  0.98013  1.0000
  H   H379      1.0  0.09439  0.74863  0.50217  1.0000
  H   H380      1.0  0.21447  0.76861  0.98306  1.0000
  H   H381      1.0  0.12984  0.96550  0.53391  1.0000
  S   S121      1.0  0.11137  0.96673  0.68893  1.0000
  H   H382      1.0  0.06457  0.96423  0.77202  1.0000
  C   C360      1.0  0.09486  0.96743  0.52297  1.0000
  C   C361      1.0  0.08442  0.96528  0.73550  1.0000
  H   H383      1.0  0.09456  0.72151  0.49407  1.0000
  C   C362      1.0  0.98814  0.75716  0.92744  1.0000
  C   C363      1.0  0.98865  0.95609  0.65935  1.0000
  H   H384      1.0  0.49621  0.18957  0.36684  1.0000
  S   S122      1.0  0.63100  0.19931  0.36223  1.0000
  H   H385      1.0  0.51401  0.20623  0.33355  1.0000
  C   C364      1.0  0.44930  0.20472  0.33741  1.0000
  N   N32       1.0  0.45924  0.21407  0.31956  1.0000
  H   H386      1.0  0.64004  0.16874  0.35741  1.0000
  H   H387      1.0  0.33337  0.18023  0.40722  1.0000
  C   C365      1.0  0.46242  0.19570  0.35458  1.0000
  H   H388      1.0  0.43111  0.20475  0.33946  1.0000
  H   H389      1.0  0.45441  0.18891  0.36965  1.0000
  C   C366      1.0  0.48583  0.19611  0.35303  1.0000
  C   C367      1.0  0.48219  0.21430  0.31748  1.0000
  S   S123      1.0  0.32193  0.20024  0.35989  1.0000
  C   C368      1.0  0.32357  0.20396  0.43703  1.0000
  C   C369      1.0  0.49583  0.20540  0.33427  1.0000
  H   H390      1.0  0.34187  0.20109  0.43669  1.0000
  H   H391      1.0  0.44043  0.21776  0.28365  1.0000
  S   S124      1.0  0.63371  0.19896  0.84555  1.0000
  C   C370      1.0  0.64248  0.20572  0.91705  1.0000
  H   H392      1.0  0.63507  0.20770  0.93733  1.0000
  H   H393      1.0  0.46552  0.20741  0.86477  1.0000
  H   H394      1.0  0.50601  0.21361  0.86374  1.0000
  H   H395      1.0  0.63909  0.21567  0.90439  1.0000
  H   H396      1.0  0.63381  0.19644  0.90713  1.0000
  H   H397      1.0  0.65001  0.20959  0.76833  1.0000
  H   H398      1.0  0.40070  0.21589  0.76915  1.0000
  Fe  Fe65      1.0  0.59649  0.44749  0.07428  1.0000
  S   S125      1.0  0.57172  0.42919  0.07987  1.0000
  H   H399      1.0  0.32659  0.24256  0.27849  1.0000
  Fe  Fe66      1.0  0.60167  0.45088  0.13691  1.0000
  S   S126      1.0  0.57746  0.43284  0.14524  1.0000
  S   S127      1.0  0.39274  0.44790  0.11285  1.0000
  Fe  Fe67      1.0  0.59507  0.41979  0.11208  1.0000
  S   S128      1.0  0.59902  0.39431  0.11753  1.0000
  Fe  Fe68      1.0  0.55661  0.44346  0.11241  1.0000
  S   S129      1.0  0.52044  0.45115  0.11845  1.0000
  S   S130      1.0  0.62083  0.43730  0.10516  1.0000
  Fe  Fe69      1.0  0.34983  0.41618  0.11122  1.0000
  S   S131      1.0  0.33981  0.44036  0.11893  1.0000
  C   C371      1.0  0.42069  0.45808  0.45962  1.0000
  Fe  Fe70      1.0  0.39924  0.42381  0.10547  1.0000
  S   S132      1.0  0.43358  0.41397  0.09467  1.0000
  Fe  Fe71      1.0  0.37005  0.44095  0.14676  1.0000
  Fe  Fe72      1.0  0.64445  0.28923  0.07828  1.0000
  Fe  Fe73      1.0  0.36340  0.44582  0.08430  1.0000
  C   C372      1.0  0.40714  0.43018  0.00360  1.0000
  S   S133      1.0  0.37851  0.41659  0.14087  1.0000
  S   S134      1.0  0.37127  0.42186  0.07514  1.0000
  S   S135      1.0  0.62865  0.30258  0.11196  1.0000
  C   C373      1.0  0.63594  0.32983  0.05137  1.0000
  C   C374      1.0  0.58848  0.42443  0.21890  1.0000
  Fe  Fe74      1.0  0.61068  0.25137  0.32927  1.0000
  S   S136      1.0  0.59204  0.23011  0.32672  1.0000
  S   S137      1.0  0.62782  0.26547  0.29697  1.0000
  Fe  Fe75      1.0  0.60823  0.25176  0.39196  1.0000
  S   S138      1.0  0.58917  0.23049  0.39350  1.0000
  S   S139      1.0  0.62106  0.26804  0.42367  1.0000
  S   S140      1.0  0.32374  0.28573  0.12825  1.0000
  Fe  Fe76      1.0  0.56818  0.23961  0.35856  1.0000
  S   S141      1.0  0.52957  0.24226  0.35030  1.0000
  S   S142      1.0  0.63404  0.24320  0.36220  1.0000
  S   S143      1.0  0.58609  0.26131  0.35897  1.0000
  H   H400      1.0  0.35486  0.34686  0.12154  1.0000
  Fe  Fe77      1.0  0.39063  0.23387  0.37544  1.0000
  S   S144      1.0  0.37672  0.25725  0.37288  1.0000
  H   H401      1.0  0.53264  0.45099  0.06378  1.0000
  H   H402      1.0  0.33164  0.46299  0.46931  1.0000
  C   C375      1.0  0.56042  0.45507  0.47106  1.0000
  Fe  Fe78      1.0  0.35712  0.24941  0.33677  1.0000
  S   S145      1.0  0.35736  0.26453  0.29966  1.0000
  Fe  Fe79      1.0  0.34765  0.24957  0.39814  1.0000
  C   C376      1.0  0.36168  0.29381  0.02116  1.0000
  S   S146      1.0  0.37211  0.22630  0.33828  1.0000
  S   S147      1.0  0.36241  0.22656  0.40318  1.0000
  H   H403      1.0  0.60380  0.36723  0.05895  1.0000
  C   C377      1.0  0.39139  0.45486  0.42774  1.0000
  H   H404      1.0  0.57430  0.26902  0.10149  1.0000
  H   H405      1.0  0.61801  0.34098  0.12580  1.0000
  C   C378      1.0  0.34380  0.25167  0.01250  1.0000
  C   C379      1.0  0.35342  0.30529  0.07213  1.0000
  C   C380      1.0  0.38196  0.44401  0.44404  1.0000
  H   H406      1.0  0.35340  0.24314  0.02309  1.0000
  C   C381      1.0  0.63712  0.27835  0.21904  1.0000
  H   H407      1.0  0.61875  0.45812  0.44967  1.0000
  H   H408      1.0  0.35581  0.28307  0.25257  1.0000
  C   C382      1.0  0.34262  0.26289  0.26864  1.0000
  C   C383      1.0  0.33185  0.27385  0.22495  1.0000
  C   C384      1.0  0.33043  0.26186  0.02727  1.0000
  N   N33       1.0  0.64746  0.34271  0.05211  1.0000
  N   N34       1.0  0.59381  0.25975  0.06938  1.0000
  H   H409      1.0  0.47396  0.45664  0.12924  1.0000
  C   C385      1.0  0.45596  0.23328  0.37757  1.0000
  H   H410      1.0  0.59824  0.28738  0.99035  1.0000
  S   S148      1.0  0.32811  0.26342  0.42943  1.0000
  C   C386      1.0  0.50152  0.23935  0.36275  1.0000
  C   C387      1.0  0.48300  0.24622  0.34937  1.0000
  C   C388      1.0  0.46049  0.24335  0.35684  1.0000
  C   C389      1.0  0.47447  0.22670  0.39140  1.0000
  C   C390      1.0  0.38287  0.46265  0.24024  1.0000
  C   C391      1.0  0.62625  0.27708  0.01156  1.0000
  H   H411      1.0  0.32839  0.44291  0.19325  1.0000
  C   C392      1.0  0.36835  0.28570  0.04392  1.0000
  C   C393      1.0  0.62456  0.26684  0.45938  1.0000
  C   C394      1.0  0.61508  0.25565  0.47484  1.0000
  H   H412      1.0  0.58266  0.34388  0.05866  1.0000
  C   C395      1.0  0.62441  0.42772  0.19742  1.0000
  H   H413      1.0  0.51083  0.22440  0.39492  1.0000
  C   C396      1.0  0.61046  0.24911  0.06672  1.0000
  H   H414      1.0  0.36626  0.43908  0.43825  1.0000
  C   C397      1.0  0.62061  0.27094  0.20470  1.0000
  S   S149      1.0  0.32996  0.26050  0.06303  1.0000
  H   H415      1.0  0.64485  0.31927  0.04929  1.0000
  C   C398      1.0  0.62390  0.26771  0.26161  1.0000
  C   C399      1.0  0.60722  0.26043  0.24735  1.0000
  H   H416      1.0  0.33874  0.38062  0.16914  1.0000
  C   C400      1.0  0.40849  0.45674  0.00667  1.0000
  H   H417      1.0  0.60281  0.29554  0.29275  1.0000
  H   H418      1.0  0.59747  0.27996  0.09012  1.0000
  H   H419      1.0  0.57519  0.42841  0.23227  1.0000
  C   C401      1.0  0.34155  0.36915  0.11583  1.0000
  H   H420      1.0  0.35344  0.39884  0.20870  1.0000
  H   H421      1.0  0.35782  0.37417  0.11736  1.0000
  C   C402      1.0  0.61848  0.37877  0.11783  1.0000
  C   C403      1.0  0.34249  0.42144  0.20340  1.0000
  C   C404      1.0  0.58614  0.41132  0.20451  1.0000
  Fe  Fe80      1.0  0.34260  0.22123  0.36566  1.0000
  H   H422      1.0  0.63398  0.29221  0.37977  1.0000
  C   C405      1.0  0.49680  0.44034  0.11205  1.0000
  C   C406      1.0  0.47548  0.44602  0.11933  1.0000
  C   C407      1.0  0.45609  0.43794  0.11439  1.0000
  C   C408      1.0  0.45781  0.42416  0.10180  1.0000
  C   C409      1.0  0.47915  0.41849  0.09432  1.0000
  C   C410      1.0  0.49865  0.42653  0.09949  1.0000
  C   C411      1.0  0.61252  0.24090  0.04290  1.0000
  H   H423      1.0  0.43988  0.44232  0.12072  1.0000
  H   H424      1.0  0.48061  0.40780  0.08464  1.0000
  H   H425      1.0  0.51502  0.42205  0.09384  1.0000
  H   H426      1.0  0.56343  0.30083  0.39243  1.0000
  H   H427      1.0  0.38273  0.45827  0.40935  1.0000
  C   C412      1.0  0.63869  0.27676  0.24731  1.0000
  C   C413      1.0  0.60176  0.46702  0.00429  1.0000
  S   S150      1.0  0.32298  0.39803  0.11070  1.0000
  H   H428      1.0  0.57379  0.30082  0.29771  1.0000
  H   H429      1.0  0.33510  0.33421  0.03417  1.0000
  H   H430      1.0  0.42523  0.44109  0.06512  1.0000
  H   H431      1.0  0.63888  0.43456  0.19409  1.0000
  C   C414      1.0  0.54428  0.45069  0.02282  1.0000
  C   C415      1.0  0.41929  0.44201  0.04446  1.0000
  S   S151      1.0  0.37665  0.45035  0.18957  1.0000
  H   H432      1.0  0.64839  0.39095  0.11013  1.0000
  N   N35       1.0  0.41543  0.45559  0.03295  1.0000
  C   C416      1.0  0.60081  0.34355  0.05638  1.0000
  S   S152      1.0  0.57990  0.46227  0.10537  1.0000
  H   H433      1.0  0.59273  0.25629  0.20818  1.0000
  H   H434      1.0  0.60354  0.31974  0.05348  1.0000
  C   C417      1.0  0.33980  0.35361  0.11823  1.0000
  H   H435      1.0  0.57097  0.40502  0.20649  1.0000
  H   H436      1.0  0.54791  0.43887  0.02279  1.0000
  C   C418      1.0  0.34461  0.27406  0.24898  1.0000
  H   H437      1.0  0.44664  0.24867  0.34610  1.0000
  H   H438      1.0  0.63357  0.41281  0.14336  1.0000
  C   C419      1.0  0.64284  0.26584  0.01053  1.0000
  H   H439      1.0  0.60112  0.39659  0.17527  1.0000
  H   H440      1.0  0.48610  0.25374  0.33286  1.0000
  C   C420      1.0  0.61024  0.36450  0.12232  1.0000
  H   H441      1.0  0.35592  0.42584  0.21561  1.0000
  S   S153      1.0  0.60363  0.45244  0.02909  1.0000
  C   C421      1.0  0.58079  0.25470  0.02448  1.0000
  S   S154      1.0  0.61899  0.46267  0.17240  1.0000
  H   H442      1.0  0.60964  0.44296  0.22625  1.0000
  C   C422      1.0  0.32227  0.37817  0.11185  1.0000
  C   C423      1.0  0.63672  0.27781  0.47269  1.0000
  H   H443      1.0  0.58298  0.28166  0.30139  1.0000
  H   H444      1.0  0.62718  0.29084  0.33058  1.0000
  N   N36       1.0  0.62212  0.41477  0.18362  1.0000
  H   H445      1.0  0.41438  0.46736  0.07007  1.0000
  H   H446      1.0  0.64225  0.39777  0.16523  1.0000
  H   H447      1.0  0.35821  0.24843  0.46858  1.0000
  C   C424      1.0  0.63610  0.35603  0.05401  1.0000
  H   H448      1.0  0.38448  0.43237  0.48204  1.0000
  H   H449      1.0  0.59572  0.25343  0.25804  1.0000
  S   S155      1.0  0.61859  0.27195  0.16892  1.0000
  C   C425      1.0  0.34560  0.25482  0.47956  1.0000
  H   H450      1.0  0.63980  0.23865  0.23051  1.0000
  C   C426      1.0  0.36409  0.29140  0.06958  1.0000
  C   C427      1.0  0.57924  0.26272  0.04855  1.0000
  H   H451      1.0  0.47137  0.21898  0.40758  1.0000
  H   H452      1.0  0.64520  0.36625  0.05462  1.0000
  C   C428      1.0  0.62476  0.35181  0.12250  1.0000
  H   H453      1.0  0.56663  0.27155  0.05028  1.0000
  H   H454      1.0  0.60213  0.29741  0.41085  1.0000
  H   H455      1.0  0.60561  0.24716  0.46500  1.0000
  C   C429      1.0  0.59196  0.26854  0.09416  1.0000
  H   H456      1.0  0.62602  0.23269  0.04059  1.0000
  H   H457      1.0  0.41785  0.41837  0.03952  1.0000
  H   H458      1.0  0.59240  0.36321  0.12556  1.0000
  H   H459      1.0  0.56548  0.44480  0.46129  1.0000
  H   H460      1.0  0.36840  0.28490  0.08738  1.0000
  H   H461      1.0  0.62245  0.24704  0.08288  1.0000
  C   C430      1.0  0.49698  0.22977  0.38424  1.0000
  H   H462      1.0  0.45401  0.23394  0.29675  1.0000
  H   H463      1.0  0.34596  0.44727  0.00803  1.0000
  S   S156      1.0  0.65404  0.27054  0.10592  1.0000
  C   C431      1.0  0.60779  0.43263  0.21552  1.0000
  C   C432      1.0  0.41169  0.44728  0.47643  1.0000
  H   H464      1.0  0.60250  0.26382  0.11082  1.0000
  H   H465      1.0  0.65165  0.28246  0.25814  1.0000
  H   H466      1.0  0.39876  0.45652  0.24002  1.0000
  C   C433      1.0  0.32903  0.26291  0.46537  1.0000
  H   H467      1.0  0.33311  0.28271  0.21036  1.0000
  C   C434      1.0  0.32822  0.25126  0.26365  1.0000
  C   C435      1.0  0.60561  0.26205  0.21905  1.0000
  C   C436      1.0  0.64794  0.35320  0.11855  1.0000
  C   C437      1.0  0.35080  0.30760  0.02446  1.0000
  H   H468      1.0  0.59940  0.23778  0.00275  1.0000
  N   N37       1.0  0.34708  0.31325  0.04973  1.0000
  H   H469      1.0  0.43535  0.46389  0.46637  1.0000
  C   C438      1.0  0.36845  0.46182  0.21770  1.0000
  H   H470      1.0  0.56956  0.25729  0.00775  1.0000
  C   C439      1.0  0.59755  0.24372  0.02168  1.0000
  C   C440      1.0  0.41520  0.42911  0.03001  1.0000
  C   C441      1.0  0.35054  0.45797  0.00033  1.0000
  C   C442      1.0  0.64165  0.38014  0.11375  1.0000
  H   H471      1.0  0.34516  0.31365  0.00667  1.0000
  C   C443      1.0  0.61249  0.33004  0.05365  1.0000
  H   H472      1.0  0.35001  0.30959  0.09218  1.0000
  N   N38       1.0  0.41053  0.46172  0.43560  1.0000
  H   H473      1.0  0.49015  0.22187  0.30368  1.0000
  N   N39       1.0  0.59186  0.29545  0.33389  1.0000
  C   C444      1.0  0.57411  0.29812  0.35096  1.0000
  C   C445      1.0  0.61321  0.29354  0.34392  1.0000
  C   C446      1.0  0.57756  0.29914  0.37884  1.0000
  C   C447      1.0  0.61722  0.29440  0.37169  1.0000
  C   C448      1.0  0.59927  0.29725  0.38919  1.0000
  C   C449      1.0  0.58760  0.29332  0.30502  1.0000
  H   H474      1.0  0.55707  0.29900  0.34317  1.0000
  H   H475      1.0  0.36420  0.28917  0.00115  1.0000
  S   S157      1.0  0.62289  0.28884  0.04009  1.0000
  C   C450      1.0  0.60326  0.40662  0.18686  1.0000
  S   S158      1.0  0.36208  0.46526  0.05370  1.0000
  H   H476      1.0  0.65274  0.24255  0.18478  1.0000
  H   H477      1.0  0.64421  0.28649  0.46097  1.0000
  C   C451      1.0  0.53597  0.45764  0.04607  1.0000
  H   H478      1.0  0.64875  0.28524  0.20833  1.0000
  S   S159      1.0  0.42793  0.22738  0.38533  1.0000
  H   H479      1.0  0.37595  0.27472  0.04172  1.0000
  H   H480      1.0  0.40561  0.46750  0.99739  1.0000
  H   H481      1.0  0.34360  0.33422  0.06883  1.0000
  Fe  Fe81      1.0  0.64125  0.28457  0.14019  1.0000
  C   C452      1.0  0.61264  0.35666  0.05636  1.0000
  C   C453      1.0  0.34692  0.46692  0.47834  1.0000
  Fe  Fe82      1.0  0.61427  0.22254  0.36159  1.0000
  C   C454      1.0  0.39217  0.44025  0.46858  1.0000
  C   C455      1.0  0.33527  0.32757  0.05305  1.0000
  C   C456      1.0  0.63930  0.40994  0.16410  1.0000
  C   C457      1.0  0.54877  0.45916  0.99999  1.0000
  S   S160      1.0  0.32682  0.24392  0.36162  1.0000
  C   C458      1.0  0.34099  0.40621  0.19940  1.0000
  H   H482      1.0  0.32953  0.29086  0.31617  1.0000
  H   H483      1.0  0.57387  0.46504  0.19763  1.0000
  C   C459      1.0  0.44513  0.22371  0.30229  1.0000
  C   C460      1.0  0.40389  0.44408  0.99173  1.0000
  H   H484      1.0  0.40329  0.42027  0.99245  1.0000
  C   C461      1.0  0.32699  0.43105  0.19085  1.0000
  H   H485      1.0  0.42954  0.22738  0.31312  1.0000
  N   N40       1.0  0.32431  0.40071  0.18363  1.0000
  C   C462      1.0  0.61434  0.46706  0.46328  1.0000
  C   C463      1.0  0.32333  0.38469  0.17977  1.0000
  H   H486      1.0  0.32132  0.27628  0.33771  1.0000
  H   H487      1.0  0.32199  0.37896  0.19952  1.0000
  Fe  Fe83      1.0  0.60235  0.45379  0.57541  1.0000
  S   S161      1.0  0.58753  0.43200  0.56502  1.0000
  C   C464      1.0  0.63252  0.35028  0.61465  1.0000
  Fe  Fe84      1.0  0.59642  0.44805  0.63780  1.0000
  S   S162      1.0  0.58009  0.42603  0.63050  1.0000
  H   H488      1.0  0.58115  0.28692  0.77664  1.0000
  Fe  Fe85      1.0  0.60754  0.42186  0.59963  1.0000
  S   S163      1.0  0.63003  0.40066  0.59432  1.0000
  Fe  Fe86      1.0  0.56146  0.43777  0.59644  1.0000
  S   S164      1.0  0.52596  0.43951  0.57982  1.0000
  S   S165      1.0  0.62469  0.44356  0.60809  1.0000
  Fe  Fe87      1.0  0.35717  0.41538  0.61191  1.0000
  S   S166      1.0  0.34561  0.43952  0.60763  1.0000
  H   H489      1.0  0.57155  0.30095  0.81728  1.0000
  Fe  Fe88      1.0  0.40502  0.42441  0.62383  1.0000
  S   S167      1.0  0.43914  0.41702  0.63981  1.0000
  Fe  Fe89      1.0  0.36662  0.44391  0.64493  1.0000
  C   C465      1.0  0.64831  0.37212  0.59340  1.0000
  Fe  Fe90      1.0  0.37699  0.44270  0.58262  1.0000
  C   C466      1.0  0.62972  0.26652  0.51652  1.0000
  S   S168      1.0  0.37554  0.41981  0.65083  1.0000
  S   S169      1.0  0.38761  0.41847  0.58515  1.0000
  S   S170      1.0  0.62693  0.28943  0.61832  1.0000
  C   C467      1.0  0.64395  0.25617  0.98824  1.0000
  H   H490      1.0  0.60991  0.24693  0.51493  1.0000
  Fe  Fe91      1.0  0.60875  0.25271  0.83900  1.0000
  S   S171      1.0  0.58916  0.23280  0.82783  1.0000
  S   S172      1.0  0.62048  0.27031  0.80941  1.0000
  Fe  Fe92      1.0  0.61112  0.24374  0.89965  1.0000
  H   H491      1.0  0.65002  0.22345  0.81136  1.0000
  S   S173      1.0  0.63002  0.24450  0.94001  1.0000
  H   H492      1.0  0.55601  0.45398  0.98216  1.0000
  Fe  Fe93      1.0  0.56819  0.23774  0.86532  1.0000
  S   S174      1.0  0.52924  0.24220  0.86661  1.0000
  S   S175      1.0  0.63425  0.24019  0.86414  1.0000
  S   S176      1.0  0.58734  0.25840  0.87537  1.0000
  S   S177      1.0  0.39692  0.44854  0.61974  1.0000
  Fe  Fe94      1.0  0.38677  0.23367  0.87043  1.0000
  S   S178      1.0  0.37727  0.25787  0.87367  1.0000
  H   H493      1.0  0.53173  0.24762  0.80918  1.0000
  C   C468      1.0  0.47019  0.21886  0.86605  1.0000
  C   C469      1.0  0.62025  0.25432  0.73229  1.0000
  Fe  Fe95      1.0  0.35379  0.25393  0.83880  1.0000
  S   S179      1.0  0.35034  0.27084  0.80460  1.0000
  Fe  Fe96      1.0  0.34887  0.25070  0.90073  1.0000
  H   H494      1.0  0.42101  0.43883  0.68212  1.0000
  S   S180      1.0  0.36435  0.23017  0.83404  1.0000
  Fe  Fe97      1.0  0.65153  0.30807  0.61897  1.0000
  H   H495      1.0  0.55639  0.29246  0.84425  1.0000
  S   S181      1.0  0.38491  0.45830  0.54666  1.0000
  H   H496      1.0  0.56113  0.28871  0.58970  1.0000
  C   C470      1.0  0.62972  0.26583  0.71727  1.0000
  C   C471      1.0  0.33386  0.27946  0.75491  1.0000
  H   H497      1.0  0.58527  0.28686  0.83773  1.0000
  H   H498      1.0  0.55988  0.44550  0.51082  1.0000
  H   H499      1.0  0.46459  0.44953  0.64724  1.0000
  C   C472      1.0  0.40254  0.22717  0.77603  1.0000
  H   H500      1.0  0.39893  0.27183  0.82486  1.0000
  H   H501      1.0  0.61678  0.29782  0.53794  1.0000
  C   C473      1.0  0.33907  0.26744  0.77208  1.0000
  H   H502      1.0  0.57058  0.26697  0.74557  1.0000
  H   H503      1.0  0.42313  0.22095  0.81039  1.0000
  S   S182      1.0  0.33129  0.39695  0.60519  1.0000
  C   C474      1.0  0.40792  0.27101  0.80523  1.0000
  H   H504      1.0  0.63794  0.28979  0.76912  1.0000
  C   C475      1.0  0.45309  0.22991  0.86852  1.0000
  C   C476      1.0  0.45975  0.24465  0.87019  1.0000
  C   C477      1.0  0.48291  0.24816  0.86951  1.0000
  C   C478      1.0  0.50001  0.23707  0.86725  1.0000
  S   S183      1.0  0.35552  0.46033  0.67846  1.0000
  N   N41       1.0  0.60578  0.31552  0.56355  1.0000
  H   H505      1.0  0.44707  0.25336  0.87239  1.0000
  H   H506      1.0  0.48761  0.25958  0.87111  1.0000
  C   C479      1.0  0.61518  0.40414  0.68710  1.0000
  C   C480      1.0  0.56389  0.26725  0.76597  1.0000
  C   C481      1.0  0.61228  0.26906  0.96747  1.0000
  C   C482      1.0  0.62864  0.25766  0.96664  1.0000
  H   H507      1.0  0.61537  0.24436  0.72206  1.0000
  H   H508      1.0  0.35531  0.24454  0.97299  1.0000
  C   C483      1.0  0.34759  0.31101  0.57407  1.0000
  H   H509      1.0  0.60038  0.27035  0.95105  1.0000
  C   C484      1.0  0.32760  0.25084  0.73644  1.0000
  C   C485      1.0  0.33479  0.40731  0.69925  1.0000
  C   C486      1.0  0.33378  0.42159  0.70984  1.0000
  C   C487      1.0  0.37491  0.29029  0.57746  1.0000
  C   C488      1.0  0.61731  0.25550  0.76046  1.0000
  C   C489      1.0  0.62373  0.26827  0.77395  1.0000
  C   C490      1.0  0.63295  0.27984  0.75892  1.0000
  C   C491      1.0  0.64705  0.40010  0.65766  1.0000
  H   H510      1.0  0.40123  0.45489  0.76234  1.0000
  H   H511      1.0  0.61016  0.24651  0.77170  1.0000
  C   C492      1.0  0.33150  0.31950  0.55984  1.0000
  S   S184      1.0  0.33277  0.26467  0.55847  1.0000
  C   C493      1.0  0.55741  0.45556  0.49907  1.0000
  H   H512      1.0  0.63615  0.46034  0.77116  1.0000
  C   C494      1.0  0.32175  0.26286  0.71950  1.0000
  C   C495      1.0  0.62994  0.38119  0.60179  1.0000
  C   C496      1.0  0.61277  0.37462  0.61659  1.0000
  C   C497      1.0  0.61412  0.35934  0.62300  1.0000
  H   H513      1.0  0.59850  0.38133  0.62325  1.0000
  H   H514      1.0  0.60076  0.35450  0.63459  1.0000
  C   C498      1.0  0.50216  0.43300  0.59685  1.0000
  C   C499      1.0  0.50405  0.42495  0.62090  1.0000
  C   C500      1.0  0.48460  0.41980  0.63363  1.0000
  C   C501      1.0  0.46322  0.42278  0.62249  1.0000
  C   C502      1.0  0.46133  0.43098  0.59860  1.0000
  C   C503      1.0  0.48077  0.43601  0.58579  1.0000
  H   H515      1.0  0.52048  0.42257  0.62952  1.0000
  H   H516      1.0  0.48612  0.41352  0.65218  1.0000
  H   H517      1.0  0.44491  0.43339  0.58996  1.0000
  H   H518      1.0  0.47922  0.44222  0.56716  1.0000
  C   C504      1.0  0.34616  0.25526  0.50804  1.0000
  S   S185      1.0  0.42395  0.22460  0.86891  1.0000
  C   C505      1.0  0.55011  0.25606  0.77514  1.0000
  C   C506      1.0  0.41517  0.22999  0.79910  1.0000
  C   C507      1.0  0.32681  0.31601  0.53305  1.0000
  C   C508      1.0  0.35438  0.29598  0.53558  1.0000
  N   N42       1.0  0.65034  0.41500  0.65655  1.0000
  C   C509      1.0  0.64957  0.35682  0.59962  1.0000
  C   C510      1.0  0.56907  0.29036  0.82812  1.0000
  C   C511      1.0  0.34805  0.46127  0.97248  1.0000
  S   S186      1.0  0.59116  0.22336  0.89170  1.0000
  H   H519      1.0  0.61898  0.33713  0.55852  1.0000
  H   H520      1.0  0.54251  0.26787  0.83945  1.0000
  C   C512      1.0  0.32508  0.27721  0.72882  1.0000
  S   S187      1.0  0.57566  0.45981  0.60606  1.0000
  H   H521      1.0  0.35184  0.34775  0.64514  1.0000
  C   C513      1.0  0.34356  0.36915  0.62756  1.0000
  C   C514      1.0  0.32838  0.37748  0.61158  1.0000
  H   H522      1.0  0.60797  0.45206  0.97117  1.0000
  H   H523      1.0  0.60753  0.42699  0.69663  1.0000
  H   H524      1.0  0.36586  0.28115  0.58735  1.0000
  H   H525      1.0  0.60122  0.39994  0.69864  1.0000
  C   C515      1.0  0.38805  0.46118  0.75206  1.0000
  H   H526      1.0  0.32249  0.32856  0.56976  1.0000
  C   C516      1.0  0.33282  0.26350  0.97012  1.0000
  C   C517      1.0  0.54839  0.26787  0.81872  1.0000
  C   C518      1.0  0.61333  0.46423  0.49137  1.0000
  C   C519      1.0  0.41680  0.24453  0.80824  1.0000
  N   N43       1.0  0.35890  0.29949  0.56184  1.0000
  C   C520      1.0  0.36435  0.46489  0.71209  1.0000
  H   H527      1.0  0.55753  0.45941  0.55080  1.0000
  C   C521      1.0  0.54223  0.25637  0.80165  1.0000
  C   C522      1.0  0.62357  0.46528  0.75789  1.0000
  H   H528      1.0  0.62679  0.32410  0.53265  1.0000
  C   C523      1.0  0.38130  0.45687  0.72586  1.0000
  H   H529      1.0  0.38178  0.23685  0.74450  1.0000
  C   C524      1.0  0.63947  0.27760  0.50103  1.0000
  C   C525      1.0  0.59115  0.31999  0.58342  1.0000
  S   S188      1.0  0.32484  0.24895  0.86582  1.0000
  S   S189      1.0  0.63309  0.33097  0.62343  1.0000
  S   S190      1.0  0.33414  0.26543  0.93445  1.0000
  H   H530      1.0  0.63932  0.32264  0.56589  1.0000
  C   C526      1.0  0.60467  0.46550  0.71394  1.0000
  H   H531      1.0  0.39987  0.27935  0.79152  1.0000
  H   H532      1.0  0.42614  0.24659  0.82659  1.0000
  H   H533      1.0  0.42579  0.27387  0.80819  1.0000
  S   S191      1.0  0.60145  0.45766  0.68081  1.0000
  S   S192      1.0  0.35918  0.22645  0.89952  1.0000
  H   H534      1.0  0.33643  0.29061  0.76189  1.0000
  H   H535      1.0  0.36271  0.28650  0.52617  1.0000
  C   C527      1.0  0.39196  0.23890  0.76223  1.0000
  S   S193      1.0  0.63436  0.26319  0.68215  1.0000
  H   H536      1.0  0.38329  0.29686  0.59328  1.0000
  H   H537      1.0  0.56358  0.31399  0.60919  1.0000
  H   H538      1.0  0.38818  0.28534  0.56427  1.0000
  Fe  Fe98      1.0  0.33610  0.22513  0.86311  1.0000
  H   H539      1.0  0.35803  0.37442  0.63609  1.0000
  H   H540      1.0  0.59239  0.33087  0.59239  1.0000
  C   C528      1.0  0.33007  0.26363  0.52273  1.0000
  C   C529      1.0  0.49333  0.22236  0.86546  1.0000
  H   H541      1.0  0.35928  0.24914  0.51875  1.0000
  N   N44       1.0  0.40636  0.25596  0.79463  1.0000
  C   C530      1.0  0.60435  0.46343  0.97674  1.0000
  C   C531      1.0  0.39414  0.25332  0.77181  1.0000
  C   C532      1.0  0.62091  0.45950  0.73167  1.0000
  H   H542      1.0  0.58789  0.28076  0.55369  1.0000
  H   H543      1.0  0.34415  0.45299  0.51389  1.0000
  H   H544      1.0  0.45075  0.43952  0.68734  1.0000
  H   H545      1.0  0.33450  0.30111  0.50014  1.0000
  H   H546      1.0  0.38555  0.26234  0.76121  1.0000
  Fe  Fe99      1.0  0.64914  0.27784  0.64889  1.0000
  H   H547      1.0  0.64910  0.28601  0.51083  1.0000
  S   S194      1.0  0.63137  0.26605  0.55248  1.0000
  H   H548      1.0  0.62661  0.38264  0.67307  1.0000
  C   C533      1.0  0.43488  0.44633  0.68730  1.0000
  C   C534      1.0  0.33999  0.35395  0.63266  1.0000
  N   N45       1.0  0.56184  0.27882  0.80955  1.0000
  C   C535      1.0  0.63640  0.42459  0.67039  1.0000
  C   C536      1.0  0.56970  0.27858  0.78359  1.0000
  C   C537      1.0  0.33590  0.25309  0.76272  1.0000
  H   H549      1.0  0.43218  0.45078  0.70795  1.0000
  C   C538      1.0  0.63602  0.27863  0.73075  1.0000
  C   C539      1.0  0.57480  0.31048  0.59304  1.0000
  C   C540      1.0  0.62356  0.32532  0.55462  1.0000
  C   C541      1.0  0.61754  0.25556  0.50321  1.0000
  H   H550      1.0  0.33990  0.24373  0.77565  1.0000
  H   H551      1.0  0.38917  0.44731  0.71638  1.0000
  C   C542      1.0  0.61871  0.41930  0.68598  1.0000
  H   H552      1.0  0.32517  0.23969  0.72937  1.0000
  N   N46       1.0  0.43552  0.45835  0.66745  1.0000
  H   H553      1.0  0.54579  0.24705  0.76185  1.0000
  C   C543      1.0  0.62944  0.39444  0.67289  1.0000
  H   H554      1.0  0.63862  0.43644  0.66917  1.0000
  H   H555      1.0  0.64336  0.28756  0.71949  1.0000
  C   C544      1.0  0.33832  0.30418  0.52078  1.0000
  C   C545      1.0  0.60473  0.30160  0.55300  1.0000
  H   H556      1.0  0.34217  0.42406  0.72869  1.0000
  C   C546      1.0  0.57345  0.29632  0.58215  1.0000
  C   C547      1.0  0.45158  0.45816  0.64766  1.0000
  H   H557      1.0  0.34138  0.45303  0.95911  1.0000
  C   C548      1.0  0.58842  0.29186  0.56191  1.0000
  H   H558      1.0  0.35078  0.31362  0.59507  1.0000
  H   H559      1.0  0.39731  0.44513  0.97135  1.0000
  H   H560      1.0  0.41911  0.44489  0.49606  1.0000
  H   H561      1.0  0.61706  0.45323  0.49908  1.0000
  H   H562      1.0  0.32486  0.39338  0.66621  1.0000
  C   C549      1.0  0.37385  0.46598  0.51570  1.0000
  Fe  Fe100     1.0  0.64874  0.27898  0.58608  1.0000
  H   H563      1.0  0.63147  0.45026  0.72519  1.0000
  H   H564      1.0  0.32144  0.44389  0.70403  1.0000
  C   C550      1.0  0.32211  0.43280  0.69571  1.0000
  S   S195      1.0  0.32626  0.28604  0.62621  1.0000
  H   H565      1.0  0.34402  0.39853  0.70976  1.0000
  Fe  Fe101     1.0  0.61391  0.22046  0.85534  1.0000
  C   C551      1.0  0.35397  0.46121  0.50375  1.0000
  C   C552      1.0  0.32405  0.40441  0.67486  1.0000
  C   C553      1.0  0.34490  0.25242  0.98407  1.0000
  C   C554      1.0  0.32133  0.34670  0.62176  1.0000
  C   C555      1.0  0.61112  0.27870  0.98981  1.0000
  S   S196      1.0  0.63486  0.66123  0.36829  1.0000
  C   C556      1.0  0.35090  0.70692  0.27180  1.0000
  C   C557      1.0  0.52716  0.69230  0.06309  1.0000
  S   S197      1.0  0.64286  0.70859  0.10545  1.0000
  H   H566      1.0  0.47230  0.48748  0.31299  1.0000
  S   S198      1.0  0.59707  0.69015  0.11172  1.0000
  H   H567      1.0  0.60846  0.63682  0.33886  1.0000
  Fe  Fe102     1.0  0.62210  0.70011  0.13997  1.0000
  H   H568      1.0  0.57994  0.67865  0.05568  1.0000
  Fe  Fe103     1.0  0.61611  0.70050  0.07742  1.0000
  S   S199      1.0  0.62563  0.68523  0.04195  1.0000
  H   H569      1.0  0.53132  0.49110  0.28918  1.0000
  Fe  Fe104     1.0  0.36708  0.69686  0.14918  1.0000
  S   S200      1.0  0.37099  0.68388  0.18878  1.0000
  Fe  Fe105     1.0  0.35584  0.69654  0.08824  1.0000
  C   C558      1.0  0.54567  0.67220  0.08851  1.0000
  H   H570      1.0  0.37731  0.54097  0.25642  1.0000
  H   H571      1.0  0.64151  0.64869  0.23850  1.0000
  S   S201      1.0  0.38697  0.69009  0.11214  1.0000
  S   S202      1.0  0.33535  0.70109  0.12583  1.0000
  Fe  Fe106     1.0  0.61237  0.53103  0.35405  1.0000
  S   S203      1.0  0.62348  0.50686  0.34873  1.0000
  S   S204      1.0  0.63755  0.54987  0.34768  1.0000
  Fe  Fe107     1.0  0.56404  0.52240  0.36401  1.0000
  S   S205      1.0  0.57153  0.49818  0.35939  1.0000
  S   S206      1.0  0.52946  0.53272  0.37136  1.0000
  Fe  Fe108     1.0  0.60179  0.50222  0.38542  1.0000
  S   S207      1.0  0.61108  0.48405  0.41683  1.0000
  Fe  Fe109     1.0  0.59230  0.50424  0.32301  1.0000
  S   S208      1.0  0.58298  0.49086  0.28472  1.0000
  S   S209      1.0  0.59304  0.52635  0.39225  1.0000
  S   S210      1.0  0.58268  0.52853  0.32634  1.0000
  Fe  Fe110     1.0  0.37052  0.52672  0.36530  1.0000
  S   S211      1.0  0.34355  0.50958  0.36449  1.0000
  S   S212      1.0  0.36668  0.55223  0.35999  1.0000
  Fe  Fe111     1.0  0.40769  0.50233  0.36433  1.0000
  S   S213      1.0  0.38293  0.48400  0.36301  1.0000
  S   S214      1.0  0.44352  0.49309  0.36420  1.0000
  Fe  Fe112     1.0  0.36437  0.49785  0.33216  1.0000
  S   S215      1.0  0.34763  0.49012  0.29262  1.0000
  Fe  Fe113     1.0  0.36481  0.49689  0.39560  1.0000
  S   S216      1.0  0.35070  0.48324  0.43112  1.0000
  S   S217      1.0  0.39026  0.51549  0.33156  1.0000
  S   S218      1.0  0.39055  0.51469  0.39825  1.0000
  C   C559      1.0  0.62339  0.47798  0.22059  1.0000
  H   H572      1.0  0.43614  0.47711  0.42529  1.0000
  C   C560      1.0  0.35645  0.47923  0.26400  1.0000
  H   H573      1.0  0.32608  0.48447  0.24172  1.0000
  C   C561      1.0  0.59719  0.48185  0.01095  1.0000
  H   H574      1.0  0.54976  0.49138  0.45719  1.0000
  C   C562      1.0  0.61757  0.68893  0.24922  1.0000
  C   C563      1.0  0.36408  0.48253  0.00753  1.0000
  C   C564      1.0  0.33742  0.62760  0.46060  1.0000
  C   C565      1.0  0.63353  0.62438  0.30167  1.0000
  C   C566      1.0  0.34287  0.59533  0.35753  1.0000
  C   C567      1.0  0.57843  0.47646  0.23567  1.0000
  H   H575      1.0  0.48409  0.48346  0.28010  1.0000
  C   C568      1.0  0.39422  0.65174  0.12496  1.0000
  C   C569      1.0  0.60962  0.48129  0.45263  1.0000
  H   H576      1.0  0.54651  0.67767  0.10856  1.0000
  C   C570      1.0  0.64152  0.60029  0.36601  1.0000
  C   C571      1.0  0.60407  0.49271  0.47066  1.0000
  C   C572      1.0  0.33407  0.62289  0.43405  1.0000
  H   H577      1.0  0.60012  0.50367  0.46296  1.0000
  C   C573      1.0  0.59345  0.48348  0.25326  1.0000
  C   C574      1.0  0.61604  0.48419  0.24542  1.0000
  N   N47       1.0  0.34821  0.65617  0.11692  1.0000
  H   H578      1.0  0.36527  0.56471  0.27817  1.0000
  C   C575      1.0  0.34926  0.56857  0.36529  1.0000
  H   H579      1.0  0.32254  0.55799  0.38654  1.0000
  C   C576      1.0  0.36201  0.65330  0.09533  1.0000
  C   C577      1.0  0.50564  0.52153  0.37194  1.0000
  C   C578      1.0  0.50778  0.50615  0.36997  1.0000
  C   C579      1.0  0.48851  0.49756  0.36862  1.0000
  C   C580      1.0  0.46696  0.50427  0.36893  1.0000
  C   C581      1.0  0.46472  0.51962  0.37145  1.0000
  C   C582      1.0  0.48405  0.52822  0.37309  1.0000
  H   H580      1.0  0.52425  0.50088  0.36921  1.0000
  H   H581      1.0  0.49034  0.48568  0.36679  1.0000
  H   H582      1.0  0.44815  0.52488  0.37177  1.0000
  H   H583      1.0  0.48227  0.54012  0.37472  1.0000
  H   H584      1.0  0.60206  0.69239  0.25906  1.0000
  C   C583      1.0  0.53324  0.51456  0.29382  1.0000
  H   H585      1.0  0.37251  0.58272  0.34502  1.0000
  C   C584      1.0  0.33571  0.52874  0.29708  1.0000
  C   C585      1.0  0.36042  0.71613  0.22760  1.0000
  C   C586      1.0  0.55157  0.48121  0.46879  1.0000
  C   C587      1.0  0.35522  0.68836  0.00763  1.0000
  C   C588      1.0  0.33983  0.68028  0.02256  1.0000
  H   H586      1.0  0.53052  0.53793  0.30183  1.0000
  C   C589      1.0  0.35644  0.68781  0.46420  1.0000
  C   C590      1.0  0.38519  0.65103  0.09901  1.0000
  S   S219      1.0  0.32918  0.65166  0.35279  1.0000
  H   H587      1.0  0.62791  0.48949  0.25853  1.0000
  H   H588      1.0  0.36958  0.69304  0.45286  1.0000
  C   C591      1.0  0.58574  0.47034  0.21075  1.0000
  C   C592      1.0  0.34331  0.67058  0.25988  1.0000
  C   C593      1.0  0.35839  0.67323  0.23850  1.0000
  C   C594      1.0  0.35095  0.68003  0.21436  1.0000
  H   H589      1.0  0.55096  0.51472  0.28868  1.0000
  H   H590      1.0  0.49800  0.69594  0.14336  1.0000
  H   H591      1.0  0.59526  0.48492  0.03191  1.0000
  C   C595      1.0  0.52728  0.70371  0.04398  1.0000
  H   H592      1.0  0.38696  0.65577  0.16700  1.0000
  C   C596      1.0  0.46935  0.70672  0.12382  1.0000
  C   C597      1.0  0.35679  0.55458  0.28291  1.0000
  C   C598      1.0  0.35638  0.58225  0.35506  1.0000
  C   C599      1.0  0.63944  0.64177  0.25622  1.0000
  H   H593      1.0  0.37312  0.65514  0.44945  1.0000
  H   H594      1.0  0.32207  0.68893  0.19307  1.0000
  H   H595      1.0  0.40753  0.48347  0.41991  1.0000
  C   C600      1.0  0.63822  0.56936  0.35476  1.0000
  C   C601      1.0  0.62153  0.57681  0.36983  1.0000
  C   C602      1.0  0.62322  0.59211  0.37541  1.0000
  H   H596      1.0  0.60731  0.57081  0.37728  1.0000
  H   H597      1.0  0.61017  0.59765  0.38712  1.0000
  C   C603      1.0  0.63536  0.68282  0.26480  1.0000
  C   C604      1.0  0.61963  0.69063  0.22100  1.0000
  C   C605      1.0  0.63952  0.68613  0.20797  1.0000
  C   C606      1.0  0.41918  0.47367  0.41885  1.0000
  H   H598      1.0  0.64093  0.47859  0.21499  1.0000
  H   H599      1.0  0.36692  0.69535  0.01795  1.0000
  H   H600      1.0  0.38904  0.49065  0.46638  1.0000
  C   C607      1.0  0.34520  0.62986  0.41300  1.0000
  C   C608      1.0  0.36360  0.54127  0.27086  1.0000
  C   C609      1.0  0.54670  0.70596  0.02887  1.0000
  C   C610      1.0  0.32844  0.71095  0.26701  1.0000
  C   C611      1.0  0.35933  0.64151  0.41863  1.0000
  H   H601      1.0  0.63691  0.70871  0.47317  1.0000
  C   C612      1.0  0.32243  0.71761  0.24240  1.0000
  C   C613      1.0  0.38006  0.65476  0.14680  1.0000
  N   N48       1.0  0.62095  0.63715  0.29841  1.0000
  H   H602      1.0  0.38440  0.70591  0.25508  1.0000
  H   H603      1.0  0.60294  0.65368  0.32082  1.0000
  H   H604      1.0  0.52050  0.49160  0.06906  1.0000
  H   H605      1.0  0.64215  0.66479  0.00214  1.0000
  H   H606      1.0  0.49900  0.47805  0.31068  1.0000
  C   C614      1.0  0.49880  0.52727  0.30683  1.0000
  H   H607      1.0  0.54717  0.71490  0.01427  1.0000
  S   S220      1.0  0.64241  0.61973  0.37342  1.0000
  H   H608      1.0  0.40898  0.47847  0.04113  1.0000
  H   H609      1.0  0.63876  0.54222  0.44071  1.0000
  C   C615      1.0  0.56562  0.69676  0.03293  1.0000
  H   H610      1.0  0.32868  0.62215  0.47687  1.0000
  C   C616      1.0  0.33931  0.55466  0.30181  1.0000
  H   H611      1.0  0.48977  0.53732  0.31282  1.0000
  S   S221      1.0  0.34208  0.67789  0.41465  1.0000
  S   S222      1.0  0.33813  0.68139  0.05837  1.0000
  C   C617      1.0  0.34203  0.47842  0.24145  1.0000
  C   C618      1.0  0.32810  0.68379  0.21153  1.0000
  H   H612      1.0  0.60585  0.69542  0.20935  1.0000
  C   C619      1.0  0.63743  0.69778  0.48208  1.0000
  H   H613      1.0  0.53000  0.66583  0.08750  1.0000
  C   C620      1.0  0.52167  0.52762  0.30072  1.0000
  C   C621      1.0  0.60836  0.47103  0.20294  1.0000
  H   H614      1.0  0.33451  0.56498  0.31160  1.0000
  C   C622      1.0  0.32831  0.56827  0.37821  1.0000
  H   H615      1.0  0.61678  0.70967  0.00337  1.0000
  H   H616      1.0  0.47022  0.51356  0.31187  1.0000
  C   C623      1.0  0.35960  0.47742  0.46428  1.0000
  C   C624      1.0  0.35699  0.65712  0.14237  1.0000
  N   N49       1.0  0.49964  0.50092  0.30081  1.0000
  C   C625      1.0  0.52196  0.50121  0.29408  1.0000
  C   C626      1.0  0.48791  0.51376  0.30651  1.0000
  H   H617      1.0  0.64744  0.66179  0.46541  1.0000
  C   C627      1.0  0.52429  0.47960  0.07164  1.0000
  H   H618      1.0  0.51222  0.69089  0.07530  1.0000
  C   C628      1.0  0.32183  0.59500  0.37026  1.0000
  S   S223      1.0  0.63146  0.68064  0.30018  1.0000
  C   C629      1.0  0.54504  0.47444  0.00069  1.0000
  H   H619      1.0  0.61295  0.65554  0.27282  1.0000
  C   C630      1.0  0.37921  0.48244  0.47653  1.0000
  H   H620      1.0  0.41222  0.65033  0.12809  1.0000
  C   C631      1.0  0.62330  0.70016  0.99240  1.0000
  H   H621      1.0  0.34625  0.65998  0.15941  1.0000
  H   H622      1.0  0.58732  0.63736  0.31260  1.0000
  C   C632      1.0  0.37702  0.47131  0.26311  1.0000
  H   H623      1.0  0.37602  0.67022  0.24089  1.0000
  H   H624      1.0  0.38836  0.47173  0.28015  1.0000
  H   H625      1.0  0.34868  0.60565  0.34939  1.0000
  H   H626      1.0  0.35825  0.51782  0.26884  1.0000
  H   H627      1.0  0.45710  0.70025  0.13438  1.0000
  H   H628      1.0  0.33672  0.46960  0.20136  1.0000
  H   H629      1.0  0.32791  0.51851  0.30292  1.0000
  Fe  Fe114     1.0  0.57705  0.71178  0.11416  1.0000
  N   N50       1.0  0.35145  0.63898  0.46597  1.0000
  C   C633      1.0  0.48817  0.48678  0.30106  1.0000
  C   C634      1.0  0.53711  0.48107  0.02446  1.0000
  C   C635      1.0  0.33987  0.67999  0.45033  1.0000
  H   H630      1.0  0.35562  0.70131  0.29044  1.0000
  H   H631      1.0  0.34935  0.66558  0.27848  1.0000
  H   H632      1.0  0.39608  0.64908  0.08175  1.0000
  H   H633      1.0  0.53714  0.47820  0.08782  1.0000
  C   C636      1.0  0.56496  0.68554  0.05234  1.0000
  C   C637      1.0  0.62906  0.68712  0.00636  1.0000
  H   H634      1.0  0.36744  0.64738  0.40234  1.0000
  C   C638      1.0  0.36703  0.70951  0.25201  1.0000
  N   N51       1.0  0.54588  0.68345  0.06717  1.0000
  H   H635      1.0  0.37000  0.49095  0.02101  1.0000
  C   C639      1.0  0.49270  0.70431  0.12891  1.0000
  C   C640      1.0  0.63767  0.67494  0.99162  1.0000
  C   C641      1.0  0.62334  0.64562  0.27574  1.0000
  H   H636      1.0  0.58090  0.69843  0.02150  1.0000
  H   H637      1.0  0.56022  0.66428  0.08688  1.0000
  H   H638      1.0  0.50869  0.47425  0.07861  1.0000
  N   N52       1.0  0.53250  0.47264  0.04669  1.0000
  S   S224      1.0  0.64354  0.68843  0.17263  1.0000
  H   H639      1.0  0.63619  0.51641  0.45786  1.0000
  H   H640      1.0  0.53504  0.49300  0.02507  1.0000
  C   C642      1.0  0.64279  0.68545  0.46578  1.0000
  C   C643      1.0  0.32304  0.67323  0.46531  1.0000
  C   C644      1.0  0.60401  0.64143  0.31862  1.0000
  S   S225      1.0  0.53869  0.70850  0.12199  1.0000
  Fe  Fe115     1.0  0.39620  0.71403  0.10891  1.0000
  H   H641      1.0  0.58704  0.69378  0.46991  1.0000
  C   C645      1.0  0.36239  0.64589  0.44539  1.0000
  H   H642      1.0  0.56091  0.47579  0.24130  1.0000
  H   H643      1.0  0.35521  0.65304  0.07501  1.0000
  C   C646      1.0  0.64339  0.67139  0.47763  1.0000
  H   H644      1.0  0.59185  0.50418  0.99598  1.0000
  H   H645      1.0  0.34265  0.62635  0.39233  1.0000
  C   C647      1.0  0.35293  0.52827  0.27783  1.0000
  Fe  Fe116     1.0  0.65415  0.67073  0.33350  1.0000
  C   C648      1.0  0.34799  0.46989  0.21847  1.0000
  C   C649      1.0  0.32408  0.65906  0.11270  1.0000
  H   H646      1.0  0.32277  0.61397  0.42965  1.0000
  C   C650      1.0  0.64526  0.51866  0.43937  1.0000
  N   N53       1.0  0.32905  0.54184  0.30868  1.0000
  H   H647      1.0  0.51256  0.71095  0.04144  1.0000
  C   C651      1.0  0.35837  0.46864  0.01820  1.0000
  H   H648      1.0  0.64888  0.71458  0.24735  1.0000
  C   C652      1.0  0.55761  0.46801  0.45590  1.0000
  H   H649      1.0  0.56072  0.46793  0.43429  1.0000
  C   C653      1.0  0.50919  0.71261  0.11565  1.0000
  H   H650      1.0  0.43752  0.47168  0.04783  1.0000
  C   C654      1.0  0.64679  0.53312  0.42984  1.0000
  S   S226      1.0  0.64826  0.68834  0.43083  1.0000
  C   C655      1.0  0.32490  0.67114  0.00871  1.0000
  H   H651      1.0  0.37289  0.71756  0.21188  1.0000
  C   C656      1.0  0.41947  0.46896  0.04868  1.0000
  C   C657      1.0  0.59523  0.49278  0.99042  1.0000
  C   C658      1.0  0.57936  0.69350  0.48978  1.0000
  H   H652      1.0  0.42061  0.47011  0.39745  1.0000
  H   H653      1.0  0.63103  0.61736  0.31909  1.0000
  C   C659      1.0  0.46189  0.71752  0.10522  1.0000
  C   C660      1.0  0.64987  0.62022  0.28266  1.0000
  H   H654      1.0  0.33036  0.71762  0.18184  1.0000
  H   H655      1.0  0.56848  0.71643  0.48908  1.0000
  H   H656      1.0  0.65368  0.49574  0.43177  1.0000
  C   C661      1.0  0.65293  0.62905  0.25987  1.0000
  H   H657      1.0  0.36645  0.49644  0.97191  1.0000
  C   C662      1.0  0.45116  0.46886  0.62723  1.0000
  C   C663      1.0  0.59117  0.47755  0.72310  1.0000
  S   S227      1.0  0.63497  0.70482  0.62112  1.0000
  H   H658      1.0  0.43339  0.48804  0.61116  1.0000
  S   S228      1.0  0.58431  0.69147  0.61419  1.0000
  C   C664      1.0  0.58036  0.68051  0.50515  1.0000
  Fe  Fe117     1.0  0.60434  0.70205  0.64733  1.0000
  S   S229      1.0  0.60092  0.69391  0.69097  1.0000
  Fe  Fe118     1.0  0.61355  0.69651  0.58686  1.0000
  S   S230      1.0  0.62552  0.67917  0.55602  1.0000
  C   C665      1.0  0.33528  0.67828  0.76580  1.0000
  Fe  Fe119     1.0  0.34908  0.69611  0.63949  1.0000
  H   H659      1.0  0.65021  0.68998  0.68993  1.0000
  Fe  Fe120     1.0  0.35414  0.69477  0.57709  1.0000
  C   C666      1.0  0.59385  0.48338  0.74954  1.0000
  Fe  Fe121     1.0  0.39141  0.70868  0.61233  1.0000
  S   S231      1.0  0.34187  0.67952  0.54344  1.0000
  S   S232      1.0  0.37554  0.68625  0.61185  1.0000
  C   C667      1.0  0.32320  0.67395  0.49377  1.0000
  Fe  Fe122     1.0  0.61026  0.53389  0.85232  1.0000
  S   S233      1.0  0.62472  0.51123  0.86383  1.0000
  S   S234      1.0  0.62961  0.55467  0.83887  1.0000
  Fe  Fe123     1.0  0.56275  0.52136  0.84828  1.0000
  S   S235      1.0  0.57359  0.49823  0.85994  1.0000
  S   S236      1.0  0.52814  0.52768  0.83235  1.0000
  Fe  Fe124     1.0  0.59468  0.50915  0.89188  1.0000
  S   S237      1.0  0.59445  0.50355  0.93779  1.0000
  Fe  Fe125     1.0  0.60243  0.50174  0.83112  1.0000
  S   S238      1.0  0.61501  0.48385  0.80091  1.0000
  S   S239      1.0  0.58147  0.53239  0.88166  1.0000
  S   S240      1.0  0.59036  0.52427  0.81805  1.0000
  Fe  Fe126     1.0  0.36534  0.52420  0.86149  1.0000
  S   S241      1.0  0.34760  0.50242  0.85489  1.0000
  C   C668      1.0  0.59177  0.58912  0.82597  1.0000
  Fe  Fe127     1.0  0.40839  0.50794  0.87969  1.0000
  S   S242      1.0  0.39408  0.48563  0.87389  1.0000
  S   S243      1.0  0.44271  0.50912  0.89907  1.0000
  Fe  Fe128     1.0  0.37965  0.49419  0.83443  1.0000
  S   S244      1.0  0.38757  0.47845  0.79830  1.0000
  Fe  Fe129     1.0  0.36352  0.49501  0.89494  1.0000
  S   S245      1.0  0.34921  0.47885  0.92652  1.0000
  S   S246      1.0  0.39665  0.51605  0.83924  1.0000
  S   S247      1.0  0.37862  0.51722  0.90253  1.0000
  H   H660      1.0  0.55706  0.66045  0.54439  1.0000
  H   H661      1.0  0.39598  0.67069  0.77065  1.0000
  S   S248      1.0  0.33403  0.68167  0.67274  1.0000
  C   C669      1.0  0.63456  0.68870  0.94937  1.0000
  C   C670      1.0  0.34537  0.57799  0.84028  1.0000
  C   C671      1.0  0.36059  0.48129  0.75165  1.0000
  C   C672      1.0  0.38621  0.47678  0.50198  1.0000
  H   H662      1.0  0.35245  0.49071  0.76132  1.0000
  S   S249      1.0  0.64383  0.65989  0.85322  1.0000
  C   C673      1.0  0.34619  0.69116  0.72423  1.0000
  N   N54       1.0  0.55200  0.46864  0.51160  1.0000
  C   C674      1.0  0.60221  0.47434  0.95622  1.0000
  H   H663      1.0  0.33004  0.55862  0.89579  1.0000
  H   H664      1.0  0.40150  0.48069  0.51099  1.0000
  C   C675      1.0  0.59766  0.48917  0.96284  1.0000
  N   N55       1.0  0.49171  0.48800  0.82801  1.0000
  H   H665      1.0  0.45155  0.71490  0.57204  1.0000
  C   C676      1.0  0.36217  0.48568  0.97957  1.0000
  H   H666      1.0  0.57853  0.48235  0.70975  1.0000
  H   H667      1.0  0.63893  0.65879  0.51427  1.0000
  C   C677      1.0  0.61008  0.47721  0.76724  1.0000
  C   C678      1.0  0.43427  0.47989  0.62727  1.0000
  C   C679      1.0  0.45612  0.49026  0.80506  1.0000
  N   N56       1.0  0.57164  0.68024  0.53071  1.0000
  C   C680      1.0  0.34318  0.56569  0.85758  1.0000
  H   H668      1.0  0.62097  0.71092  0.95344  1.0000
  H   H669      1.0  0.33918  0.64446  0.50517  1.0000
  C   C681      1.0  0.50446  0.52318  0.85158  1.0000
  C   C682      1.0  0.50673  0.51757  0.87777  1.0000
  C   C683      1.0  0.48757  0.51353  0.89228  1.0000
  C   C684      1.0  0.46613  0.51488  0.88056  1.0000
  C   C685      1.0  0.46384  0.52049  0.85436  1.0000
  C   C686      1.0  0.48298  0.52473  0.83998  1.0000
  H   H670      1.0  0.52326  0.51638  0.88685  1.0000
  H   H671      1.0  0.48940  0.50921  0.91259  1.0000
  H   H672      1.0  0.44740  0.52147  0.84510  1.0000
  H   H673      1.0  0.48120  0.52903  0.81967  1.0000
  C   C687      1.0  0.34727  0.68940  0.75255  1.0000
  C   C688      1.0  0.48113  0.48311  0.85074  1.0000
  H   H674      1.0  0.36974  0.69429  0.50302  1.0000
  H   H675      1.0  0.52293  0.49186  0.84777  1.0000
  S   S250      1.0  0.35585  0.54821  0.84796  1.0000
  S   S251      1.0  0.63812  0.69037  0.91379  1.0000
  H   H676      1.0  0.42707  0.48447  0.82833  1.0000
  C   C689      1.0  0.60068  0.60263  0.81812  1.0000
  H   H677      1.0  0.37066  0.64986  0.76299  1.0000
  C   C690      1.0  0.35385  0.47512  0.96178  1.0000
  H   H678      1.0  0.35404  0.57655  0.82124  1.0000
  H   H679      1.0  0.61726  0.51221  0.76933  1.0000
  H   H680      1.0  0.63277  0.62616  0.82968  1.0000
  H   H681      1.0  0.37224  0.65868  0.67788  1.0000
  H   H682      1.0  0.52191  0.49754  0.81341  1.0000
  H   H683      1.0  0.47105  0.70908  0.65487  1.0000
  C   C691      1.0  0.32505  0.59431  0.87176  1.0000
  C   C692      1.0  0.49841  0.71231  0.62682  1.0000
  H   H684      1.0  0.55656  0.47904  0.54967  1.0000
  C   C693      1.0  0.62575  0.70085  0.96405  1.0000
  C   C694      1.0  0.50466  0.71489  0.59994  1.0000
  C   C695      1.0  0.35538  0.64328  0.49406  1.0000
  C   C696      1.0  0.37080  0.65240  0.71966  1.0000
  C   C697      1.0  0.56906  0.70620  0.50058  1.0000
  S   S252      1.0  0.60754  0.47303  0.54531  1.0000
  H   H685      1.0  0.63815  0.50398  0.74750  1.0000
  H   H686      1.0  0.60865  0.63672  0.84147  1.0000
  C   C698      1.0  0.37779  0.47343  0.76527  1.0000
  H   H687      1.0  0.64102  0.59393  0.90739  1.0000
  C   C699      1.0  0.63854  0.66973  0.50537  1.0000
  C   C700      1.0  0.63889  0.57215  0.85122  1.0000
  C   C701      1.0  0.63654  0.57651  0.87821  1.0000
  C   C702      1.0  0.37845  0.66089  0.69805  1.0000
  H   H688      1.0  0.62946  0.56897  0.89270  1.0000
  S   S253      1.0  0.33952  0.65221  0.86817  1.0000
  C   C703      1.0  0.35400  0.47707  0.72533  1.0000
  C   C704      1.0  0.65228  0.67967  0.75668  1.0000
  C   C705      1.0  0.62115  0.68771  0.71527  1.0000
  C   C706      1.0  0.61373  0.68397  0.74135  1.0000
  C   C707      1.0  0.62917  0.68003  0.76197  1.0000
  H   H689      1.0  0.59589  0.68426  0.74570  1.0000
  H   H690      1.0  0.62321  0.67733  0.78197  1.0000
  C   C708      1.0  0.60813  0.47569  0.50944  1.0000
  H   H691      1.0  0.53078  0.46876  0.54611  1.0000
  C   C709      1.0  0.64424  0.68718  0.70987  1.0000
  C   C710      1.0  0.63299  0.68205  0.52162  1.0000
  S   S254      1.0  0.34070  0.67481  0.80068  1.0000
  C   C711      1.0  0.51632  0.48882  0.82759  1.0000
  S   S255      1.0  0.37141  0.71666  0.57573  1.0000
  N   N57       1.0  0.40674  0.55718  0.88165  1.0000
  C   C712      1.0  0.41957  0.54642  0.89416  1.0000
  C   C713      1.0  0.39064  0.56501  0.89578  1.0000
  C   C714      1.0  0.41624  0.54309  0.92143  1.0000
  C   C715      1.0  0.38658  0.56181  0.92295  1.0000
  C   C716      1.0  0.39946  0.55074  0.93580  1.0000
  C   C717      1.0  0.41023  0.56006  0.85283  1.0000
  H   H692      1.0  0.43226  0.54017  0.88296  1.0000
  H   H693      1.0  0.38052  0.57360  0.88597  1.0000
  C   C718      1.0  0.45773  0.48180  0.85122  1.0000
  H   H694      1.0  0.37330  0.56775  0.93376  1.0000
  H   H695      1.0  0.44635  0.49313  0.78719  1.0000
  H   H696      1.0  0.39867  0.56899  0.84513  1.0000
  H   H697      1.0  0.42785  0.56325  0.84906  1.0000
  H   H698      1.0  0.40654  0.54997  0.84105  1.0000
  H   H699      1.0  0.58005  0.57619  0.85944  1.0000
  C   C719      1.0  0.55966  0.70572  0.52635  1.0000
  C   C720      1.0  0.64062  0.67575  0.96339  1.0000
  H   H700      1.0  0.42620  0.53432  0.93106  1.0000
  H   H701      1.0  0.60251  0.61965  0.87821  1.0000
  C   C721      1.0  0.47541  0.71094  0.63396  1.0000
  H   H702      1.0  0.39628  0.54797  0.95675  1.0000
  C   C722      1.0  0.64316  0.59073  0.88650  1.0000
  C   C723      1.0  0.56102  0.69254  0.54118  1.0000
  H   H703      1.0  0.59004  0.58024  0.81150  1.0000
  C   C724      1.0  0.39164  0.66758  0.75019  1.0000
  C   C725      1.0  0.63255  0.69611  0.50980  1.0000
  H   H704      1.0  0.46358  0.46835  0.61117  1.0000
  H   H705      1.0  0.60567  0.60415  0.79727  1.0000
  H   H706      1.0  0.35894  0.64371  0.71620  1.0000
  C   C726      1.0  0.33193  0.56787  0.88216  1.0000
  H   H707      1.0  0.62824  0.70569  0.52194  1.0000
  H   H708      1.0  0.40240  0.67504  0.66140  1.0000
  H   H709      1.0  0.57570  0.66906  0.56831  1.0000
  C   C727      1.0  0.33649  0.59217  0.84730  1.0000
  S   S256      1.0  0.32653  0.70292  0.60481  1.0000
  H   H710      1.0  0.35792  0.69646  0.76425  1.0000
  C   C728      1.0  0.58616  0.58683  0.85296  1.0000
  N   N58       1.0  0.60380  0.61358  0.83664  1.0000
  C   C729      1.0  0.37740  0.65583  0.74589  1.0000
  H   H711      1.0  0.36633  0.63487  0.50431  1.0000
  H   H712      1.0  0.36705  0.69406  0.96783  1.0000
  H   H713      1.0  0.40932  0.68532  0.73173  1.0000
  C   C730      1.0  0.33328  0.68167  0.70873  1.0000
  C   C731      1.0  0.61415  0.62738  0.82828  1.0000
  H   H714      1.0  0.58743  0.65940  0.54032  1.0000
  H   H715      1.0  0.64738  0.66630  0.95245  1.0000
  C   C732      1.0  0.39879  0.68180  0.67968  1.0000
  H   H716      1.0  0.52400  0.47803  0.82145  1.0000
  C   C733      1.0  0.39898  0.67584  0.72810  1.0000
  C   C734      1.0  0.58960  0.59800  0.87176  1.0000
  H   H717      1.0  0.41416  0.68811  0.68403  1.0000
  N   N59       1.0  0.39243  0.67240  0.70243  1.0000
  H   H718      1.0  0.38474  0.68975  0.67499  1.0000
  C   C735      1.0  0.54894  0.46903  0.54093  1.0000
  H   H719      1.0  0.34082  0.48339  0.71511  1.0000
  H   H720      1.0  0.59972  0.49896  0.51250  1.0000
  C   C736      1.0  0.60368  0.48996  0.49881  1.0000
  H   H721      1.0  0.63561  0.52377  0.74981  1.0000
  H   H722      1.0  0.55377  0.69229  0.56128  1.0000
  H   H723      1.0  0.35587  0.69955  0.71437  1.0000
  H   H724      1.0  0.58620  0.59610  0.89298  1.0000
  C   C737      1.0  0.32158  0.66922  0.75040  1.0000
  H   H725      1.0  0.36358  0.65416  0.49543  1.0000
  S   S257      1.0  0.42910  0.71033  0.62508  1.0000
  H   H726      1.0  0.58327  0.49256  0.75622  1.0000
  C   C738      1.0  0.47955  0.49148  0.80528  1.0000
  C   C739      1.0  0.34004  0.68150  0.50770  1.0000
  C   C740      1.0  0.35527  0.68758  0.97918  1.0000
  C   C741      1.0  0.59872  0.61133  0.86325  1.0000
  C   C742      1.0  0.45808  0.71186  0.61445  1.0000
  C   C743      1.0  0.57286  0.66656  0.54663  1.0000
  C   C744      1.0  0.65207  0.60093  0.86804  1.0000
  H   H727      1.0  0.60423  0.47127  0.93526  1.0000
  S   S258      1.0  0.33914  0.67968  0.92938  1.0000
  H   H728      1.0  0.40465  0.48846  0.64777  1.0000
  H   H729      1.0  0.48794  0.49538  0.78729  1.0000
  C   C745      1.0  0.44522  0.48538  0.82820  1.0000
  C   C746      1.0  0.33999  0.67874  0.96528  1.0000
  H   H730      1.0  0.49069  0.48055  0.86889  1.0000
  C   C747      1.0  0.41819  0.48016  0.64781  1.0000
  H   H731      1.0  0.51130  0.71153  0.64221  1.0000
  H   H732      1.0  0.64340  0.53580  0.79416  1.0000
  H   H733      1.0  0.33839  0.60141  0.83367  1.0000
  C   C748      1.0  0.63467  0.51333  0.76155  1.0000
  H   H734      1.0  0.44927  0.47840  0.86954  1.0000
  H   H735      1.0  0.60948  0.63043  0.80723  1.0000
  H   H736      1.0  0.54459  0.49168  0.50684  1.0000
  C   C749      1.0  0.46435  0.71428  0.58753  1.0000
  C   C750      1.0  0.54879  0.48132  0.49685  1.0000
  C   C751      1.0  0.64840  0.58219  0.83291  1.0000
  C   C752      1.0  0.32285  0.58201  0.88904  1.0000
  C   C753      1.0  0.32495  0.67037  0.98025  1.0000
  H   H737      1.0  0.65053  0.57900  0.81203  1.0000
  Fe  Fe130     1.0  0.57062  0.71428  0.60457  1.0000
  N   N60       1.0  0.65053  0.51321  0.78424  1.0000
  C   C754      1.0  0.65288  0.52575  0.79923  1.0000
  C   C755      1.0  0.48731  0.71589  0.58046  1.0000
  H   H738      1.0  0.32407  0.71478  0.93117  1.0000
  C   C756      1.0  0.35649  0.68863  0.49268  1.0000
  H   H739      1.0  0.58882  0.67078  0.49683  1.0000
  H   H740      1.0  0.63999  0.71409  0.75750  1.0000
  H   H741      1.0  0.55159  0.71551  0.53504  1.0000
  H   H742      1.0  0.60034  0.71367  0.75666  1.0000
  H   H743      1.0  0.54926  0.48116  0.98330  1.0000
  S   S259      1.0  0.53350  0.71728  0.58948  1.0000
  H   H744      1.0  0.40599  0.46920  0.68309  1.0000
  C   C757      1.0  0.41905  0.46922  0.66783  1.0000
  H   H745      1.0  0.49169  0.71785  0.55959  1.0000
  Fe  Fe131     1.0  0.62151  0.72922  0.10880  1.0000
  H   H746      1.0  0.61956  0.73471  0.24743  1.0000
  S   S260      1.0  0.37763  0.72050  0.14715  1.0000
  H   H747      1.0  0.47309  0.73420  0.07754  1.0000
  Fe  Fe132     1.0  0.34629  0.72454  0.12164  1.0000
  S   S261      1.0  0.59529  0.72174  0.07845  1.0000
  C   C758      1.0  0.33177  0.72654  0.19703  1.0000
  H   H748      1.0  0.51396  0.72995  0.08660  1.0000
  S   S262      1.0  0.60153  0.72113  0.14460  1.0000
  S   S263      1.0  0.63758  0.75203  0.11175  1.0000
  S   S264      1.0  0.43247  0.72115  0.09754  1.0000
  S   S265      1.0  0.36553  0.72027  0.08280  1.0000
  H   H749      1.0  0.64756  0.78091  0.12859  1.0000
  C   C759      1.0  0.47842  0.72577  0.09188  1.0000
  C   C760      1.0  0.64683  0.72183  0.22996  1.0000
  C   C761      1.0  0.50174  0.72338  0.09701  1.0000
  C   C762      1.0  0.63035  0.73310  0.22996  1.0000
  H   H750      1.0  0.63940  0.74689  0.16731  1.0000
  C   C763      1.0  0.64154  0.73975  0.18480  1.0000
  C   C764      1.0  0.62773  0.74220  0.20730  1.0000
  H   H751      1.0  0.61497  0.75100  0.20698  1.0000
  H   H752      1.0  0.34435  0.73451  0.18973  1.0000
  H   H753      1.0  0.33851  0.72676  0.01303  1.0000
  N   N61       1.0  0.33840  0.72024  0.22321  1.0000
  C   C765      1.0  0.32820  0.72109  0.99844  1.0000
  Fe  Fe133     1.0  0.61948  0.72707  0.61079  1.0000
  H   H754      1.0  0.59245  0.73272  0.74933  1.0000
  C   C766      1.0  0.38438  0.75571  0.65463  1.0000
  C   C767      1.0  0.40667  0.75044  0.65426  1.0000
  H   H755      1.0  0.43387  0.74218  0.62953  1.0000
  N   N62       1.0  0.40476  0.74779  0.60606  1.0000
  H   H756      1.0  0.37628  0.75862  0.67358  1.0000
  Fe  Fe134     1.0  0.34432  0.72437  0.60522  1.0000
  H   H757      1.0  0.41685  0.73079  0.58019  1.0000
  H   H758      1.0  0.37305  0.75341  0.58774  1.0000
  C   C768      1.0  0.38281  0.75279  0.60627  1.0000
  H   H759      1.0  0.43269  0.74747  0.57917  1.0000
  C   C769      1.0  0.41548  0.74306  0.58075  1.0000
  C   C770      1.0  0.41666  0.74654  0.62963  1.0000
  H   H760      1.0  0.35488  0.76077  0.63059  1.0000
  H   H761      1.0  0.40572  0.74691  0.56280  1.0000
  C   C771      1.0  0.37237  0.75694  0.63051  1.0000
  H   H762      1.0  0.41608  0.74916  0.67291  1.0000
  S   S266      1.0  0.64079  0.74789  0.60602  1.0000
  S   S267      1.0  0.58957  0.72488  0.63877  1.0000
  N   N63       1.0  0.61999  0.72425  0.72639  1.0000
  C   C772      1.0  0.59860  0.72213  0.74042  1.0000
  H   H763      1.0  0.60414  0.73472  0.69253  1.0000
  S   S268      1.0  0.36550  0.71822  0.64179  1.0000
  C   C773      1.0  0.61990  0.73115  0.70178  1.0000
  S   S269      1.0  0.32485  0.74597  0.59471  1.0000
  S   S270      1.0  0.59920  0.71880  0.57540  1.0000
  C   C774      1.0  0.64005  0.73345  0.68799  1.0000
  C   C775      1.0  0.33282  0.72214  0.97089  1.0000
  H   H764      1.0  0.63983  0.73876  0.66826  1.0000
  C   C776      1.0  0.63987  0.71977  0.73817  1.0000
  H   H765      1.0  0.34675  0.72863  0.96388  1.0000
  H   H766      1.0  0.58579  0.71801  0.72610  1.0000
  Fe  Fe135     1.0  0.85276  0.02574  0.36199  1.0000
  S   S271      1.0  0.84241  0.00171  0.36348  1.0000
  S   S272      1.0  0.83015  0.04599  0.37343  1.0000
  Fe  Fe136     1.0  0.90114  0.01672  0.35036  1.0000
  S   S273      1.0  0.89495  0.99238  0.35113  1.0000
  S   S274      1.0  0.93380  0.02762  0.34009  1.0000
  Fe  Fe137     1.0  0.86428  0.99821  0.32613  1.0000
  S   S275      1.0  0.85275  0.98346  0.29069  1.0000
  Fe  Fe138     1.0  0.87376  0.99713  0.38845  1.0000
  S   S276      1.0  0.88007  0.98083  0.42435  1.0000
  S   S277      1.0  0.87185  0.02246  0.32314  1.0000
  S   S278      1.0  0.88274  0.02123  0.38909  1.0000
  H   H767      1.0  0.93968  0.00722  0.38487  1.0000
  Fe  Fe139     1.0  0.75908  0.15742  0.35423  1.0000
  S   S279      1.0  0.77865  0.17711  0.36554  1.0000
  S   S280      1.0  0.72068  0.15868  0.35004  1.0000
  Fe  Fe140     1.0  0.80217  0.13674  0.35246  1.0000
  S   S281      1.0  0.82413  0.15581  0.36423  1.0000
  S   S282      1.0  0.81966  0.11465  0.33955  1.0000
  Fe  Fe141     1.0  0.79708  0.16199  0.39475  1.0000
  S   S283      1.0  0.79438  0.16762  0.43991  1.0000
  Fe  Fe142     1.0  0.80350  0.16914  0.33384  1.0000
  S   S284      1.0  0.81491  0.18644  0.30316  1.0000
  S   S285      1.0  0.77634  0.14220  0.38443  1.0000
  S   S286      1.0  0.78276  0.15011  0.32094  1.0000
  S   S287      1.0  0.81994  0.20383  0.11478  1.0000
  C   C777      1.0  0.84903  0.98230  0.99206  1.0000
  S   S288      1.0  0.86775  0.18571  0.11023  1.0000
  H   H768      1.0  0.73330  0.16126  0.29387  1.0000
  Fe  Fe143     1.0  0.84353  0.19691  0.08112  1.0000
  S   S289      1.0  0.82325  0.18775  0.04555  1.0000
  Fe  Fe144     1.0  0.84563  0.19446  0.14392  1.0000
  S   S290      1.0  0.83697  0.17804  0.17758  1.0000
  C   C778      1.0  0.65620  0.17394  0.35632  1.0000
  C   C779      1.0  0.69719  0.19488  0.42065  1.0000
  C   C780      1.0  0.83434  0.18015  0.45754  1.0000
  C   C781      1.0  0.81307  0.17503  0.46431  1.0000
  C   C782      1.0  0.86247  0.08161  0.40529  1.0000
  H   H769      1.0  0.79245  0.17916  0.00431  1.0000
  C   C783      1.0  0.76649  0.18390  0.25887  1.0000
  H   H770      1.0  0.84004  0.17953  0.43682  1.0000
  H   H771      1.0  0.88270  0.19866  0.24487  1.0000
  C   C784      1.0  0.86073  0.97082  0.00600  1.0000
  C   C785      1.0  0.82169  0.18379  0.26847  1.0000
  C   C786      1.0  0.82571  0.19622  0.25218  1.0000
  C   C787      1.0  0.83024  0.19473  0.22433  1.0000
  C   C788      1.0  0.83088  0.18073  0.21241  1.0000
  C   C789      1.0  0.82708  0.16828  0.22874  1.0000
  C   C790      1.0  0.82247  0.16978  0.25657  1.0000
  H   H772      1.0  0.82516  0.20712  0.26115  1.0000
  H   H773      1.0  0.83322  0.20441  0.21209  1.0000
  H   H774      1.0  0.82764  0.15738  0.21980  1.0000
  H   H775      1.0  0.81942  0.16010  0.26878  1.0000
  C   C791      1.0  0.82842  0.97681  0.15988  1.0000
  H   H776      1.0  0.74942  0.17902  0.42605  1.0000
  H   H777      1.0  0.68620  0.15833  0.41916  1.0000
  C   C792      1.0  0.88616  0.18140  0.21506  1.0000
  C   C793      1.0  0.67841  0.19586  0.35605  1.0000
  C   C794      1.0  0.69838  0.18682  0.35385  1.0000
  C   C795      1.0  0.69706  0.17130  0.35263  1.0000
  C   C796      1.0  0.67579  0.16507  0.35365  1.0000
  C   C797      1.0  0.88973  0.19550  0.22544  1.0000
  C   C798      1.0  0.72059  0.19378  0.42296  1.0000
  H   H778      1.0  0.71464  0.19186  0.35329  1.0000
  H   H779      1.0  0.67436  0.15319  0.35263  1.0000
  H   H780      1.0  0.97093  0.01171  0.29328  1.0000
  H   H781      1.0  0.84075  0.98012  0.14425  1.0000
  C   C799      1.0  0.82614  0.06479  0.36235  1.0000
  C   C800      1.0  0.83680  0.07042  0.33946  1.0000
  C   C801      1.0  0.83403  0.08555  0.33247  1.0000
  C   C802      1.0  0.82073  0.09537  0.34826  1.0000
  C   C803      1.0  0.80976  0.08968  0.37087  1.0000
  C   C804      1.0  0.81239  0.07452  0.37775  1.0000
  H   H782      1.0  0.84722  0.06314  0.32717  1.0000
  H   H783      1.0  0.84251  0.08974  0.31483  1.0000
  H   H784      1.0  0.79942  0.09698  0.38325  1.0000
  H   H785      1.0  0.80394  0.07034  0.39541  1.0000
  C   C805      1.0  0.86431  0.97756  0.25885  1.0000
  N   N64       1.0  0.75364  0.17874  0.27957  1.0000
  C   C806      1.0  0.88830  0.98104  0.21936  1.0000
  C   C807      1.0  0.88180  0.98490  0.24600  1.0000
  H   H786      1.0  0.90138  0.98714  0.20950  1.0000
  H   H787      1.0  0.88981  0.99389  0.25625  1.0000
  H   H788      1.0  0.86465  0.19011  0.47204  1.0000
  H   H789      1.0  0.90970  0.05977  0.34413  1.0000
  C   C808      1.0  0.85183  0.98370  0.46977  1.0000
  H   H790      1.0  0.90866  0.99754  0.47209  1.0000
  H   H791      1.0  0.74795  0.15337  0.43122  1.0000
  H   H792      1.0  0.84395  0.99312  0.45968  1.0000
  C   C809      1.0  0.95750  0.02221  0.35932  1.0000
  C   C810      1.0  0.92668  0.97882  0.48970  1.0000
  C   C811      1.0  0.95585  0.01171  0.37991  1.0000
  H   H793      1.0  0.73049  0.20366  0.42339  1.0000
  C   C812      1.0  0.77017  0.17539  0.23568  1.0000
  H   H794      1.0  0.79089  0.21240  0.06036  1.0000
  H   H795      1.0  0.87656  0.15717  0.19044  1.0000
  H   H796      1.0  0.74001  0.14558  0.25379  1.0000
  C   C813      1.0  0.83158  0.00314  0.23056  1.0000
  C   C814      1.0  0.84453  0.99722  0.18559  1.0000
  C   C815      1.0  0.84829  0.18615  0.47761  1.0000
  H   H797      1.0  0.72921  0.14722  0.40511  1.0000
  C   C816      1.0  0.72996  0.15266  0.42517  1.0000
  C   C817      1.0  0.81597  0.99197  0.22860  1.0000
  C   C818      1.0  0.97145  0.20023  0.12164  1.0000
  C   C819      1.0  0.84929  0.18093  0.99995  1.0000
  H   H798      1.0  0.67946  0.20775  0.35713  1.0000
  H   H799      1.0  0.90620  0.05058  0.37572  1.0000
  H   H800      1.0  0.73670  0.19659  0.29920  1.0000
  C   C820      1.0  0.87664  0.09641  0.36883  1.0000
  C   C821      1.0  0.86383  0.09525  0.39227  1.0000
  H   H801      1.0  0.87693  0.10684  0.35797  1.0000
  H   H802      1.0  0.85420  0.10478  0.39963  1.0000
  H   H803      1.0  0.96716  0.18987  0.13100  1.0000
  H   H804      1.0  0.76572  0.19331  0.30957  1.0000
  N   N65       1.0  0.89414  0.17752  0.19008  1.0000
  S   S291      1.0  0.86425  0.21567  0.14765  1.0000
  C   C822      1.0  0.86910  0.97566  0.45672  1.0000
  C   C823      1.0  0.74736  0.15640  0.25488  1.0000
  C   C824      1.0  0.81496  0.98360  0.20493  1.0000
  H   H805      1.0  0.86388  0.18357  0.01187  1.0000
  C   C825      1.0  0.88993  0.16284  0.17901  1.0000
  H   H806      1.0  0.95671  0.99340  0.32590  1.0000
  H   H807      1.0  0.85650  0.99889  0.16942  1.0000
  C   C826      1.0  0.69591  0.16826  0.42090  1.0000
  H   H808      1.0  0.87644  0.17372  0.22683  1.0000
  N   N66       1.0  0.71880  0.16728  0.42371  1.0000
  S   S292      1.0  0.92494  0.20461  0.11580  1.0000
  H   H809      1.0  0.72160  0.14562  0.44032  1.0000
  H   H810      1.0  0.89719  0.08471  0.33991  1.0000
  C   C827      1.0  0.88791  0.08382  0.35864  1.0000
  H   H811      1.0  0.90560  0.15590  0.17942  1.0000
  H   H812      1.0  0.85176  0.08045  0.42284  1.0000
  C   C828      1.0  0.97468  0.99409  0.32231  1.0000
  N   N67       1.0  0.88650  0.07049  0.37158  1.0000
  C   C829      1.0  0.87388  0.06925  0.39451  1.0000
  C   C830      1.0  0.74372  0.16531  0.27759  1.0000
  C   C831      1.0  0.97855  0.02797  0.35301  1.0000
  C   C832      1.0  0.89714  0.05718  0.35994  1.0000
  H   H813      1.0  0.87177  0.05852  0.40390  1.0000
  H   H814      1.0  0.88407  0.05025  0.35075  1.0000
  C   C833      1.0  0.84588  0.00586  0.20889  1.0000
  C   C834      1.0  0.73120  0.17980  0.42442  1.0000
  H   H815      1.0  0.76401  0.15463  0.21627  1.0000
  C   C835      1.0  0.82786  0.18192  0.01156  1.0000
  H   H816      1.0  0.78078  0.17942  0.21955  1.0000
  H   H817      1.0  0.81137  0.97729  0.15072  1.0000
  C   C836      1.0  0.90653  0.18718  0.17539  1.0000
  C   C837      1.0  0.74986  0.18797  0.30347  1.0000
  H   H818      1.0  0.80330  0.97462  0.20389  1.0000
  H   H819      1.0  0.82331  0.21247  0.00670  1.0000
  H   H820      1.0  0.91303  0.18404  0.15570  1.0000
  C   C838      1.0  0.76076  0.16148  0.23386  1.0000
  C   C839      1.0  0.91070  0.20130  0.18530  1.0000
  C   C840      1.0  0.95397  0.20981  0.11216  1.0000
  C   C841      1.0  0.98270  0.00441  0.30397  1.0000
  N   N68       1.0  0.82919  0.98625  0.18387  1.0000
  H   H821      1.0  0.88373  0.16390  0.15788  1.0000
  C   C842      1.0  0.91108  0.99068  0.48996  1.0000
  C   C843      1.0  0.97523  0.00689  0.39394  1.0000
  H   H822      1.0  0.77447  0.19451  0.26053  1.0000
  C   C844      1.0  0.68474  0.18206  0.41957  1.0000
  Fe  Fe145     1.0  0.88575  0.20746  0.11257  1.0000
  H   H823      1.0  0.97390  0.99874  0.40984  1.0000
  H   H824      1.0  0.97989  0.03611  0.33710  1.0000
  C   C845      1.0  0.80912  0.17845  0.99558  1.0000
  H   H825      1.0  0.83326  0.00919  0.24934  1.0000
  H   H826      1.0  0.68869  0.20563  0.41904  1.0000
  H   H827      1.0  0.85866  0.01413  0.21066  1.0000
  C   C846      1.0  0.90204  0.20552  0.21037  1.0000
  H   H828      1.0  0.66660  0.18281  0.41681  1.0000
  H   H829      1.0  0.90479  0.21655  0.21801  1.0000
  C   C847      1.0  0.87768  0.96968  0.20512  1.0000
  H   H830      1.0  0.83501  0.98794  0.00189  1.0000
  H   H831      1.0  0.93650  0.97684  0.47155  1.0000
  H   H832      1.0  0.92028  0.20900  0.17332  1.0000
  H   H833      1.0  0.98367  0.97756  0.35183  1.0000
  H   H834      1.0  0.80550  0.98939  0.24584  1.0000
  H   H835      1.0  0.74436  0.18129  0.32097  1.0000
  H   H836      1.0  0.97267  0.96795  0.13282  1.0000
  H   H837      1.0  0.78707  0.20975  0.02481  1.0000
  C   C848      1.0  0.65714  0.18937  0.35753  1.0000
  Fe  Fe146     1.0  0.86889  0.03071  0.85377  1.0000
  S   S293      1.0  0.84695  0.01063  0.85896  1.0000
  S   S294      1.0  0.86286  0.05595  0.86096  1.0000
  Fe  Fe147     1.0  0.91014  0.01084  0.84045  1.0000
  S   S295      1.0  0.89099  0.99008  0.84479  1.0000
  S   S296      1.0  0.94607  0.00621  0.82747  1.0000
  Fe  Fe148     1.0  0.86412  0.00184  0.82076  1.0000
  S   S297      1.0  0.84623  0.98982  0.78598  1.0000
  Fe  Fe149     1.0  0.87613  0.00013  0.88260  1.0000
  S   S298      1.0  0.88142  0.98378  0.91837  1.0000
  S   S299      1.0  0.88407  0.02235  0.81452  1.0000
  S   S300      1.0  0.89713  0.02042  0.87923  1.0000
  H   H838      1.0  0.94782  0.02952  0.86753  1.0000
  Fe  Fe150     1.0  0.76922  0.16716  0.85654  1.0000
  S   S301      1.0  0.80192  0.17936  0.85802  1.0000
  S   S302      1.0  0.73946  0.18416  0.86003  1.0000
  Fe  Fe151     1.0  0.79549  0.13694  0.85332  1.0000
  S   S303      1.0  0.82884  0.14777  0.85464  1.0000
  S   S304      1.0  0.79315  0.11154  0.84968  1.0000
  Fe  Fe152     1.0  0.81394  0.16208  0.88772  1.0000
  S   S305      1.0  0.83770  0.16631  0.92328  1.0000
  Fe  Fe153     1.0  0.81386  0.16417  0.82485  1.0000
  S   S306      1.0  0.83652  0.17268  0.79102  1.0000
  S   S307      1.0  0.78096  0.15041  0.88817  1.0000
  S   S308      1.0  0.78087  0.15271  0.82154  1.0000
  Fe  Fe154     1.0  0.89064  0.20836  0.61848  1.0000
  H   H839      1.0  0.79271  0.12464  0.74187  1.0000
  S   S309      1.0  0.87428  0.18700  0.60701  1.0000
  S   S310      1.0  0.92851  0.20596  0.63004  1.0000
  Fe  Fe155     1.0  0.85646  0.20014  0.57419  1.0000
  S   S311      1.0  0.85952  0.19506  0.52901  1.0000
  Fe  Fe156     1.0  0.84556  0.19421  0.63435  1.0000
  S   S312      1.0  0.82445  0.18064  0.66356  1.0000
  C   C849      1.0  0.84126  0.18708  0.50473  1.0000
  H   H840      1.0  0.94873  0.97019  0.61665  1.0000
  C   C850      1.0  0.81171  0.17393  0.96846  1.0000
  C   C851      1.0  0.83318  0.17269  0.95696  1.0000
  N   N69       1.0  0.96245  0.99307  0.91009  1.0000
  C   C852      1.0  0.83714  0.07809  0.92285  1.0000
  H   H841      1.0  0.88926  0.98512  0.55246  1.0000
  H   H842      1.0  0.79715  0.17120  0.95657  1.0000
  C   C853      1.0  0.82003  0.18190  0.51154  1.0000
  H   H843      1.0  0.81442  0.18235  0.53229  1.0000
  C   C854      1.0  0.83206  0.17545  0.75588  1.0000
  C   C855      1.0  0.81308  0.17032  0.74252  1.0000
  C   C856      1.0  0.81112  0.17191  0.71425  1.0000
  C   C857      1.0  0.82789  0.17884  0.69907  1.0000
  C   C858      1.0  0.84667  0.18419  0.71251  1.0000
  C   C859      1.0  0.84877  0.18242  0.74071  1.0000
  H   H844      1.0  0.80009  0.16494  0.75390  1.0000
  H   H845      1.0  0.79649  0.16777  0.70405  1.0000
  H   H846      1.0  0.85971  0.18954  0.70115  1.0000
  H   H847      1.0  0.86357  0.18638  0.75081  1.0000
  C   C860      1.0  0.89769  0.99306  0.51275  1.0000
  C   C861      1.0  0.80771  0.11511  0.91713  1.0000
  C   C862      1.0  0.96194  0.20054  0.54244  1.0000
  C   C863      1.0  0.80604  0.17598  0.49144  1.0000
  C   C864      1.0  0.67183  0.18066  0.84410  1.0000
  C   C865      1.0  0.69506  0.17709  0.84679  1.0000
  C   C866      1.0  0.71028  0.18808  0.85333  1.0000
  C   C867      1.0  0.70186  0.20268  0.85661  1.0000
  C   C868      1.0  0.67865  0.20623  0.85405  1.0000
  H   H848      1.0  0.82232  0.13650  0.92186  1.0000
  H   H849      1.0  0.70113  0.16580  0.84425  1.0000
  H   H850      1.0  0.79817  0.09255  0.91295  1.0000
  S   S313      1.0  0.82616  0.20529  0.60013  1.0000
  C   C869      1.0  0.82846  0.12571  0.79522  1.0000
  C   C870      1.0  0.84352  0.07124  0.85504  1.0000
  C   C871      1.0  0.82074  0.06940  0.84901  1.0000
  C   C872      1.0  0.80578  0.08183  0.84706  1.0000
  C   C873      1.0  0.81325  0.09634  0.85088  1.0000
  C   C874      1.0  0.83611  0.09820  0.85646  1.0000
  C   C875      1.0  0.85102  0.08577  0.85860  1.0000
  H   H851      1.0  0.81453  0.05837  0.84636  1.0000
  H   H852      1.0  0.78819  0.08015  0.84276  1.0000
  H   H853      1.0  0.84225  0.10919  0.85975  1.0000
  H   H854      1.0  0.86854  0.08741  0.86337  1.0000
  H   H855      1.0  0.93540  0.99510  0.88232  1.0000
  C   C876      1.0  0.81145  0.98052  0.88237  1.0000
  H   H856      1.0  0.87641  0.13678  0.73829  1.0000
  H   H857      1.0  0.82986  0.12225  0.81611  1.0000
  H   H858      1.0  0.79098  0.11953  0.91263  1.0000
  H   H859      1.0  0.81450  0.97323  0.81535  1.0000
  C   C877      1.0  0.87318  0.97934  0.95235  1.0000
  H   H860      1.0  0.91870  0.20453  0.57086  1.0000
  H   H861      1.0  0.71339  0.21129  0.86169  1.0000
  C   C878      1.0  0.95677  0.21112  0.62179  1.0000
  H   H862      1.0  0.73121  0.19611  0.92254  1.0000
  C   C879      1.0  0.98541  0.19930  0.54466  1.0000
  C   C880      1.0  0.96790  0.01262  0.84769  1.0000
  C   C881      1.0  0.80764  0.12700  0.75351  1.0000
  C   C882      1.0  0.96445  0.02450  0.86529  1.0000
  H   H863      1.0  0.91508  0.18508  0.56524  1.0000
  H   H864      1.0  0.82492  0.07228  0.90989  1.0000
  H   H865      1.0  0.98018  0.03957  0.89269  1.0000
  H   H866      1.0  0.95462  0.20800  0.52749  1.0000
  N   N70       1.0  0.92890  0.96961  0.51160  1.0000
  H   H867      1.0  0.94699  0.17850  0.59367  1.0000
  C   C883      1.0  0.98108  0.18238  0.58185  1.0000
  H   H868      1.0  0.89206  0.98301  0.76523  1.0000
  C   C884      1.0  0.98277  0.03025  0.87930  1.0000
  C   C885      1.0  0.88761  0.97136  0.72742  1.0000
  H   H869      1.0  0.84599  0.99543  0.95544  1.0000
  H   H870      1.0  0.83570  0.07397  0.94388  1.0000
  C   C886      1.0  0.92392  0.19501  0.55800  1.0000
  N   N71       1.0  0.83314  0.09415  0.92200  1.0000
  C   C887      1.0  0.81191  0.09982  0.91734  1.0000
  C   C888      1.0  0.85050  0.10340  0.92701  1.0000
  H   H871      1.0  0.86731  0.09891  0.93085  1.0000
  C   C889      1.0  0.96897  0.00447  0.92615  1.0000
  S   S314      1.0  0.86267  0.21467  0.64787  1.0000
  C   C890      1.0  0.83133  0.97329  0.89053  1.0000
  H   H872      1.0  0.91814  0.19714  0.53695  1.0000
  H   H873      1.0  0.93373  0.97968  0.90545  1.0000
  C   C891      1.0  0.97503  0.20439  0.63583  1.0000
  H   H874      1.0  0.88486  0.00183  0.51274  1.0000
  C   C892      1.0  0.90018  0.98369  0.53503  1.0000
  C   C893      1.0  0.68042  0.21435  0.92538  1.0000
  C   C894      1.0  0.97817  0.98355  0.89908  1.0000
  H   H875      1.0  0.86860  0.17532  0.96428  1.0000
  H   H876      1.0  0.83158  0.98607  0.50585  1.0000
  N   N72       1.0  0.94843  0.19280  0.55944  1.0000
  C   C895      1.0  0.80924  0.12256  0.78045  1.0000
  H   H877      1.0  0.81541  0.21139  0.53171  1.0000
  C   C896      1.0  0.71308  0.19797  0.92252  1.0000
  C   C897      1.0  0.85695  0.98078  0.75612  1.0000
  C   C898      1.0  0.70377  0.21209  0.92696  1.0000
  H   H878      1.0  0.85771  0.15119  0.72521  1.0000
  C   C899      1.0  0.84486  0.97967  0.49608  1.0000
  H   H879      1.0  0.80316  0.20273  0.75090  1.0000
  C   C900      1.0  0.82545  0.13449  0.74169  1.0000
  H   H880      1.0  0.95661  0.01236  0.93406  1.0000
  H   H881      1.0  0.87018  0.15335  0.75769  1.0000
  H   H882      1.0  0.78630  0.20244  0.70520  1.0000
  C   C901      1.0  0.86307  0.14506  0.74373  1.0000
  C   C902      1.0  0.84687  0.11876  0.92698  1.0000
  H   H883      1.0  0.97473  0.03683  0.80941  1.0000
  C   C903      1.0  0.93863  0.99140  0.90340  1.0000
  C   C904      1.0  0.91599  0.97196  0.53411  1.0000
  C   C905      1.0  0.80904  0.21018  0.73536  1.0000
  C   C906      1.0  0.80536  0.98047  0.85517  1.0000
  C   C907      1.0  0.82532  0.12461  0.92201  1.0000
  C   C908      1.0  0.85523  0.98658  0.96559  1.0000
  H   H884      1.0  0.66027  0.17202  0.83927  1.0000
  H   H885      1.0  0.67262  0.21747  0.85711  1.0000
  H   H886      1.0  0.78969  0.17198  0.49699  1.0000
  C   C909      1.0  0.79956  0.21009  0.70951  1.0000
  H   H887      1.0  0.83639  0.97343  0.91159  1.0000
  H   H888      1.0  0.79019  0.98631  0.84844  1.0000
  C   C910      1.0  0.66338  0.19521  0.84797  1.0000
  N   N73       1.0  0.84413  0.13771  0.75651  1.0000
  H   H889      1.0  0.82412  0.13789  0.72071  1.0000
  C   C911      1.0  0.67573  0.18896  0.91530  1.0000
  C   C912      1.0  0.84578  0.13343  0.78295  1.0000
  C   C913      1.0  0.88002  0.97879  0.75102  1.0000
  H   H890      1.0  0.86048  0.13610  0.79478  1.0000
  C   C914      1.0  0.95769  0.18393  0.57916  1.0000
  H   H891      1.0  0.85413  0.07500  0.91485  1.0000
  H   H892      1.0  0.79562  0.11670  0.78999  1.0000
  C   C915      1.0  0.85191  0.17624  0.97291  1.0000
  H   H893      1.0  0.97167  0.19664  0.65191  1.0000
  C   C916      1.0  0.81921  0.97303  0.83652  1.0000
  H   H894      1.0  0.70618  0.17540  0.91254  1.0000
  C   C917      1.0  0.84171  0.97515  0.73714  1.0000
  H   H895      1.0  0.80100  0.98633  0.89707  1.0000
  H   H896      1.0  0.86062  0.12616  0.93072  1.0000
  H   H897      1.0  0.92735  0.99796  0.91702  1.0000
  H   H898      1.0  0.82383  0.97658  0.74065  1.0000
  H   H899      1.0  0.66499  0.17994  0.90986  1.0000
  H   H900      1.0  0.79370  0.20740  0.65661  1.0000
  C   C918      1.0  0.69898  0.18629  0.91694  1.0000
  H   H901      1.0  0.97753  0.01596  0.78061  1.0000
  H   H902      1.0  0.97303  0.97485  0.88559  1.0000
  N   N74       1.0  0.66679  0.20290  0.91923  1.0000
  H   H903      1.0  0.90548  0.97002  0.72387  1.0000
  C   C919      1.0  0.84471  0.23064  0.01467  1.0000
  H   H904      1.0  0.67710  0.34362  0.02838  1.0000
  Fe  Fe157     1.0  0.68728  0.28155  0.11215  1.0000
  S   S315      1.0  0.66721  0.33758  0.11782  1.0000
  S   S316      1.0  0.71447  0.26285  0.11382  1.0000
  C   C920      1.0  0.65732  0.23931  0.23818  1.0000
  C   C921      1.0  0.70308  0.26350  0.21333  1.0000
  S   S317      1.0  0.67826  0.29957  0.08175  1.0000
  S   S318      1.0  0.67456  0.29503  0.14772  1.0000
  C   C922      1.0  0.68886  0.25570  0.23044  1.0000
  S   S319      1.0  0.82079  0.24724  0.11787  1.0000
  C   C923      1.0  0.82516  0.22258  0.01808  1.0000
  H   H905      1.0  0.77352  0.22539  0.04115  1.0000
  H   H906      1.0  0.69207  0.25569  0.25200  1.0000
  C   C924      1.0  0.69913  0.26350  0.18557  1.0000
  C   C925      1.0  0.68096  0.25589  0.17530  1.0000
  C   C926      1.0  0.74417  0.25894  0.11523  1.0000
  C   C927      1.0  0.75191  0.24407  0.11525  1.0000
  C   C928      1.0  0.77514  0.24030  0.11639  1.0000
  C   C929      1.0  0.79112  0.25137  0.11761  1.0000
  C   C930      1.0  0.78339  0.26624  0.11756  1.0000
  C   C931      1.0  0.76013  0.27002  0.11640  1.0000
  H   H907      1.0  0.73982  0.23537  0.11438  1.0000
  H   H908      1.0  0.78067  0.22881  0.11636  1.0000
  H   H909      1.0  0.79551  0.27494  0.11839  1.0000
  H   H910      1.0  0.75460  0.28151  0.11640  1.0000
  C   C932      1.0  0.66700  0.24827  0.19296  1.0000
  Fe  Fe158     1.0  0.66266  0.31231  0.11682  1.0000
  C   C933      1.0  0.81152  0.23978  0.05065  1.0000
  H   H911      1.0  0.66471  0.22795  0.23997  1.0000
  H   H912      1.0  0.79879  0.24331  0.06506  1.0000
  H   H913      1.0  0.94713  0.23074  0.09275  1.0000
  H   H914      1.0  0.67937  0.33177  0.05790  1.0000
  H   H915      1.0  0.83309  0.25778  0.06037  1.0000
  H   H916      1.0  0.67778  0.25588  0.15374  1.0000
  H   H917      1.0  0.71713  0.26945  0.22147  1.0000
  H   H918      1.0  0.67409  0.36878  0.11133  1.0000
  C   C934      1.0  0.83087  0.24808  0.04787  1.0000
  H   H919      1.0  0.85774  0.22674  0.00089  1.0000
  N   N75       1.0  0.67110  0.24822  0.22016  1.0000
  H   H920      1.0  0.71013  0.26937  0.17196  1.0000
  C   C935      1.0  0.98310  0.22682  0.09772  1.0000
  H   H921      1.0  0.86288  0.24963  0.02785  1.0000
  H   H922      1.0  0.67944  0.35122  0.06216  1.0000
  H   H923      1.0  0.65563  0.41527  0.16778  1.0000
  C   C936      1.0  0.84757  0.24346  0.02975  1.0000
  C   C937      1.0  0.96012  0.22317  0.10017  1.0000
  H   H924      1.0  0.65464  0.26447  0.02704  1.0000
  C   C938      1.0  0.65622  0.36749  0.11436  1.0000
  C   C939      1.0  0.67205  0.34232  0.04980  1.0000
  H   H925      1.0  0.65614  0.24427  0.25868  1.0000
  N   N76       1.0  0.80890  0.22718  0.03596  1.0000
  Fe  Fe159     1.0  0.83941  0.22458  0.11629  1.0000
  S   S320      1.0  0.86237  0.21823  0.08137  1.0000
  H   H926      1.0  0.98736  0.23719  0.08835  1.0000
  C   C940      1.0  0.78904  0.21828  0.04069  1.0000
  C   C941      1.0  0.78876  0.26687  0.55293  1.0000
  H   H927      1.0  0.67321  0.22539  0.92857  1.0000
  Fe  Fe160     1.0  0.69176  0.28543  0.61733  1.0000
  S   S321      1.0  0.66932  0.26595  0.61663  1.0000
  S   S322      1.0  0.73049  0.28314  0.61849  1.0000
  H   H928      1.0  0.84821  0.23618  0.72445  1.0000
  H   H929      1.0  0.66307  0.41989  0.61775  1.0000
  S   S323      1.0  0.67224  0.29813  0.58471  1.0000
  S   S324      1.0  0.67275  0.29680  0.65158  1.0000
  C   C942      1.0  0.80992  0.22262  0.53646  1.0000
  S   S325      1.0  0.82580  0.24792  0.61709  1.0000
  H   H930      1.0  0.84359  0.23055  0.53927  1.0000
  H   H931      1.0  0.94799  0.22655  0.59016  1.0000
  C   C943      1.0  0.83441  0.22889  0.72051  1.0000
  H   H932      1.0  0.76253  0.24378  0.54548  1.0000
  H   H933      1.0  0.78739  0.27278  0.53332  1.0000
  C   C944      1.0  0.75577  0.27190  0.61906  1.0000
  C   C945      1.0  0.75682  0.25647  0.61494  1.0000
  C   C946      1.0  0.77799  0.24863  0.61461  1.0000
  C   C947      1.0  0.79814  0.25620  0.61863  1.0000
  C   C948      1.0  0.79675  0.27147  0.62311  1.0000
  C   C949      1.0  0.77596  0.27919  0.62317  1.0000
  H   H934      1.0  0.74140  0.25066  0.61164  1.0000
  H   H935      1.0  0.77870  0.23687  0.61087  1.0000
  H   H936      1.0  0.81200  0.27751  0.62624  1.0000
  H   H937      1.0  0.77554  0.29102  0.62639  1.0000
  C   C950      1.0  0.82579  0.23341  0.54076  1.0000
  N   N77       1.0  0.67191  0.24159  0.74601  1.0000
  H   H938      1.0  0.67825  0.26045  0.77036  1.0000
  C   C951      1.0  0.66420  0.22748  0.74533  1.0000
  H   H939      1.0  0.77463  0.21796  0.53505  1.0000
  H   H940      1.0  0.69887  0.24549  0.71902  1.0000
  H   H941      1.0  0.68405  0.41397  0.64210  1.0000
  H   H942      1.0  0.66176  0.37698  0.58199  1.0000
  C   C952      1.0  0.65636  0.22852  0.79309  1.0000
  C   C953      1.0  0.78705  0.22633  0.53834  1.0000
  N   N78       1.0  0.80740  0.21914  0.68967  1.0000
  H   H943      1.0  0.67184  0.43234  0.64380  1.0000
  C   C954      1.0  0.68069  0.24831  0.72131  1.0000
  C   C955      1.0  0.82426  0.22871  0.69501  1.0000
  H   H944      1.0  0.67149  0.24446  0.70317  1.0000
  H   H945      1.0  0.77217  0.26760  0.56328  1.0000
  H   H946      1.0  0.83101  0.25614  0.55065  1.0000
  S   S326      1.0  0.87377  0.22126  0.58480  1.0000
  Fe  Fe161     1.0  0.84423  0.22546  0.61279  1.0000
  C   C956      1.0  0.78035  0.24092  0.54427  1.0000
  N   N79       1.0  0.79606  0.25145  0.54854  1.0000
  C   C957      1.0  0.66446  0.24284  0.79366  1.0000
  C   C958      1.0  0.81853  0.24785  0.54693  1.0000
  H   H947      1.0  0.80085  0.27265  0.56607  1.0000
  H   H948      1.0  0.66395  0.22142  0.72648  1.0000
  H   H949      1.0  0.67832  0.26055  0.72156  1.0000
  H   H950      1.0  0.83018  0.23611  0.67939  1.0000
  C   C959      1.0  0.67236  0.24921  0.76982  1.0000
  H   H951      1.0  0.65760  0.39254  0.64591  1.0000
  H   H952      1.0  0.66413  0.24911  0.81231  1.0000
  C   C960      1.0  0.98426  0.22421  0.59452  1.0000
  H   H953      1.0  0.71461  0.22126  0.93104  1.0000
  C   C961      1.0  0.96164  0.22115  0.60112  1.0000
  C   C962      1.0  0.66824  0.42061  0.63928  1.0000
  H   H954      1.0  0.78094  0.22555  0.66305  1.0000
  H   H955      1.0  0.65671  0.24741  0.98781  1.0000
  H   H956      1.0  0.66387  0.35013  0.59299  1.0000
  C   C963      1.0  0.79695  0.21895  0.66289  1.0000
  H   H957      1.0  0.80816  0.22365  0.64735  1.0000
  C   C964      1.0  0.65628  0.22074  0.76884  1.0000
  C   C965      1.0  0.82678  0.21949  0.74074  1.0000
  H   H958      1.0  0.83470  0.21930  0.76050  1.0000
  Fe  Fe162     1.0  0.69917  0.66412  0.36132  1.0000
  H   H959      1.0  0.76182  0.70606  0.41203  1.0000
  S   S327      1.0  0.73777  0.66604  0.36205  1.0000
  S   S328      1.0  0.67580  0.68398  0.36135  1.0000
  C   C966      1.0  0.66640  0.51007  0.40067  1.0000
  C   C967      1.0  0.73254  0.66131  0.43609  1.0000
  C   C968      1.0  0.70939  0.68405  0.43079  1.0000
  S   S329      1.0  0.67844  0.65118  0.33115  1.0000
  S   S330      1.0  0.68277  0.65333  0.39745  1.0000
  S   S331      1.0  0.82665  0.70528  0.36481  1.0000
  C   C969      1.0  0.74886  0.68498  0.42402  1.0000
  N   N80       1.0  0.66824  0.52431  0.39173  1.0000
  C   C970      1.0  0.65814  0.59285  0.35078  1.0000
  H   H960      1.0  0.68244  0.69177  0.00951  1.0000
  C   C971      1.0  0.65727  0.67996  0.22354  1.0000
  H   H961      1.0  0.74789  0.65878  0.44822  1.0000
  C   C972      1.0  0.65516  0.50706  0.42477  1.0000
  Fe  Fe163     1.0  0.66009  0.64209  0.36740  1.0000
  H   H962      1.0  0.69617  0.52069  0.36538  1.0000
  C   C973      1.0  0.76131  0.67808  0.36092  1.0000
  C   C974      1.0  0.75986  0.69342  0.35571  1.0000
  C   C975      1.0  0.77953  0.70213  0.35653  1.0000
  C   C976      1.0  0.80075  0.69555  0.36259  1.0000
  C   C977      1.0  0.80185  0.68030  0.36761  1.0000
  C   C978      1.0  0.78252  0.67172  0.36670  1.0000
  H   H963      1.0  0.74366  0.69855  0.35114  1.0000
  H   H964      1.0  0.69451  0.67791  0.43571  1.0000
  H   H965      1.0  0.81795  0.67499  0.37217  1.0000
  H   H966      1.0  0.78410  0.65997  0.37065  1.0000
  H   H967      1.0  0.73383  0.65521  0.41667  1.0000
  H   H968      1.0  0.66564  0.62602  0.24503  1.0000
  C   C979      1.0  0.67999  0.52709  0.36628  1.0000
  C   C980      1.0  0.72580  0.70707  0.41767  1.0000
  H   H969      1.0  0.76525  0.67943  0.42275  1.0000
  N   N81       1.0  0.73021  0.67721  0.43064  1.0000
  C   C981      1.0  0.65653  0.57754  0.34536  1.0000
  H   H970      1.0  0.68374  0.53899  0.36375  1.0000
  H   H971      1.0  0.65938  0.54705  0.39850  1.0000
  H   H972      1.0  0.67237  0.59886  0.34339  1.0000
  H   H973      1.0  0.66909  0.67363  0.26345  1.0000
  C   C982      1.0  0.70686  0.69905  0.42427  1.0000
  H   H974      1.0  0.66961  0.57199  0.33373  1.0000
  H   H975      1.0  0.67345  0.50093  0.38902  1.0000
  H   H976      1.0  0.66918  0.52393  0.34902  1.0000
  H   H977      1.0  0.71787  0.65718  0.44748  1.0000
  H   H978      1.0  0.69021  0.70431  0.42399  1.0000
  H   H979      1.0  0.67276  0.67647  0.21369  1.0000
  Fe  Fe164     1.0  0.65843  0.67277  0.39606  1.0000
  C   C983      1.0  0.65848  0.53577  0.40588  1.0000
  H   H980      1.0  0.70590  0.67074  0.99186  1.0000
  H   H981      1.0  0.77830  0.71387  0.35248  1.0000
  C   C984      1.0  0.74699  0.70004  0.41776  1.0000
  H   H982      1.0  0.66009  0.61023  0.28572  1.0000
  H   H983      1.0  0.67431  0.71379  0.15743  1.0000
  H   H984      1.0  0.67252  0.71055  0.20684  1.0000
  C   C985      1.0  0.65527  0.67836  0.25178  1.0000
  Fe  Fe165     1.0  0.70697  0.66679  0.87160  1.0000
  S   S332      1.0  0.68283  0.68466  0.85789  1.0000
  S   S333      1.0  0.74128  0.67387  0.88838  1.0000
  C   C986      1.0  0.70756  0.67978  0.95162  1.0000
  C   C987      1.0  0.79387  0.65639  0.86054  1.0000
  H   H985      1.0  0.70552  0.69121  0.91367  1.0000
  S   S334      1.0  0.82361  0.70953  0.84058  1.0000
  S   S335      1.0  0.69700  0.65065  0.83918  1.0000
  S   S336      1.0  0.68226  0.65722  0.90120  1.0000
  H   H986      1.0  0.67829  0.71081  0.90527  1.0000
  C   C988      1.0  0.65968  0.68319  0.73047  1.0000
  H   H987      1.0  0.85910  0.68621  0.86211  1.0000
  H   H988      1.0  0.78566  0.69623  0.81520  1.0000
  H   H989      1.0  0.67090  0.71222  0.97893  1.0000
  H   H990      1.0  0.65937  0.49031  0.78005  1.0000
  H   H991      1.0  0.66873  0.53567  0.83373  1.0000
  H   H992      1.0  0.71778  0.67070  0.94356  1.0000
  N   N82       1.0  0.83086  0.67320  0.87327  1.0000
  C   C989      1.0  0.67599  0.49994  0.81391  1.0000
  C   C990      1.0  0.76105  0.68643  0.87462  1.0000
  C   C991      1.0  0.76426  0.68798  0.84677  1.0000
  C   C992      1.0  0.78279  0.69579  0.83675  1.0000
  C   C993      1.0  0.79811  0.70252  0.85429  1.0000
  C   C994      1.0  0.79408  0.70176  0.88211  1.0000
  C   C995      1.0  0.77589  0.69361  0.89216  1.0000
  H   H993      1.0  0.75317  0.68248  0.83294  1.0000
  C   C996      1.0  0.68137  0.70320  0.97116  1.0000
  C   C997      1.0  0.66187  0.50041  0.79131  1.0000
  H   H994      1.0  0.77368  0.69252  0.91374  1.0000
  Fe  Fe166     1.0  0.67148  0.66846  0.82659  1.0000
  Fe  Fe167     1.0  0.66974  0.64273  0.86732  1.0000
  H   H995      1.0  0.83545  0.67547  0.83074  1.0000
  H   H996      1.0  0.80279  0.66040  0.81907  1.0000
  H   H997      1.0  0.84337  0.69275  0.89054  1.0000
  H   H998      1.0  0.80555  0.70688  0.89597  1.0000
  C   C998      1.0  0.67865  0.51271  0.82914  1.0000
  S   S337      1.0  0.67271  0.67545  0.78202  1.0000
  N   N83       1.0  0.68723  0.70277  0.94445  1.0000
  H   H999      1.0  0.68921  0.51247  0.84701  1.0000
  H   H1000     1.0  0.86175  0.67650  0.89380  1.0000
  C   C999      1.0  0.80727  0.66204  0.84005  1.0000
  C   C1000     1.0  0.79922  0.65912  0.88743  1.0000
  C   C1001     1.0  0.70052  0.69142  0.93472  1.0000
  H   H1001     1.0  0.77882  0.65040  0.85563  1.0000
  H   H1002     1.0  0.78831  0.65527  0.90339  1.0000
  C   C1002     1.0  0.82577  0.67053  0.84681  1.0000
  H   H1003     1.0  0.67752  0.68288  0.72611  1.0000
  C   C1003     1.0  0.84976  0.68255  0.88029  1.0000
  H   H1004     1.0  0.68434  0.48964  0.81989  1.0000
  C   C1004     1.0  0.81791  0.66759  0.89348  1.0000
  H   H1005     1.0  0.82153  0.67008  0.91440  1.0000
  C   C1005     1.0  0.66715  0.52573  0.82170  1.0000
  H   H1006     1.0  0.98007  0.71164  0.84805  1.0000
  C   C1006     1.0  0.70101  0.67986  0.97867  1.0000
  C   C1007     1.0  0.68796  0.69169  0.98861  1.0000
  Fe  Fe168     1.0  0.65776  0.67446  0.88596  1.0000
  C   C1008     1.0  0.65485  0.59645  0.84116  1.0000
  H   H1007     1.0  0.66188  0.60399  0.82667  1.0000
  C   C1009     1.0  0.67989  0.71482  0.92638  1.0000
  S   S338      1.0  0.65804  0.61928  0.87942  1.0000
  H   H1008     1.0  0.67596  0.71784  0.73403  1.0000
  Fe  Fe169     1.0  0.76601  0.78971  0.11455  1.0000
  S   S339      1.0  0.78772  0.76949  0.10819  1.0000
  S   S340      1.0  0.72853  0.78846  0.12579  1.0000
  Fe  Fe170     1.0  0.80612  0.81088  0.10402  1.0000
  S   S341      1.0  0.82991  0.79125  0.09709  1.0000
  S   S342      1.0  0.82038  0.83366  0.09182  1.0000
  Fe  Fe171     1.0  0.80220  0.78146  0.07252  1.0000
  S   S343      1.0  0.80103  0.77053  0.03088  1.0000
  Fe  Fe172     1.0  0.81332  0.78105  0.13360  1.0000
  S   S344      1.0  0.83189  0.76649  0.16489  1.0000
  S   S345      1.0  0.77902  0.80134  0.07769  1.0000
  S   S346      1.0  0.79096  0.80102  0.14191  1.0000
  H   H1009     1.0  0.88375  0.89492  0.09271  1.0000
  S   S347      1.0  0.82403  0.74934  0.36078  1.0000
  Fe  Fe173     1.0  0.89038  0.74287  0.35800  1.0000
  S   S348      1.0  0.87238  0.76510  0.35719  1.0000
  H   H1010     1.0  0.97603  0.95383  0.05038  1.0000
  Fe  Fe174     1.0  0.85010  0.75688  0.39034  1.0000
  S   S349      1.0  0.84486  0.77374  0.42433  1.0000
  Fe  Fe175     1.0  0.84791  0.75580  0.32762  1.0000
  S   S350      1.0  0.83554  0.77126  0.29358  1.0000
  C   C1010     1.0  0.97982  0.93128  0.14421  1.0000
  S   S351      1.0  0.92923  0.74618  0.35571  1.0000
  Fe  Fe176     1.0  0.86054  0.92201  0.10876  1.0000
  S   S352      1.0  0.84679  0.94570  0.11195  1.0000
  S   S353      1.0  0.84137  0.90133  0.12271  1.0000
  Fe  Fe177     1.0  0.90681  0.93275  0.09331  1.0000
  S   S354      1.0  0.94098  0.92503  0.07816  1.0000
  Fe  Fe178     1.0  0.87876  0.95074  0.13449  1.0000
  C   C1011     1.0  0.83361  0.78392  0.47501  1.0000
  Fe  Fe179     1.0  0.86591  0.95026  0.07303  1.0000
  C   C1012     1.0  0.78131  0.75770  0.22483  1.0000
  S   S355      1.0  0.89153  0.92705  0.13325  1.0000
  S   S356      1.0  0.87692  0.92631  0.06852  1.0000
  C   C1013     1.0  0.96403  0.92616  0.10019  1.0000
  H   H1011     1.0  0.91056  0.89650  0.07700  1.0000
  C   C1014     1.0  0.90891  0.77441  0.41426  1.0000
  H   H1012     1.0  0.94437  0.93289  0.13476  1.0000
  C   C1015     1.0  0.78238  0.80404  0.00369  1.0000
  C   C1016     1.0  0.91354  0.74869  0.43000  1.0000
  H   H1013     1.0  0.88495  0.78487  0.29875  1.0000
  C   C1017     1.0  0.98461  0.95718  0.06860  1.0000
  C   C1018     1.0  0.67148  0.72585  0.16096  1.0000
  S   S357      1.0  0.86683  0.73389  0.32613  1.0000
  C   C1019     1.0  0.90663  0.76552  0.29343  1.0000
  C   C1020     1.0  0.88665  0.77798  0.25722  1.0000
  C   C1021     1.0  0.82622  0.85240  0.10110  1.0000
  C   C1022     1.0  0.83727  0.86153  0.08244  1.0000
  C   C1023     1.0  0.84206  0.87642  0.08855  1.0000
  C   C1024     1.0  0.83585  0.88252  0.11353  1.0000
  C   C1025     1.0  0.82483  0.87339  0.13218  1.0000
  C   C1026     1.0  0.82009  0.85849  0.12610  1.0000
  H   H1014     1.0  0.84207  0.85709  0.06299  1.0000
  H   H1015     1.0  0.85017  0.88323  0.07368  1.0000
  H   H1016     1.0  0.81981  0.87789  0.15153  1.0000
  H   H1017     1.0  0.81155  0.85176  0.14073  1.0000
  C   C1027     1.0  0.82122  0.76748  0.00483  1.0000
  S   S358      1.0  0.86892  0.73500  0.39270  1.0000
  C   C1028     1.0  0.82854  0.75781  0.46812  1.0000
  C   C1029     1.0  0.83469  0.77153  0.45786  1.0000
  N   N84       1.0  0.81125  0.81909  0.02217  1.0000
  C   C1030     1.0  0.84367  0.77151  0.00744  1.0000
  H   H1018     1.0  0.84616  0.81713  0.01255  1.0000
  H   H1019     1.0  0.82935  0.74817  0.45523  1.0000
  H   H1020     1.0  0.83833  0.79460  0.46730  1.0000
  H   H1021     1.0  0.84937  0.77629  0.02613  1.0000
  C   C1031     1.0  0.83243  0.76799  0.20066  1.0000
  C   C1032     1.0  0.82399  0.78052  0.21413  1.0000
  C   C1033     1.0  0.82482  0.78119  0.24257  1.0000
  C   C1034     1.0  0.83388  0.76933  0.25793  1.0000
  C   C1035     1.0  0.84206  0.75672  0.24449  1.0000
  C   C1036     1.0  0.84151  0.75613  0.21602  1.0000
  H   H1022     1.0  0.81702  0.78974  0.20263  1.0000
  H   H1023     1.0  0.81855  0.79104  0.25275  1.0000
  H   H1024     1.0  0.84913  0.74753  0.25600  1.0000
  H   H1025     1.0  0.84805  0.74637  0.20580  1.0000
  H   H1026     1.0  0.75142  0.79499  0.17971  1.0000
  H   H1027     1.0  0.94349  0.74757  0.29832  1.0000
  C   C1037     1.0  0.78636  0.74898  0.20234  1.0000
  H   H1028     1.0  0.88131  0.88664  0.14021  1.0000
  C   C1038     1.0  0.74364  0.78711  0.19397  1.0000
  H   H1029     1.0  0.75995  0.83538  0.03161  1.0000
  C   C1039     1.0  0.89227  0.77702  0.28450  1.0000
  C   C1040     1.0  0.68341  0.78346  0.12711  1.0000
  C   C1041     1.0  0.70452  0.77713  0.12080  1.0000
  C   C1042     1.0  0.70545  0.76234  0.11183  1.0000
  C   C1043     1.0  0.68533  0.75417  0.10921  1.0000
  C   C1044     1.0  0.76603  0.81450  0.01160  1.0000
  H   H1030     1.0  0.68225  0.79479  0.13404  1.0000
  H   H1031     1.0  0.72156  0.75722  0.10683  1.0000
  C   C1045     1.0  0.76732  0.77029  0.22182  1.0000
  C   C1046     1.0  0.92966  0.74311  0.28587  1.0000
  C   C1047     1.0  0.89513  0.76737  0.23928  1.0000
  C   C1048     1.0  0.88671  0.75467  0.47464  1.0000
  H   H1032     1.0  0.88799  0.95480  0.00300  1.0000
  C   C1049     1.0  0.97547  0.75083  0.35323  1.0000
  H   H1033     1.0  0.76407  0.77722  0.23928  1.0000
  N   N85       1.0  0.91153  0.89174  0.11932  1.0000
  H   H1034     1.0  0.87506  0.78665  0.25017  1.0000
  C   C1050     1.0  0.89886  0.88951  0.14195  1.0000
  C   C1051     1.0  0.79534  0.82943  0.03000  1.0000
  C   C1052     1.0  0.90814  0.89132  0.16764  1.0000
  H   H1035     1.0  0.90082  0.87842  0.08688  1.0000
  H   H1036     1.0  0.68618  0.74291  0.10199  1.0000
  Fe  Fe180     1.0  0.84374  0.72777  0.36092  1.0000
  C   C1053     1.0  0.90889  0.73732  0.44819  1.0000
  H   H1037     1.0  0.75599  0.76828  0.15553  1.0000
  H   H1038     1.0  0.72711  0.78402  0.18543  1.0000
  H   H1039     1.0  0.91578  0.76992  0.39497  1.0000
  H   H1040     1.0  0.88463  0.77682  0.45906  1.0000
  S   S359      1.0  0.85167  0.96574  0.03936  1.0000
  C   C1054     1.0  0.90125  0.89025  0.09262  1.0000
  H   H1041     1.0  0.94398  0.89648  0.10360  1.0000
  H   H1042     1.0  0.91977  0.73560  0.29878  1.0000
  H   H1043     1.0  0.97063  0.76142  0.34449  1.0000
  H   H1044     1.0  0.91082  0.76479  0.31470  1.0000
  H   H1045     1.0  0.95345  0.96131  0.09010  1.0000
  H   H1046     1.0  0.92108  0.78222  0.42277  1.0000
  S   S360      1.0  0.89680  0.95674  0.09585  1.0000
  H   H1047     1.0  0.78889  0.75503  0.24426  1.0000
  H   H1048     1.0  0.85257  0.95309  0.20802  1.0000
  H   H1049     1.0  0.74836  0.81249  0.00814  1.0000
  C   C1055     1.0  0.93380  0.89498  0.12153  1.0000
  C   C1056     1.0  0.98248  0.96516  0.11499  1.0000
  C   C1057     1.0  0.77724  0.75283  0.17727  1.0000
  H   H1050     1.0  0.79794  0.73955  0.20414  1.0000
  H   H1051     1.0  0.95292  0.71953  0.37798  1.0000
  N   N86       1.0  0.91504  0.75521  0.27570  1.0000
  H   H1052     1.0  0.68786  0.73122  0.16374  1.0000
  H   H1053     1.0  0.93800  0.89678  0.18985  1.0000
  N   N87       1.0  0.75828  0.77391  0.19716  1.0000
  C   C1058     1.0  0.66417  0.76084  0.11514  1.0000
  C   C1059     1.0  0.77252  0.82733  0.02475  1.0000
  H   H1054     1.0  0.89779  0.88999  0.18548  1.0000
  C   C1060     1.0  0.89177  0.76577  0.45608  1.0000
  H   H1055     1.0  0.93753  0.73653  0.26933  1.0000
  C   C1061     1.0  0.66359  0.77552  0.12406  1.0000
  C   C1062     1.0  0.95855  0.74096  0.36078  1.0000
  H   H1056     1.0  0.72404  0.71865  0.41211  1.0000
  H   H1057     1.0  0.81755  0.79820  0.00350  1.0000
  H   H1058     1.0  0.96120  0.89978  0.14849  1.0000
  H   H1059     1.0  0.83863  0.83255  0.03386  1.0000
  H   H1060     1.0  0.83900  0.81417  0.04764  1.0000
  N   N88       1.0  0.90457  0.76262  0.43379  1.0000
  C   C1063     1.0  0.94366  0.89681  0.14690  1.0000
  C   C1064     1.0  0.93065  0.89511  0.17007  1.0000
  C   C1065     1.0  0.66018  0.71961  0.20700  1.0000
  H   H1061     1.0  0.91552  0.72620  0.44466  1.0000
  H   H1062     1.0  0.91547  0.74758  0.23493  1.0000
  C   C1066     1.0  0.96545  0.72736  0.37211  1.0000
  C   C1067     1.0  0.96107  0.93036  0.12711  1.0000
  H   H1063     1.0  0.89293  0.78053  0.40926  1.0000
  H   H1064     1.0  0.78169  0.74642  0.15948  1.0000
  H   H1065     1.0  0.89020  0.76781  0.21816  1.0000
  H   H1066     1.0  0.84070  0.96006  0.25455  1.0000
  C   C1068     1.0  0.76302  0.76534  0.17508  1.0000
  H   H1067     1.0  0.89229  0.95704  0.46060  1.0000
  H   H1068     1.0  0.97749  0.93450  0.16507  1.0000
  H   H1069     1.0  0.92400  0.74621  0.41257  1.0000
  C   C1069     1.0  0.83496  0.82084  0.02929  1.0000
  H   H1070     1.0  0.80017  0.83921  0.04096  1.0000
  C   C1070     1.0  0.90929  0.75592  0.24895  1.0000
  C   C1071     1.0  0.98577  0.92295  0.09044  1.0000
  H   H1071     1.0  0.74056  0.79293  0.21336  1.0000
  C   C1072     1.0  0.86086  0.96191  0.21840  1.0000
  C   C1073     1.0  0.80503  0.80655  0.00915  1.0000
  C   C1074     1.0  0.87898  0.96340  0.47040  1.0000
  S   S361      1.0  0.88456  0.96681  0.17015  1.0000
  H   H1072     1.0  0.66341  0.73043  0.14241  1.0000
  C   C1075     1.0  0.97170  0.96146  0.09101  1.0000
  N   N89       1.0  0.65717  0.72836  0.18467  1.0000
  C   C1076     1.0  0.85417  0.96590  0.24491  1.0000
  C   C1077     1.0  0.89520  0.74033  0.47051  1.0000
  H   H1073     1.0  0.77760  0.79377  0.99425  1.0000
  C   C1078     1.0  0.87881  0.96368  0.99281  1.0000
  H   H1074     1.0  0.83896  0.91142  0.48876  1.0000
  H   H1075     1.0  0.83289  0.96519  0.16552  1.0000
  H   H1076     1.0  0.89103  0.73157  0.48448  1.0000
  Fe  Fe181     1.0  0.76858  0.78182  0.62733  1.0000
  S   S362      1.0  0.79852  0.76700  0.61873  1.0000
  S   S363      1.0  0.74007  0.76683  0.64179  1.0000
  Fe  Fe182     1.0  0.79802  0.80952  0.61713  1.0000
  S   S364      1.0  0.82899  0.79553  0.60746  1.0000
  S   S365      1.0  0.79849  0.83502  0.62231  1.0000
  Fe  Fe183     1.0  0.80553  0.78152  0.58303  1.0000
  S   S366      1.0  0.81093  0.76653  0.54615  1.0000
  Fe  Fe184     1.0  0.81896  0.78210  0.64379  1.0000
  S   S367      1.0  0.84472  0.77188  0.67307  1.0000
  S   S368      1.0  0.77467  0.79608  0.59059  1.0000
  S   S369      1.0  0.78906  0.79639  0.65465  1.0000
  H   H1077     1.0  0.95701  0.75666  0.85755  1.0000
  S   S370      1.0  0.83725  0.74983  0.86424  1.0000
  Fe  Fe185     1.0  0.90000  0.73620  0.85284  1.0000
  S   S371      1.0  0.88983  0.75987  0.86111  1.0000
  C   C1079     1.0  0.75307  0.75401  0.56567  1.0000
  Fe  Fe186     1.0  0.86677  0.75055  0.89275  1.0000
  S   S372      1.0  0.87164  0.76039  0.93480  1.0000
  Fe  Fe187     1.0  0.86127  0.75677  0.83164  1.0000
  S   S373      1.0  0.84575  0.77357  0.80185  1.0000
  C   C1080     1.0  0.79316  0.75370  0.70441  1.0000
  S   S374      1.0  0.87277  0.73369  0.82106  1.0000
  Fe  Fe188     1.0  0.86686  0.91721  0.60321  1.0000
  S   S375      1.0  0.84546  0.93775  0.61301  1.0000
  S   S376      1.0  0.85862  0.89230  0.59879  1.0000
  Fe  Fe189     1.0  0.90831  0.93614  0.59238  1.0000
  S   S377      1.0  0.94306  0.93977  0.57562  1.0000
  Fe  Fe190     1.0  0.87540  0.94545  0.63762  1.0000
  H   H1078     1.0  0.78776  0.76557  0.70386  1.0000
  Fe  Fe191     1.0  0.86216  0.94824  0.57639  1.0000
  H   H1079     1.0  0.71110  0.76402  0.52339  1.0000
  S   S378      1.0  0.89590  0.92447  0.62924  1.0000
  S   S379      1.0  0.88138  0.92753  0.56549  1.0000
  C   C1081     1.0  0.96663  0.93399  0.59483  1.0000
  C   C1082     1.0  0.96430  0.92529  0.61797  1.0000
  N   N90       1.0  0.83864  0.96588  0.84473  1.0000
  H   H1080     1.0  0.94789  0.92151  0.62377  1.0000
  C   C1083     1.0  0.94249  0.95641  0.65131  1.0000
  C   C1084     1.0  0.84930  0.96779  0.71345  1.0000
  H   H1081     1.0  0.83726  0.96364  0.69918  1.0000
  H   H1082     1.0  0.92445  0.95656  0.64800  1.0000
  H   H1083     1.0  0.98204  0.94164  0.69257  1.0000
  C   C1085     1.0  0.82641  0.78266  0.50205  1.0000
  C   C1086     1.0  0.80200  0.92554  0.56978  1.0000
  H   H1084     1.0  0.79589  0.94679  0.55077  1.0000
  C   C1087     1.0  0.81583  0.85068  0.61574  1.0000
  C   C1088     1.0  0.80919  0.86465  0.62607  1.0000
  C   C1089     1.0  0.82208  0.87737  0.62145  1.0000
  C   C1090     1.0  0.84188  0.87644  0.60612  1.0000
  C   C1091     1.0  0.84857  0.86246  0.59582  1.0000
  C   C1092     1.0  0.83578  0.84969  0.60067  1.0000
  H   H1085     1.0  0.79387  0.86566  0.63777  1.0000
  H   H1086     1.0  0.81660  0.88791  0.62973  1.0000
  H   H1087     1.0  0.86379  0.86148  0.58393  1.0000
  H   H1088     1.0  0.84123  0.83915  0.59238  1.0000
  C   C1093     1.0  0.82024  0.76894  0.51230  1.0000
  C   C1094     1.0  0.71996  0.75831  0.53965  1.0000
  C   C1095     1.0  0.82931  0.75898  0.95874  1.0000
  C   C1096     1.0  0.85176  0.76297  0.96135  1.0000
  H   H1089     1.0  0.76412  0.77909  0.54063  1.0000
  H   H1090     1.0  0.84294  0.82214  0.64605  1.0000
  H   H1091     1.0  0.94651  0.93111  0.70102  1.0000
  H   H1092     1.0  0.82361  0.75415  0.94009  1.0000
  H   H1093     1.0  0.92369  0.93460  0.67815  1.0000
  C   C1097     1.0  0.71960  0.74066  0.57621  1.0000
  C   C1098     1.0  0.84414  0.77213  0.70887  1.0000
  C   C1099     1.0  0.85992  0.76333  0.72326  1.0000
  C   C1100     1.0  0.86039  0.76340  0.75172  1.0000
  C   C1101     1.0  0.84532  0.77253  0.76609  1.0000
  C   C1102     1.0  0.82961  0.78140  0.75168  1.0000
  C   C1103     1.0  0.82879  0.78106  0.72324  1.0000
  H   H1094     1.0  0.87194  0.75641  0.71234  1.0000
  H   H1095     1.0  0.87268  0.75661  0.76253  1.0000
  H   H1096     1.0  0.81793  0.78853  0.76264  1.0000
  H   H1097     1.0  0.81660  0.78793  0.71244  1.0000
  C   C1104     1.0  0.97053  0.74844  0.85660  1.0000
  C   C1105     1.0  0.96544  0.73357  0.85254  1.0000
  H   H1098     1.0  0.79078  0.92778  0.58664  1.0000
  N   N91       1.0  0.95179  0.94829  0.67202  1.0000
  C   C1106     1.0  0.92742  0.74812  0.91864  1.0000
  H   H1099     1.0  0.77872  0.74691  0.69840  1.0000
  C   C1107     1.0  0.67763  0.76596  0.60584  1.0000
  C   C1108     1.0  0.69948  0.77036  0.61313  1.0000
  C   C1109     1.0  0.71265  0.76167  0.63083  1.0000
  C   C1110     1.0  0.70375  0.74838  0.64056  1.0000
  H   H1100     1.0  0.82142  0.73736  0.80263  1.0000
  H   H1101     1.0  0.71072  0.73286  0.58869  1.0000
  H   H1102     1.0  0.70589  0.78065  0.60556  1.0000
  H   H1103     1.0  0.71376  0.74149  0.65412  1.0000
  S   S380      1.0  0.88978  0.95731  0.60172  1.0000
  H   H1104     1.0  0.80672  0.75237  0.68905  1.0000
  C   C1111     1.0  0.74202  0.74373  0.58167  1.0000
  H   H1105     1.0  0.81225  0.90380  0.58397  1.0000
  H   H1106     1.0  0.84682  0.81328  0.74451  1.0000
  C   C1112     1.0  0.79834  0.75124  0.77971  1.0000
  H   H1107     1.0  0.86238  0.91053  0.51219  1.0000
  S   S381      1.0  0.87744  0.72679  0.88513  1.0000
  H   H1108     1.0  0.69074  0.74605  0.55148  1.0000
  S   S382      1.0  0.88323  0.95638  0.67890  1.0000
  N   N92       1.0  0.80118  0.74935  0.73140  1.0000
  H   H1109     1.0  0.82562  0.79230  0.51491  1.0000
  H   H1110     1.0  0.88034  0.95021  0.50704  1.0000
  C   C1113     1.0  0.75433  0.77146  0.52795  1.0000
  H   H1111     1.0  0.91751  0.96451  0.55124  1.0000
  N   N93       1.0  0.74203  0.76115  0.54498  1.0000
  H   H1112     1.0  0.77787  0.76380  0.75171  1.0000
  C   C1114     1.0  0.95612  0.96431  0.63373  1.0000
  C   C1115     1.0  0.81404  0.91212  0.56833  1.0000
  H   H1113     1.0  0.83915  0.72619  0.76190  1.0000
  C   C1116     1.0  0.80477  0.93616  0.54966  1.0000
  H   H1114     1.0  0.95197  0.72331  0.91316  1.0000
  C   C1117     1.0  0.81803  0.73882  0.73409  1.0000
  H   H1115     1.0  0.86077  0.96099  0.87777  1.0000
  H   H1116     1.0  0.89871  0.96206  0.95636  1.0000
  H   H1117     1.0  0.69209  0.72387  0.92701  1.0000
  H   H1118     1.0  0.79683  0.75811  0.97809  1.0000
  C   C1118     1.0  0.82838  0.82741  0.68455  1.0000
  N   N94       1.0  0.95197  0.74651  0.92066  1.0000
  H   H1119     1.0  0.81564  0.83491  0.67607  1.0000
  H   H1120     1.0  0.67587  0.73338  0.63975  1.0000
  H   H1121     1.0  0.92096  0.74101  0.90230  1.0000
  H   H1122     1.0  0.67611  0.73035  0.68918  1.0000
  C   C1119     1.0  0.81963  0.93319  0.52836  1.0000
  H   H1123     1.0  0.89076  0.81059  0.65697  1.0000
  C   C1120     1.0  0.82941  0.82498  0.71234  1.0000
  H   H1124     1.0  0.92878  0.94763  0.70463  1.0000
  C   C1121     1.0  0.84595  0.81538  0.72294  1.0000
  H   H1125     1.0  0.81737  0.83051  0.72561  1.0000
  C   C1122     1.0  0.84387  0.82010  0.66765  1.0000
  H   H1126     1.0  0.88259  0.79255  0.66895  1.0000
  H   H1127     1.0  0.74291  0.77837  0.51506  1.0000
  C   C1123     1.0  0.98543  0.73099  0.91945  1.0000
  C   C1124     1.0  0.96201  0.73281  0.91787  1.0000
  N   N95       1.0  0.85980  0.81049  0.67817  1.0000
  H   H1128     1.0  0.75065  0.73845  0.59858  1.0000
  H   H1129     1.0  0.91939  0.74500  0.93801  1.0000
  C   C1125     1.0  0.66037  0.72874  0.69970  1.0000
  C   C1126     1.0  0.86113  0.80821  0.70545  1.0000
  C   C1127     1.0  0.93709  0.93999  0.68995  1.0000
  C   C1128     1.0  0.87635  0.80326  0.66029  1.0000
  C   C1129     1.0  0.85882  0.76926  0.98581  1.0000
  C   C1130     1.0  0.68217  0.74377  0.63261  1.0000
  H   H1130     1.0  0.86867  0.80057  0.64054  1.0000
  S   S383      1.0  0.93699  0.72714  0.85058  1.0000
  S   S384      1.0  0.84626  0.96348  0.54374  1.0000
  H   H1131     1.0  0.87370  0.80056  0.71383  1.0000
  C   C1131     1.0  0.66875  0.75266  0.61552  1.0000
  H   H1132     1.0  0.82610  0.73407  0.71637  1.0000
  H   H1133     1.0  0.95669  0.76942  0.92811  1.0000
  H   H1134     1.0  0.92192  0.75965  0.91360  1.0000
  C   C1132     1.0  0.79117  0.75543  0.75379  1.0000
  C   C1133     1.0  0.98357  0.72317  0.85125  1.0000
  C   C1134     1.0  0.82549  0.73431  0.75972  1.0000
  H   H1135     1.0  0.95777  0.95824  0.52727  1.0000
  C   C1135     1.0  0.81556  0.74058  0.78263  1.0000
  H   H1136     1.0  0.76641  0.76523  0.51481  1.0000
  Fe  Fe192     1.0  0.84921  0.72670  0.85438  1.0000
  C   C1136     1.0  0.70840  0.74807  0.55524  1.0000
  H   H1137     1.0  0.79097  0.75642  0.79747  1.0000
  C   C1137     1.0  0.81416  0.76123  0.98036  1.0000
  H   H1138     1.0  0.82181  0.94158  0.51295  1.0000
  C   C1138     1.0  0.84760  0.91733  0.50524  1.0000
  C   C1139     1.0  0.82896  0.90958  0.54690  1.0000
  N   N96       1.0  0.83188  0.92017  0.52754  1.0000
  H   H1139     1.0  0.87577  0.75715  0.49169  1.0000
  C   C1140     1.0  0.85516  0.96766  0.51000  1.0000
  H   H1140     1.0  0.77051  0.75630  0.57001  1.0000
  C   C1141     1.0  0.84498  0.96616  0.87128  1.0000
  H   H1141     1.0  0.83852  0.89919  0.54624  1.0000
  C   C1142     1.0  0.97453  0.94822  0.67642  1.0000
  C   C1143     1.0  0.98327  0.92151  0.63371  1.0000
  C   C1144     1.0  0.85328  0.95843  0.82486  1.0000
  C   C1145     1.0  0.96466  0.75857  0.92583  1.0000
  C   C1146     1.0  0.87219  0.95947  0.49681  1.0000
  H   H1142     1.0  0.86055  0.94793  0.83312  1.0000
  H   H1143     1.0  0.87616  0.77236  0.98806  1.0000
  H   H1144     1.0  0.81663  0.74587  0.50285  1.0000
  H   H1145     1.0  0.66745  0.77298  0.59268  1.0000
  H   H1146     1.0  0.86713  0.96579  0.81903  1.0000
  H   H1147     1.0  0.85421  0.92783  0.49710  1.0000
  H   H1148     1.0  0.98138  0.91488  0.65172  1.0000
  C   C1147     1.0  0.82136  0.75654  0.49516  1.0000
  C   C1148     1.0  0.87237  0.96580  0.70834  1.0000
  C   C1149     1.0  0.66033  0.72185  0.72494  1.0000
  H   H1149     1.0  0.93597  0.94657  0.51505  1.0000
  H   H1150     1.0  0.95374  0.95590  0.49149  1.0000
  C   C1150     1.0  0.94491  0.95700  0.51117  1.0000
  C   C1151     1.0  0.97937  0.96407  0.63774  1.0000
  H   H1151     1.0  0.84395  0.95579  0.80609  1.0000
  C   C1152     1.0  0.88486  0.96785  0.96623  1.0000
  H   H1152     1.0  0.66287  0.71914  0.93214  1.0000
