data_image0
_chemical_formula_structural       FeS2CSFeC2H2S3C6H8NCH2C2HNC5SH4NH3CHCHFeSCFeS2FeSFeS3CHC4H2FeHC4H3C2HCSH2CSCH2NCHFeSH3CNH2CSHC3HC4HC4H4NH2SHCHSFeHCH3CH3CFeS2FeS2FeHFeS3C2SHCSFeHCSC8H4C5H3CH2C2HCHSHCFeHC2HCNHC2HFeH2NH2CHC2HNCH3C2H2C4S2CFeCSHCH3CS2HSCHSC6H4CH2C3H2NC3H2C2HSHCFeHFeH3CFeH2NC2HCFeCSC2FeS2FeSFe2SFeCS2C2H2CH3NCHC4H2SCH3C2H4CS2HFeC6SC2H2CHCHCHC5H7CFeNCHSC2SCH2NHC4H2CH3CSH2CSN2HSHCSC3HFeS2FeS2FeSFeS3C3H2CHCH3C7H4CHCHC2H5C2HNC2HSC2HCH5CHC3H5C2H4CFeH2CSH3SFeS2FeS2FeSFeS3HNCSC2HC3H5C4H3C6H4C2HCHCHCHC6NH2CHCHFeHC2H2SHC2FeH2CHCHCH3C5HCFeS2FeS2FeSFeS3C3H2CH3CHSHC6H2C4HC2H3C2HFeCH2CHNHCH3NSCFeC3H3CHCH2CHCH2CSC2H2FeS2C2HCS2HSHFeSHC8H4C2NSCHFeCH3C4H4CNH3CH3CSFeS2FeS2FeSFeCS2C2HCSFeNSH2C6H4C2HC3HCH2CH3C2HC2H2CFeCHNHC2SH2SH3C3H3CH3FeCSH3CHCHCHCHSCFeSHFeS2FeHFeS3HSCH2C5H3C7H3NH2C2H2NHCH3CHS2HNC6H2CH2SH2CH2CHCH3C4HCNHCHCNHCHSHCH2FeC4HCHSHS2HFeSHSCFeSCHC6H4CFeH2CSHC2H2FeHNC2H2NC2H3CSCH2
_chemical_formula_sum              "Fe64 S128 C384 H384 N32"
_cell_length_a       35.5419
_cell_length_b       36.9257
_cell_length_c       39.0619
_cell_angle_alpha    90.5053
_cell_angle_beta     90.1326
_cell_angle_gamma    89.1565

_space_group_name_H-M_alt    "P 1"
_space_group_IT_number       1

loop_
  _space_group_symop_operation_xyz
  'x, y, z'

loop_
  _atom_site_type_symbol
  _atom_site_label
  _atom_site_symmetry_multiplicity
  _atom_site_fract_x
  _atom_site_fract_y
  _atom_site_fract_z
  _atom_site_occupancy
  Fe  Fe1       1.0  0.39103  0.20225  0.29397  1.0000
  S   S1        1.0  0.41781  0.24331  0.32847  1.0000
  S   S2        1.0  0.40384  0.21349  0.23815  1.0000
  C   C1        1.0  0.27041  0.16488  0.10010  1.0000
  S   S3        1.0  0.39889  0.08101  0.02902  1.0000
  Fe  Fe2       1.0  0.37190  0.12708  0.05806  1.0000
  C   C2        1.0  0.44046  0.03557  0.09900  1.0000
  C   C3        1.0  0.50403  0.22912  0.22556  1.0000
  H   H1        1.0  0.06883  0.47930  0.06017  1.0000
  H   H2        1.0  0.49736  0.25568  0.33489  1.0000
  S   S4        1.0  0.33793  0.20039  0.32538  1.0000
  S   S5        1.0  0.41833  0.15559  0.32080  1.0000
  S   S6        1.0  0.35336  0.11578  0.11218  1.0000
  C   C4        1.0  0.39102  0.18462  0.20402  1.0000
  C   C5        1.0  0.40504  0.19161  0.17119  1.0000
  C   C6        1.0  0.39452  0.17011  0.14300  1.0000
  C   C7        1.0  0.36948  0.14168  0.14738  1.0000
  C   C8        1.0  0.35596  0.13427  0.18030  1.0000
  C   C9        1.0  0.36683  0.15557  0.20861  1.0000
  H   H3        1.0  0.42379  0.21407  0.16753  1.0000
  H   H4        1.0  0.40530  0.17604  0.11790  1.0000
  H   H5        1.0  0.33664  0.11225  0.18393  1.0000
  H   H6        1.0  0.35588  0.14999  0.23383  1.0000
  H   H7        1.0  0.47635  0.19600  0.27822  1.0000
  H   H8        1.0  0.23980  0.16536  0.10575  1.0000
  H   H9        1.0  0.50749  0.15768  0.27675  1.0000
  H   H10       1.0  0.46798  0.16072  0.24722  1.0000
  N   N1        1.0  0.47318  0.05904  0.10263  1.0000
  C   C10       1.0  0.49982  0.11844  0.10575  1.0000
  H   H11       1.0  0.27768  0.13971  0.08557  1.0000
  H   H12       1.0  0.35792  0.24749  0.06465  1.0000
  C   C11       1.0  0.49030  0.17620  0.26058  1.0000
  C   C12       1.0  0.46859  0.09591  0.10312  1.0000
  H   H13       1.0  0.44073  0.10814  0.10103  1.0000
  N   N2        1.0  0.28146  0.19661  0.08041  1.0000
  C   C13       1.0  0.31755  0.20881  0.08274  1.0000
  C   C14       1.0  0.25638  0.21254  0.05833  1.0000
  C   C15       1.0  0.32907  0.23830  0.06335  1.0000
  C   C16       1.0  0.26685  0.24232  0.03878  1.0000
  C   C17       1.0  0.30339  0.25533  0.04152  1.0000
  S   S7        1.0  0.41493  0.16796  0.04395  1.0000
  H   H14       1.0  0.33771  0.19549  0.09941  1.0000
  H   H15       1.0  0.22815  0.20214  0.05556  1.0000
  H   H16       1.0  0.41357  0.05064  0.10382  1.0000
  H   H17       1.0  0.28547  0.16388  0.12513  1.0000
  N   N3        1.0  0.51358  0.19475  0.23549  1.0000
  H   H18       1.0  0.47987  0.24304  0.23681  1.0000
  H   H19       1.0  0.49614  0.14763  0.10514  1.0000
  H   H20       1.0  0.24712  0.25476  0.02097  1.0000
  C   C18       1.0  0.05103  0.50106  0.05072  1.0000
  H   H21       1.0  0.31221  0.27785  0.02590  1.0000
  C   C19       1.0  0.50842  0.04370  0.10427  1.0000
  H   H22       1.0  0.43959  0.02403  0.07264  1.0000
  Fe  Fe3       1.0  0.23331  0.46792  0.51725  1.0000
  S   S8        1.0  0.20460  0.44020  0.47337  1.0000
  C   C20       1.0  0.44407  0.09566  0.40376  1.0000
  Fe  Fe4       1.0  0.18186  0.43412  0.57113  1.0000
  S   S9        1.0  0.14948  0.40410  0.53077  1.0000
  S   S10       1.0  0.15948  0.44110  0.62502  1.0000
  Fe  Fe5       1.0  0.20646  0.39159  0.50761  1.0000
  S   S11       1.0  0.22280  0.33391  0.49268  1.0000
  Fe  Fe6       1.0  0.15122  0.45585  0.50098  1.0000
  S   S12       1.0  0.10116  0.48164  0.47383  1.0000
  S   S13       1.0  0.23882  0.41855  0.55036  1.0000
  S   S14       1.0  0.18028  0.48634  0.54254  1.0000
  C   C21       1.0  0.35154  0.05161  0.47471  1.0000
  H   H23       1.0  0.47270  0.13999  0.47356  1.0000
  C   C22       1.0  0.34844  0.04465  0.41288  1.0000
  C   C23       1.0  0.34999  0.08231  0.40879  1.0000
  C   C24       1.0  0.35261  0.10466  0.43780  1.0000
  C   C25       1.0  0.35294  0.08934  0.47070  1.0000
  H   H24       1.0  0.35324  0.13373  0.43490  1.0000
  H   H25       1.0  0.35399  0.10675  0.49309  1.0000
  Fe  Fe7       1.0  0.44179  0.19638  0.35709  1.0000
  H   H26       1.0  0.48290  0.02538  0.52844  1.0000
  C   C26       1.0  0.25258  0.32228  0.45792  1.0000
  C   C27       1.0  0.26455  0.28605  0.45365  1.0000
  C   C28       1.0  0.29142  0.27637  0.42858  1.0000
  C   C29       1.0  0.26625  0.34852  0.43579  1.0000
  H   H27       1.0  0.25382  0.26552  0.47050  1.0000
  H   H28       1.0  0.30143  0.24863  0.42635  1.0000
  H   H29       1.0  0.25694  0.37640  0.43855  1.0000
  C   C30       1.0  0.44470  0.03111  0.41290  1.0000
  C   C31       1.0  0.19310  0.37913  0.65104  1.0000
  H   H30       1.0  0.05964  0.42287  0.52959  1.0000
  C   C32       1.0  0.45397  0.07297  0.45977  1.0000
  S   S15       1.0  0.50319  0.18700  0.36902  1.0000
  H   H31       1.0  0.11269  0.51021  0.60592  1.0000
  H   H32       1.0  0.20054  0.37206  0.62495  1.0000
  C   C33       1.0  0.02770  0.50886  0.57889  1.0000
  S   S16       1.0  0.27582  0.51136  0.50848  1.0000
  C   C34       1.0  0.25842  0.51619  0.44032  1.0000
  H   H33       1.0  0.09134  0.29996  0.67678  1.0000
  H   H34       1.0  0.33534  0.45668  0.45286  1.0000
  N   N4        1.0  0.34206  0.35687  0.48185  1.0000
  C   C35       1.0  0.30633  0.30293  0.40747  1.0000
  H   H35       1.0  0.12265  0.33635  0.66540  1.0000
  Fe  Fe8       1.0  0.36825  0.15667  0.35562  1.0000
  S   S17       1.0  0.39384  0.19446  0.39434  1.0000
  H   H36       1.0  0.31777  0.31037  0.50435  1.0000
  H   H37       1.0  0.08647  0.48462  0.63650  1.0000
  H   H38       1.0  0.36730  0.31671  0.51322  1.0000
  C   C36       1.0  0.44068  0.06042  0.39080  1.0000
  N   N5        1.0  0.45113  0.10150  0.43778  1.0000
  H   H39       1.0  0.30244  0.43727  0.50515  1.0000
  H   H40       1.0  0.30388  0.35939  0.39398  1.0000
  C   C37       1.0  0.07130  0.46015  0.57106  1.0000
  S   S18       1.0  0.35095  0.03286  0.51615  1.0000
  H   H41       1.0  0.37707  0.34778  0.43815  1.0000
  C   C38       1.0  0.45340  0.13861  0.45115  1.0000
  C   C39       1.0  0.34499  0.31927  0.49344  1.0000
  C   C40       1.0  0.32128  0.38149  0.50047  1.0000
  H   H42       1.0  0.44027  0.11830  0.38656  1.0000
  C   C41       1.0  0.31886  0.41773  0.49039  1.0000
  C   C42       1.0  0.45147  0.03737  0.44761  1.0000
  C   C43       1.0  0.35887  0.40340  0.44226  1.0000
  C   C44       1.0  0.33757  0.42866  0.46101  1.0000
  H   H43       1.0  0.42492  0.14831  0.45894  1.0000
  C   C45       1.0  0.08394  0.50497  0.61577  1.0000
  C   C46       1.0  0.29283  0.33878  0.41055  1.0000
  C   C47       1.0  0.36115  0.36746  0.45332  1.0000
  C   C48       1.0  0.17370  0.41157  0.65799  1.0000
  H   H44       1.0  0.37313  0.41141  0.41907  1.0000
  H   H45       1.0  0.25954  0.48693  0.43991  1.0000
  H   H46       1.0  0.21686  0.33010  0.67237  1.0000
  H   H47       1.0  0.35160  0.30048  0.47178  1.0000
  N   N6        1.0  0.06018  0.49100  0.58807  1.0000
  H   H48       1.0  0.46462  0.15716  0.43146  1.0000
  H   H49       1.0  0.30593  0.37302  0.52295  1.0000
  S   S19       1.0  0.34498  0.29385  0.38008  1.0000
  H   H50       1.0  0.09713  0.44617  0.57827  1.0000
  C   C49       1.0  0.05005  0.44667  0.54374  1.0000
  H   H51       1.0  0.45798  0.07764  0.48694  1.0000
  S   S20       1.0  0.34848  0.10010  0.36700  1.0000
  Fe  Fe9       1.0  0.36693  0.23846  0.36222  1.0000
  H   H52       1.0  0.43387  0.05607  0.36400  1.0000
  C   C50       1.0  0.51115  0.03108  0.52031  1.0000
  H   H53       1.0  0.04211  0.34649  0.65854  1.0000
  H   H54       1.0  0.50913  0.08655  0.53842  1.0000
  H   H55       1.0  0.41292  0.03336  0.66197  1.0000
  C   C51       1.0  0.34967  0.02932  0.44566  1.0000
  H   H56       1.0  0.16464  0.51235  0.42226  1.0000
  H   H57       1.0  0.34619  0.02727  0.39055  1.0000
  H   H58       1.0  0.37464  0.02588  0.59287  1.0000
  C   C52       1.0  0.20236  0.35545  0.67792  1.0000
  Fe  Fe10      1.0  0.19020  0.31570  0.87243  1.0000
  S   S21       1.0  0.22347  0.35663  0.84288  1.0000
  S   S22       1.0  0.20896  0.26776  0.90488  1.0000
  Fe  Fe11      1.0  0.11473  0.34368  0.84512  1.0000
  S   S23       1.0  0.14145  0.38625  0.81365  1.0000
  S   S24       1.0  0.05142  0.34324  0.84640  1.0000
  Fe  Fe12      1.0  0.18406  0.34387  0.79922  1.0000
  H   H59       1.0  0.10119  0.49815  0.97217  1.0000
  Fe  Fe13      1.0  0.17787  0.39613  0.85963  1.0000
  S   S25       1.0  0.17934  0.45623  0.87018  1.0000
  S   S26       1.0  0.15427  0.29990  0.82724  1.0000
  S   S27       1.0  0.14767  0.35656  0.89255  1.0000
  C   C53       1.0  0.08638  0.43952  0.92027  1.0000
  C   C54       1.0  0.30079  0.20797  0.87001  1.0000
  S   S28       1.0  0.36585  0.23531  0.97761  1.0000
  H   H60       1.0  0.04384  0.28082  0.73508  1.0000
  C   C55       1.0  0.21477  0.51062  0.96993  1.0000
  S   S29       1.0  0.33378  0.06773  0.94367  1.0000
  Fe  Fe14      1.0  0.36427  0.09974  0.98427  1.0000
  H   H61       1.0  0.24221  0.21038  0.85512  1.0000
  C   C56       1.0  0.17476  0.50815  0.91965  1.0000
  S   S30       1.0  0.40780  0.13793  0.96516  1.0000
  C   C57       1.0  0.36646  0.20320  0.88915  1.0000
  C   C58       1.0  0.28336  0.51201  0.90009  1.0000
  C   C59       1.0  0.25237  0.26075  0.92601  1.0000
  C   C60       1.0  0.25786  0.22833  0.94397  1.0000
  C   C61       1.0  0.29264  0.22011  0.95936  1.0000
  C   C62       1.0  0.32205  0.24472  0.95780  1.0000
  C   C63       1.0  0.31641  0.27755  0.94046  1.0000
  C   C64       1.0  0.28176  0.28545  0.92432  1.0000
  H   H62       1.0  0.23528  0.20905  0.94529  1.0000
  H   H63       1.0  0.29652  0.19478  0.97252  1.0000
  H   H64       1.0  0.33900  0.29683  0.93924  1.0000
  H   H65       1.0  0.27780  0.31053  0.91055  1.0000
  C   C65       1.0  0.18985  0.47410  0.91081  1.0000
  C   C66       1.0  0.21591  0.45730  0.93257  1.0000
  C   C67       1.0  0.22872  0.47581  0.96192  1.0000
  C   C68       1.0  0.19263  0.36422  0.71186  1.0000
  C   C69       1.0  0.10652  0.32404  0.68655  1.0000
  H   H66       1.0  0.16708  0.40450  0.74485  1.0000
  H   H67       1.0  0.22781  0.43107  0.92576  1.0000
  H   H68       1.0  0.25038  0.46365  0.97780  1.0000
  C   C70       1.0  0.16420  0.42044  0.69192  1.0000
  H   H69       1.0  0.30609  0.23510  0.86093  1.0000
  H   H70       1.0  0.26542  0.48135  0.85583  1.0000
  C   C71       1.0  0.04826  0.30859  0.78378  1.0000
  C   C72       1.0  0.03048  0.33218  0.80706  1.0000
  H   H71       1.0  0.11462  0.44358  0.91084  1.0000
  C   C73       1.0  0.06005  0.42307  0.89872  1.0000
  H   H72       1.0  0.07570  0.29719  0.78970  1.0000
  S   S31       1.0  0.20218  0.33262  0.74454  1.0000
  H   H73       1.0  0.28037  0.11260  0.90438  1.0000
  C   C74       1.0  0.26457  0.19403  0.86647  1.0000
  Fe  Fe15      1.0  0.37784  0.17904  0.99821  1.0000
  H   H74       1.0  0.13352  0.46011  0.96792  1.0000
  C   C75       1.0  0.04076  0.44547  0.96432  1.0000
  C   C76       1.0  0.32166  0.15420  0.89759  1.0000
  H   H75       1.0  0.38056  0.19341  0.91284  1.0000
  C   C77       1.0  0.25703  0.15964  0.87902  1.0000
  N   N7        1.0  0.32860  0.18829  0.88590  1.0000
  H   H76       1.0  0.06802  0.41439  0.87309  1.0000
  C   C78       1.0  0.08712  0.36709  0.73169  1.0000
  C   C79       1.0  0.10423  0.46829  0.97474  1.0000
  H   H77       1.0  0.38374  0.19515  0.86664  1.0000
  Fe  Fe16      1.0  0.44016  0.12255  0.01240  1.0000
  H   H78       1.0  0.36536  0.23324  0.89139  1.0000
  H   H79       1.0  0.14943  0.44562  0.69749  1.0000
  N   N8        1.0  0.07990  0.35081  0.70083  1.0000
  H   H80       1.0  0.11204  0.35957  0.74621  1.0000
  H   H81       1.0  0.22888  0.14884  0.87700  1.0000
  C   C80       1.0  0.26305  0.50679  0.86988  1.0000
  H   H82       1.0  0.34379  0.13827  0.90972  1.0000
  C   C81       1.0  0.17404  0.39708  0.71881  1.0000
  C   C82       1.0  0.28577  0.13945  0.89452  1.0000
  H   H83       1.0  0.10011  0.46108  0.00203  1.0000
  N   N9        1.0  0.07667  0.45013  0.95276  1.0000
  C   C83       1.0  0.06190  0.39270  0.74550  1.0000
  H   H84       1.0  0.03281  0.45429  0.98982  1.0000
  H   H85       1.0  0.06720  0.40465  0.77049  1.0000
  H   H86       1.0  0.12705  0.31433  0.70614  1.0000
  C   C84       1.0  0.03014  0.29920  0.75298  1.0000
  C   C85       1.0  0.34782  0.02203  0.93877  1.0000
  H   H87       1.0  0.30188  0.49075  0.90959  1.0000
  H   H88       1.0  0.46474  0.04349  0.00759  1.0000
  C   C86       1.0  0.02240  0.38545  0.69568  1.0000
  C   C87       1.0  0.02927  0.40180  0.72737  1.0000
  C   C88       1.0  0.02352  0.41776  0.91047  1.0000
  C   C89       1.0  0.49379  0.03818  0.01409  1.0000
  S   S32       1.0  0.33245  0.14170  0.01503  1.0000
  S   S33       1.0  0.50293  0.11230  0.01562  1.0000
  C   C90       1.0  0.04818  0.35984  0.68273  1.0000
  Fe  Fe17      1.0  0.20748  0.71109  0.31705  1.0000
  C   C91       1.0  0.03677  0.65999  0.18060  1.0000
  S   S34       1.0  0.22676  0.72740  0.26426  1.0000
  H   H89       1.0  0.25627  0.81680  0.32184  1.0000
  C   C92       1.0  0.06689  0.53462  0.04271  1.0000
  H   H90       1.0  0.07489  0.73698  0.25005  1.0000
  H   H91       1.0  0.08370  0.62179  0.09866  1.0000
  H   H92       1.0  0.19564  0.55371  0.25306  1.0000
  C   C93       1.0  0.08682  0.66148  0.13914  1.0000
  S   S35       1.0  0.14461  0.66664  0.05584  1.0000
  S   S36       1.0  0.17760  0.65950  0.32697  1.0000
  H   H93       1.0  0.44207  0.01306  0.11764  1.0000
  S   S37       1.0  0.17686  0.62402  0.14317  1.0000
  C   C94       1.0  0.23453  0.59377  0.27177  1.0000
  H   H94       1.0  0.22781  0.58884  0.29840  1.0000
  S   S38       1.0  0.23080  0.63255  0.04871  1.0000
  C   C95       1.0  0.20911  0.70238  0.22910  1.0000
  C   C96       1.0  0.18053  0.67729  0.23355  1.0000
  C   C97       1.0  0.16948  0.65490  0.20626  1.0000
  C   C98       1.0  0.18644  0.65773  0.17405  1.0000
  C   C99       1.0  0.21368  0.68409  0.16891  1.0000
  C   C100      1.0  0.22508  0.70630  0.19648  1.0000
  H   H95       1.0  0.16708  0.67482  0.25807  1.0000
  H   H96       1.0  0.14836  0.63460  0.21041  1.0000
  H   H97       1.0  0.22710  0.68630  0.14419  1.0000
  H   H98       1.0  0.24700  0.72589  0.19273  1.0000
  C   C101      1.0  0.05724  0.69367  0.32476  1.0000
  H   H99       1.0  0.02321  0.67067  0.20344  1.0000
  H   H100      1.0  0.27452  0.76551  0.02364  1.0000
  C   C102      1.0  0.05912  0.72310  0.26952  1.0000
  C   C103      1.0  0.07767  0.71032  0.29889  1.0000
  C   C104      1.0  0.21640  0.57362  0.24627  1.0000
  H   H101      1.0  0.10760  0.71423  0.30181  1.0000
  H   H102      1.0  0.30957  0.63187  0.29112  1.0000
  N   N10       1.0  0.26008  0.61955  0.26323  1.0000
  C   C105      1.0  0.26861  0.62563  0.22966  1.0000
  C   C106      1.0  0.25148  0.60555  0.20357  1.0000
  C   C107      1.0  0.27948  0.64022  0.28997  1.0000
  H   H103      1.0  0.28821  0.64663  0.22288  1.0000
  H   H104      1.0  0.25746  0.61105  0.17688  1.0000
  C   C108      1.0  0.06993  0.67523  0.16883  1.0000
  C   C109      1.0  0.04409  0.56305  0.03076  1.0000
  H   H105      1.0  0.27733  0.66970  0.28465  1.0000
  S   S39       1.0  0.15956  0.57918  0.06084  1.0000
  H   H106      1.0  0.21049  0.56498  0.19174  1.0000
  C   C110      1.0  0.22497  0.57965  0.21196  1.0000
  Fe  Fe18      1.0  0.18228  0.62927  0.08566  1.0000
  H   H107      1.0  0.51218  0.01451  0.10245  1.0000
  Fe  Fe19      1.0  0.12456  0.61645  0.02906  1.0000
  H   H108      1.0  0.26703  0.63582  0.31563  1.0000
  H   H109      1.0  0.09667  0.53834  0.04596  1.0000
  H   H110      1.0  0.04454  0.78756  0.31713  1.0000
  C   C111      1.0  0.07040  0.63236  0.12176  1.0000
  Fe  Fe20      1.0  0.20363  0.58593  0.02091  1.0000
  H   H111      1.0  0.11268  0.67309  0.12979  1.0000
  H   H112      1.0  0.08243  0.69772  0.18264  1.0000
  N   N11       1.0  0.03808  0.61734  0.13376  1.0000
  C   C112      1.0  0.01850  0.68877  0.32062  1.0000
  C   C113      1.0  0.02026  0.71864  0.26558  1.0000
  H   H113      1.0  0.04280  0.56677  0.10747  1.0000
  C   C114      1.0  0.02102  0.63102  0.16257  1.0000
  Fe  Fe21      1.0  0.19137  0.66683  0.01670  1.0000
  C   C115      1.0  0.02106  0.58736  0.11473  1.0000
  S   S40       1.0  0.06213  0.60652  0.02277  1.0000
  C   C116      1.0  0.02142  0.78122  0.33405  1.0000
  C   C117      1.0  0.50664  0.00228  0.01791  1.0000
  Fe  Fe22      1.0  0.38768  0.89808  0.50127  1.0000
  S   S41       1.0  0.35392  0.92615  0.54314  1.0000
  S   S42       1.0  0.37410  0.85033  0.46625  1.0000
  Fe  Fe23      1.0  0.45628  0.94662  0.51246  1.0000
  S   S43       1.0  0.42804  0.97720  0.55461  1.0000
  Fe  Fe24      1.0  0.20798  0.73242  0.39273  1.0000
  Fe  Fe25      1.0  0.40804  0.92370  0.57348  1.0000
  S   S44       1.0  0.42316  0.91423  0.62924  1.0000
  Fe  Fe26      1.0  0.37745  0.97724  0.52051  1.0000
  C   C118      1.0  0.34924  0.98089  0.66343  1.0000
  S   S45       1.0  0.44031  0.89257  0.53325  1.0000
  S   S46       1.0  0.40695  0.94961  0.47673  1.0000
  C   C119      1.0  0.39452  0.90148  0.66374  1.0000
  C   C120      1.0  0.35663  0.89272  0.65954  1.0000
  H   H114      1.0  0.30891  0.01326  0.57697  1.0000
  H   H115      1.0  0.29468  0.75797  0.41338  1.0000
  C   C121      1.0  0.27229  0.89197  0.40509  1.0000
  H   H116      1.0  0.45438  0.01481  0.46508  1.0000
  H   H117      1.0  0.34392  0.89369  0.63435  1.0000
  H   H118      1.0  0.46676  0.83969  0.63441  1.0000
  N   N12       1.0  0.15253  0.56359  0.44632  1.0000
  C   C122      1.0  0.31178  0.97353  0.65517  1.0000
  H   H119      1.0  0.26831  0.97914  0.61688  1.0000
  C   C123      1.0  0.29706  0.84197  0.47418  1.0000
  C   C124      1.0  0.33064  0.82827  0.46030  1.0000
  C   C125      1.0  0.32956  0.79756  0.43878  1.0000
  C   C126      1.0  0.29515  0.78129  0.43031  1.0000
  H   H120      1.0  0.29755  0.86556  0.49078  1.0000
  H   H121      1.0  0.35547  0.78669  0.42812  1.0000
  S   S47       1.0  0.21721  0.77900  0.43017  1.0000
  C   C127      1.0  0.24815  0.57301  0.41041  1.0000
  H   H122      1.0  0.27549  0.78438  0.35200  1.0000
  H   H123      1.0  0.25538  0.91034  0.42072  1.0000
  H   H124      1.0  0.12142  0.64675  0.47128  1.0000
  C   C128      1.0  0.26570  0.57316  0.47055  1.0000
  C   C129      1.0  0.25590  0.59213  0.44063  1.0000
  H   H125      1.0  0.16407  0.55088  0.39435  1.0000
  H   H126      1.0  0.27199  0.58792  0.49388  1.0000
  H   H127      1.0  0.25497  0.62143  0.44082  1.0000
  H   H128      1.0  0.08714  0.57954  0.55926  1.0000
  C   C130      1.0  0.07560  0.56716  0.53639  1.0000
  S   S48       1.0  0.51530  0.96032  0.49607  1.0000
  S   S49       1.0  0.24996  0.70278  0.35919  1.0000
  H   H129      1.0  0.03327  0.74737  0.43135  1.0000
  Fe  Fe27      1.0  0.14132  0.69202  0.36255  1.0000
  C   C131      1.0  0.26261  0.82571  0.46566  1.0000
  C   C132      1.0  0.31994  0.00403  0.60140  1.0000
  C   C133      1.0  0.17302  0.55426  0.47466  1.0000
  C   C134      1.0  0.15725  0.61164  0.50130  1.0000
  C   C135      1.0  0.13431  0.59643  0.44486  1.0000
  C   C136      1.0  0.09383  0.53701  0.52158  1.0000
  S   S50       1.0  0.17773  0.68181  0.40852  1.0000
  C   C137      1.0  0.42424  0.81674  0.66681  1.0000
  C   C138      1.0  0.15033  0.53872  0.41697  1.0000
  H   H130      1.0  0.23665  0.83690  0.47592  1.0000
  H   H131      1.0  0.36337  0.87240  0.38540  1.0000
  C   C139      1.0  0.26145  0.79570  0.44327  1.0000
  H   H132      1.0  0.44184  0.00361  0.40336  1.0000
  C   C140      1.0  0.13611  0.62082  0.47242  1.0000
  H   H133      1.0  0.15906  0.63038  0.52277  1.0000
  C   C141      1.0  0.02851  0.76595  0.36613  1.0000
  H   H134      1.0  0.29448  0.95852  0.67282  1.0000
  C   C142      1.0  0.04612  0.53460  0.47763  1.0000
  C   C143      1.0  0.46116  0.82535  0.65798  1.0000
  C   C144      1.0  0.25537  0.86372  0.38686  1.0000
  C   C145      1.0  0.35726  0.01093  0.61050  1.0000
  C   C146      1.0  0.26648  0.53514  0.47052  1.0000
  H   H135      1.0  0.32504  0.91605  0.41954  1.0000
  H   H136      1.0  0.05744  0.76043  0.37371  1.0000
  H   H137      1.0  0.03453  0.52199  0.45492  1.0000
  H   H138      1.0  0.18733  0.52821  0.47590  1.0000
  H   H139      1.0  0.11835  0.60398  0.42224  1.0000
  H   H140      1.0  0.22515  0.86047  0.38865  1.0000
  H   H141      1.0  0.34794  0.00031  0.44846  1.0000
  C   C147      1.0  0.17602  0.57823  0.50241  1.0000
  Fe  Fe28      1.0  0.21658  0.65318  0.37165  1.0000
  N   N13       1.0  0.27681  0.83952  0.36833  1.0000
  C   C148      1.0  0.04191  0.58056  0.52257  1.0000
  H   H142      1.0  0.23037  0.80432  0.35960  1.0000
  S   S51       1.0  0.23688  0.59512  0.37197  1.0000
  C   C149      1.0  0.33289  0.87082  0.38499  1.0000
  C   C150      1.0  0.31133  0.89532  0.40429  1.0000
  S   S52       1.0  0.07900  0.68148  0.36352  1.0000
  C   C151      1.0  0.41088  0.00611  0.64997  1.0000
  H   H143      1.0  0.12044  0.53272  0.41114  1.0000
  H   H144      1.0  0.19289  0.57079  0.52454  1.0000
  N   N14       1.0  0.37168  0.99867  0.64086  1.0000
  H   H145      1.0  0.42920  0.00465  0.62697  1.0000
  C   C152      1.0  0.02737  0.56448  0.49285  1.0000
  C   C153      1.0  0.31505  0.84307  0.36684  1.0000
  C   C154      1.0  0.24975  0.53507  0.41030  1.0000
  C   C155      1.0  0.29719  0.98499  0.62382  1.0000
  H   H146      1.0  0.42229  0.98540  0.66791  1.0000
  H   H147      1.0  0.40164  0.82410  0.64939  1.0000
  C   C156      1.0  0.49054  0.81628  0.68017  1.0000
  H   H148      1.0  0.33210  0.82362  0.35258  1.0000
  H   H149      1.0  0.07257  0.53065  0.62690  1.0000
  H   H150      1.0  0.11892  0.52662  0.53330  1.0000
  C   C157      1.0  0.25886  0.80993  0.34938  1.0000
  S   S53       1.0  0.01855  0.61640  0.54415  1.0000
  H   H151      1.0  0.01915  0.53379  0.59177  1.0000
  H   H152      1.0  0.24408  0.52018  0.38691  1.0000
  C   C158      1.0  0.07922  0.52040  0.49227  1.0000
  S   S54       1.0  0.16799  0.74476  0.34938  1.0000
  N   N15       1.0  0.41670  0.80062  0.69743  1.0000
  N   N16       1.0  0.30472  0.83257  0.97238  1.0000
  H   H153      1.0  0.30577  0.87617  0.68492  1.0000
  S   S55       1.0  0.16715  0.62035  0.98678  1.0000
  H   H154      1.0  0.46050  0.90806  0.93146  1.0000
  C   C159      1.0  0.50054  0.88516  0.89566  1.0000
  S   S56       1.0  0.20690  0.72011  0.99167  1.0000
  C   C160      1.0  0.34683  0.78113  0.96920  1.0000
  C   C161      1.0  0.33513  0.88285  0.68816  1.0000
  C   C162      1.0  0.33653  0.81628  0.95953  1.0000
  H   H155      1.0  0.21440  0.58645  0.86911  1.0000
  Fe  Fe29      1.0  0.37498  0.87105  0.87892  1.0000
  S   S57       1.0  0.40554  0.81815  0.88545  1.0000
  S   S58       1.0  0.37972  0.90207  0.92867  1.0000
  Fe  Fe30      1.0  0.35397  0.85221  0.80568  1.0000
  S   S59       1.0  0.38255  0.79748  0.80766  1.0000
  S   S60       1.0  0.32432  0.86748  0.75615  1.0000
  Fe  Fe31      1.0  0.35601  0.79288  0.85982  1.0000
  S   S61       1.0  0.33711  0.73919  0.88184  1.0000
  Fe  Fe32      1.0  0.42894  0.82786  0.83348  1.0000
  S   S62       1.0  0.49094  0.81651  0.82740  1.0000
  S   S63       1.0  0.32353  0.84531  0.85617  1.0000
  S   S64       1.0  0.40244  0.88294  0.82855  1.0000
  C   C163      1.0  0.36808  0.94843  0.93121  1.0000
  C   C164      1.0  0.34686  0.96564  0.90575  1.0000
  C   C165      1.0  0.33647  0.00236  0.90970  1.0000
  H   H156      1.0  0.17569  0.55272  0.95527  1.0000
  H   H157      1.0  0.51001  0.93223  0.97027  1.0000
  C   C166      1.0  0.37935  0.96808  0.96023  1.0000
  H   H158      1.0  0.33796  0.95057  0.88334  1.0000
  C   C167      1.0  0.49005  0.90415  0.92525  1.0000
  H   H159      1.0  0.37110  0.76775  0.95758  1.0000
  H   H160      1.0  0.48711  0.98026  0.01490  1.0000
  H   H161      1.0  0.46706  0.86624  0.77357  1.0000
  C   C168      1.0  0.18677  0.52611  0.94936  1.0000
  C   C169      1.0  0.24115  0.72368  0.95903  1.0000
  C   C170      1.0  0.26798  0.69627  0.95320  1.0000
  C   C171      1.0  0.29670  0.70119  0.92894  1.0000
  C   C172      1.0  0.29917  0.73369  0.91061  1.0000
  C   C173      1.0  0.27210  0.76097  0.91618  1.0000
  C   C174      1.0  0.24312  0.75587  0.94017  1.0000
  H   H162      1.0  0.26714  0.67175  0.96808  1.0000
  H   H163      1.0  0.31769  0.68008  0.92489  1.0000
  H   H164      1.0  0.27353  0.78598  0.90205  1.0000
  H   H165      1.0  0.22244  0.77719  0.94452  1.0000
  C   C175      1.0  0.27824  0.54416  0.91884  1.0000
  H   H166      1.0  0.39568  0.95483  0.98003  1.0000
  C   C176      1.0  0.38954  0.88929  0.72487  1.0000
  H   H167      1.0  0.27073  0.62343  0.92017  1.0000
  C   C177      1.0  0.23400  0.56573  0.87787  1.0000
  C   C178      1.0  0.36954  0.00485  0.96387  1.0000
  H   H168      1.0  0.26461  0.87605  0.96652  1.0000
  H   H169      1.0  0.35375  0.83026  0.94121  1.0000
  H   H170      1.0  0.37403  0.76261  0.70782  1.0000
  H   H171      1.0  0.31260  0.88932  0.97534  1.0000
  H   H172      1.0  0.47920  0.87402  0.87883  1.0000
  C   C179      1.0  0.32465  0.76288  0.99267  1.0000
  C   C180      1.0  0.29470  0.86943  0.96162  1.0000
  H   H173      1.0  0.25122  0.59861  0.95565  1.0000
  N   N17       1.0  0.25343  0.57027  0.90786  1.0000
  C   C181      1.0  0.49660  0.85975  0.77033  1.0000
  C   C182      1.0  0.44536  0.79168  0.71937  1.0000
  H   H174      1.0  0.29319  0.54754  0.94291  1.0000
  S   S65       1.0  0.23582  0.53608  0.00295  1.0000
  C   C183      1.0  0.23828  0.53382  0.85859  1.0000
  C   C184      1.0  0.41078  0.89981  0.69647  1.0000
  H   H175      1.0  0.44012  0.90640  0.69987  1.0000
  C   C185      1.0  0.24885  0.60391  0.92770  1.0000
  H   H176      1.0  0.40252  0.88789  0.74989  1.0000
  H   H177      1.0  0.37120  0.80426  0.73246  1.0000
  H   H178      1.0  0.43943  0.77933  0.74387  1.0000
  H   H179      1.0  0.22066  0.61658  0.92351  1.0000
  H   H180      1.0  0.35707  0.80407  0.68867  1.0000
  C   C186      1.0  0.35157  0.88098  0.72089  1.0000
  H   H181      1.0  0.29952  0.87259  0.93366  1.0000
  C   C187      1.0  0.28308  0.81507  0.99580  1.0000
  C   C188      1.0  0.29269  0.77998  0.00629  1.0000
  C   C189      1.0  0.37789  0.79237  0.70692  1.0000
  H   H182      1.0  0.50195  0.89017  0.72362  1.0000
  H   H183      1.0  0.31963  0.01552  0.89022  1.0000
  H   H184      1.0  0.33151  0.73513  0.99944  1.0000
  H   H185      1.0  0.22160  0.52943  0.83565  1.0000
  H   H186      1.0  0.37822  0.01965  0.98639  1.0000
  C   C190      1.0  0.51499  0.83688  0.79357  1.0000
  C   C191      1.0  0.48271  0.79887  0.71085  1.0000
  H   H187      1.0  0.25770  0.82776  0.00591  1.0000
  H   H188      1.0  0.50535  0.79222  0.72853  1.0000
  H   H189      1.0  0.36050  0.97143  0.68768  1.0000
  H   H190      1.0  0.15459  0.52125  0.90285  1.0000
  C   C192      1.0  0.51636  0.87328  0.74210  1.0000
  Fe  Fe33      1.0  0.93576  0.43967  0.03412  1.0000
  H   H191      1.0  0.75942  0.42148  0.15509  1.0000
  H   H192      1.0  0.81988  0.13738  0.25714  1.0000
  C   C193      1.0  0.67123  0.05054  0.08906  1.0000
  S   S66       1.0  0.83771  0.33625  0.04424  1.0000
  H   H193      1.0  0.81560  0.24855  0.29018  1.0000
  H   H194      1.0  0.86577  0.20778  0.16492  1.0000
  H   H195      1.0  0.57107  0.16247  0.33477  1.0000
  S   S67       1.0  0.88323  0.43514  0.06584  1.0000
  Fe  Fe34      1.0  0.72928  0.24203  0.19866  1.0000
  S   S68       1.0  0.73946  0.18175  0.19313  1.0000
  S   S69       1.0  0.77052  0.28734  0.18753  1.0000
  Fe  Fe35      1.0  0.65407  0.23155  0.23499  1.0000
  S   S70       1.0  0.65785  0.17123  0.23192  1.0000
  S   S71       1.0  0.60435  0.26172  0.25747  1.0000
  Fe  Fe36      1.0  0.71802  0.17840  0.24733  1.0000
  S   S72       1.0  0.74123  0.13932  0.28657  1.0000
  Fe  Fe37      1.0  0.67818  0.17938  0.17835  1.0000
  S   S73       1.0  0.64911  0.14633  0.13718  1.0000
  S   S74       1.0  0.71289  0.23850  0.25434  1.0000
  S   S75       1.0  0.66949  0.23991  0.17996  1.0000
  H   H196      1.0  0.85191  0.25344  0.17547  1.0000
  N   N18       1.0  0.77649  0.43824  0.10533  1.0000
  C   C194      1.0  0.79321  0.47215  0.11735  1.0000
  S   S76       1.0  0.82274  0.51749  0.04348  1.0000
  C   C195      1.0  0.67219  0.10638  0.12294  1.0000
  C   C196      1.0  0.65325  0.08236  0.10106  1.0000
  H   H197      1.0  0.57594  0.08154  0.02896  1.0000
  C   C197      1.0  0.70862  0.04309  0.09821  1.0000
  C   C198      1.0  0.72756  0.06712  0.11997  1.0000
  C   C199      1.0  0.70931  0.09850  0.13257  1.0000
  H   H198      1.0  0.62473  0.08852  0.09319  1.0000
  H   H199      1.0  0.82347  0.47281  0.11022  1.0000
  H   H200      1.0  0.75649  0.06152  0.12709  1.0000
  H   H201      1.0  0.72414  0.11680  0.14937  1.0000
  H   H202      1.0  0.56809  0.05308  0.10832  1.0000
  C   C200      1.0  0.56957  0.02349  0.02901  1.0000
  C   C201      1.0  0.57663  0.23975  0.28795  1.0000
  C   C202      1.0  0.58609  0.20525  0.30018  1.0000
  C   C203      1.0  0.56347  0.18894  0.32506  1.0000
  H   H203      1.0  0.76461  0.39037  0.03191  1.0000
  H   H204      1.0  0.61114  0.19143  0.29101  1.0000
  H   H205      1.0  0.83136  0.26752  0.23146  1.0000
  C   C204      1.0  0.82023  0.32266  0.08453  1.0000
  C   C205      1.0  0.79625  0.29273  0.08592  1.0000
  C   C206      1.0  0.78051  0.28171  0.11715  1.0000
  C   C207      1.0  0.78905  0.30030  0.14744  1.0000
  C   C208      1.0  0.81347  0.32990  0.14618  1.0000
  C   C209      1.0  0.82882  0.34123  0.11486  1.0000
  H   H206      1.0  0.78950  0.27820  0.06257  1.0000
  H   H207      1.0  0.76184  0.25884  0.11775  1.0000
  H   H208      1.0  0.82039  0.34434  0.16953  1.0000
  H   H209      1.0  0.84732  0.36421  0.11415  1.0000
  C   C210      1.0  0.73718  0.15152  0.33020  1.0000
  C   C211      1.0  0.84304  0.22470  0.17659  1.0000
  H   H210      1.0  0.73167  0.36426  0.13443  1.0000
  C   C212      1.0  0.73776  0.18785  0.34059  1.0000
  H   H211      1.0  0.73958  0.20895  0.32170  1.0000
  C   C213      1.0  0.82984  0.23886  0.23709  1.0000
  H   H212      1.0  0.73415  0.34854  0.07247  1.0000
  C   C214      1.0  0.75995  0.41524  0.12792  1.0000
  H   H213      1.0  0.57446  0.24327  0.16866  1.0000
  C   C215      1.0  0.82360  0.16592  0.25180  1.0000
  C   C216      1.0  0.81800  0.19161  0.27774  1.0000
  C   C217      1.0  0.74389  0.38295  0.11639  1.0000
  C   C218      1.0  0.74520  0.37412  0.08161  1.0000
  C   C219      1.0  0.01239  0.49539  0.04626  1.0000
  C   C220      1.0  0.77765  0.42985  0.07117  1.0000
  N   N19       1.0  0.83555  0.21345  0.21181  1.0000
  H   H214      1.0  0.81038  0.18296  0.30328  1.0000
  H   H215      1.0  0.77877  0.49565  0.10514  1.0000
  C   C221      1.0  0.54020  0.06540  0.10743  1.0000
  H   H216      1.0  0.90077  0.51360  0.06263  1.0000
  C   C222      1.0  0.54442  0.25762  0.30045  1.0000
  H   H217      1.0  0.79087  0.44798  0.05330  1.0000
  Fe  Fe38      1.0  0.85769  0.46981  0.02476  1.0000
  H   H218      1.0  0.83545  0.15728  0.19850  1.0000
  C   C223      1.0  0.55683  0.22937  0.18682  1.0000
  C   C224      1.0  0.83226  0.17738  0.21874  1.0000
  H   H219      1.0  0.58991  0.18004  0.18519  1.0000
  H   H220      1.0  0.55121  0.14971  0.22879  1.0000
  S   S77       1.0  0.99388  0.45213  0.05456  1.0000
  H   H221      1.0  0.81698  0.22220  0.16099  1.0000
  C   C225      1.0  0.55666  0.05943  0.02539  1.0000
  C   C226      1.0  0.82094  0.22833  0.27039  1.0000
  Fe  Fe39      1.0  0.86773  0.38858  0.03146  1.0000
  H   H222      1.0  0.56040  0.12018  0.10945  1.0000
  H   H223      1.0  0.73505  0.09621  0.34721  1.0000
  C   C227      1.0  0.76229  0.39760  0.05883  1.0000
  H   H224      1.0  0.79128  0.47561  0.14556  1.0000
  C   C228      1.0  0.56571  0.19396  0.19638  1.0000
  H   H225      1.0  0.53707  0.28438  0.29124  1.0000
  C   C229      1.0  0.53584  0.10302  0.10800  1.0000
  H   H226      1.0  0.65644  0.03216  0.07226  1.0000
  H   H227      1.0  0.66611  0.10073  0.02888  1.0000
  H   H228      1.0  0.72560  0.06507  0.02894  1.0000
  C   C230      1.0  0.53115  0.20692  0.33742  1.0000
  C   C231      1.0  0.54371  0.17698  0.22101  1.0000
  C   C232      1.0  0.52170  0.24124  0.32497  1.0000
  C   C233      1.0  0.52573  0.24709  0.20138  1.0000
  C   C234      1.0  0.51867  0.06690  0.01813  1.0000
  H   H229      1.0  0.51886  0.27479  0.19451  1.0000
  C   C235      1.0  0.80191  0.20353  0.52559  1.0000
  Fe  Fe40      1.0  0.64443  0.11901  0.52224  1.0000
  S   S78       1.0  0.67663  0.09483  0.47820  1.0000
  S   S79       1.0  0.58092  0.11725  0.52251  1.0000
  Fe  Fe41      1.0  0.71628  0.13925  0.56157  1.0000
  S   S80       1.0  0.75356  0.11491  0.52086  1.0000
  S   S81       1.0  0.74519  0.16051  0.60926  1.0000
  Fe  Fe42      1.0  0.71418  0.14284  0.48406  1.0000
  S   S82       1.0  0.73292  0.18257  0.44399  1.0000
  Fe  Fe43      1.0  0.71214  0.06954  0.51963  1.0000
  S   S83       1.0  0.80638  0.32096  0.61542  1.0000
  S   S84       1.0  0.67894  0.16959  0.52506  1.0000
  S   S85       1.0  0.67791  0.09137  0.56326  1.0000
  C   C236      1.0  0.73470  0.16981  0.40044  1.0000
  C   C237      1.0  0.73709  0.19690  0.37560  1.0000
  C   C238      1.0  0.82251  0.18560  0.55106  1.0000
  H   H230      1.0  0.78664  0.46713  0.66713  1.0000
  H   H231      1.0  0.55673  0.21234  0.43622  1.0000
  C   C239      1.0  0.73343  0.13350  0.39010  1.0000
  H   H232      1.0  0.73807  0.22504  0.38348  1.0000
  H   H233      1.0  0.78214  0.18839  0.51006  1.0000
  H   H234      1.0  0.73174  0.11241  0.40907  1.0000
  C   C240      1.0  0.56288  0.07347  0.51582  1.0000
  H   H235      1.0  0.81828  0.15701  0.55565  1.0000
  S   S86       1.0  0.92396  0.45871  0.64400  1.0000
  H   H236      1.0  0.66271  0.21465  0.35477  1.0000
  C   C241      1.0  0.78618  0.27757  0.61712  1.0000
  C   C242      1.0  0.75936  0.26802  0.59227  1.0000
  C   C243      1.0  0.74605  0.23239  0.58994  1.0000
  C   C244      1.0  0.75906  0.20615  0.61287  1.0000
  C   C245      1.0  0.78475  0.21603  0.63858  1.0000
  C   C246      1.0  0.79847  0.25158  0.64062  1.0000
  H   H237      1.0  0.74953  0.28810  0.57421  1.0000
  H   H238      1.0  0.72594  0.22516  0.57033  1.0000
  C   C247      1.0  0.58466  0.04631  0.50000  1.0000
  C   C248      1.0  0.52602  0.06577  0.52589  1.0000
  C   C249      1.0  0.85200  0.49584  0.57078  1.0000
  C   C250      1.0  0.78554  0.51404  0.63459  1.0000
  H   H239      1.0  0.79472  0.19589  0.65653  1.0000
  C   C251      1.0  0.90382  0.48259  0.60961  1.0000
  C   C252      1.0  0.86899  0.47335  0.59552  1.0000
  H   H240      1.0  0.83060  0.28877  0.53943  1.0000
  H   H241      1.0  0.85461  0.44961  0.60447  1.0000
  H   H242      1.0  0.56330  0.26447  0.39750  1.0000
  C   C253      1.0  0.58047  0.21303  0.41886  1.0000
  C   C254      1.0  0.82926  0.25953  0.54153  1.0000
  H   H243      1.0  0.61306  0.05177  0.49212  1.0000
  Fe  Fe44      1.0  0.84660  0.34251  0.65582  1.0000
  C   C255      1.0  0.01708  0.46483  0.53404  1.0000
  H   H244      1.0  0.82443  0.48943  0.56083  1.0000
  H   H245      1.0  0.79189  0.28560  0.48964  1.0000
  C   C256      1.0  0.84689  0.20525  0.57191  1.0000
  H   H246      1.0  0.86177  0.19197  0.59270  1.0000
  N   N20       1.0  0.80545  0.24001  0.52113  1.0000
  H   H247      1.0  0.81909  0.25863  0.65987  1.0000
  C   C257      1.0  0.92235  0.51317  0.59768  1.0000
  H   H248      1.0  0.74943  0.04311  0.58329  1.0000
  H   H249      1.0  0.57205  0.14915  0.44703  1.0000
  H   H250      1.0  0.86800  0.25831  0.58416  1.0000
  N   N21       1.0  0.60577  0.18478  0.41750  1.0000
  S   S87       1.0  0.90653  0.35376  0.64114  1.0000
  C   C258      1.0  0.58419  0.24276  0.39721  1.0000
  Fe  Fe45      1.0  0.89611  0.40872  0.66417  1.0000
  C   C259      1.0  0.60206  0.15443  0.44114  1.0000
  C   C260      1.0  0.63987  0.21467  0.37311  1.0000
  C   C261      1.0  0.63550  0.18551  0.39533  1.0000
  H   H251      1.0  0.61689  0.16061  0.46553  1.0000
  H   H252      1.0  0.77947  0.24230  0.47201  1.0000
  H   H253      1.0  0.98057  0.51084  0.54390  1.0000
  C   C262      1.0  0.78117  0.25842  0.49616  1.0000
  H   H254      1.0  0.75232  0.26157  0.50683  1.0000
  C   C263      1.0  0.85054  0.24241  0.56702  1.0000
  H   H255      1.0  0.61410  0.12897  0.43011  1.0000
  H   H256      1.0  0.75929  0.50698  0.62217  1.0000
  C   C264      1.0  0.61406  0.24347  0.37414  1.0000
  H   H257      1.0  0.65583  0.16333  0.39452  1.0000
  C   C265      1.0  0.00572  0.49607  0.55173  1.0000
  H   H258      1.0  0.61659  0.26575  0.35636  1.0000
  H   H259      1.0  0.00079  0.45513  0.51241  1.0000
  C   C266      1.0  0.80095  0.49163  0.65973  1.0000
  S   S88       1.0  0.83528  0.39918  0.67563  1.0000
  C   C267      1.0  0.83528  0.50045  0.67481  1.0000
  C   C268      1.0  0.73524  0.12439  0.35507  1.0000
  H   H260      1.0  0.99672  0.39173  0.68168  1.0000
  H   H261      1.0  0.65729  0.02109  0.60812  1.0000
  Fe  Fe46      1.0  0.85559  0.37787  0.72636  1.0000
  S   S89       1.0  0.86194  0.32029  0.70756  1.0000
  S   S90       1.0  0.82519  0.39030  0.77613  1.0000
  C   C269      1.0  0.99451  0.31376  0.74524  1.0000
  C   C270      1.0  0.69300  0.03998  0.95159  1.0000
  H   H262      1.0  0.94698  0.28372  0.81234  1.0000
  C   C271      1.0  0.87612  0.30496  0.80141  1.0000
  S   S91       1.0  0.83845  0.42313  0.99186  1.0000
  S   S92       1.0  0.97284  0.30320  0.70595  1.0000
  H   H263      1.0  0.85180  0.33292  0.86092  1.0000
  S   S93       1.0  0.91534  0.39279  0.71660  1.0000
  H   H264      1.0  0.94897  0.34757  0.76357  1.0000
  Fe  Fe47      1.0  0.89510  0.42636  0.96645  1.0000
  S   S94       1.0  0.91766  0.41977  0.91248  1.0000
  H   H265      1.0  0.98090  0.36450  0.81745  1.0000
  C   C272      1.0  0.70707  0.06354  0.00685  1.0000
  C   C273      1.0  0.88070  0.32312  0.86191  1.0000
  C   C274      1.0  0.85084  0.40089  0.81361  1.0000
  C   C275      1.0  0.83159  0.40646  0.84466  1.0000
  C   C276      1.0  0.85151  0.41312  0.87526  1.0000
  C   C277      1.0  0.89080  0.41451  0.87480  1.0000
  C   C278      1.0  0.90992  0.40953  0.84370  1.0000
  C   C279      1.0  0.89009  0.40261  0.81327  1.0000
  H   H266      1.0  0.80119  0.40522  0.84510  1.0000
  H   H267      1.0  0.83653  0.41689  0.89914  1.0000
  H   H268      1.0  0.94030  0.41070  0.84324  1.0000
  H   H269      1.0  0.90527  0.39849  0.78966  1.0000
  C   C280      1.0  0.90144  0.32830  0.89201  1.0000
  C   C281      1.0  0.97682  0.33715  0.76869  1.0000
  N   N22       1.0  0.71605  0.04143  0.97968  1.0000
  S   S95       1.0  0.91087  0.47679  0.99509  1.0000
  C   C282      1.0  0.64907  0.08138  0.97900  1.0000
  H   H270      1.0  0.77467  0.03603  0.97063  1.0000
  Fe  Fe48      1.0  0.92085  0.33680  0.69471  1.0000
  C   C283      1.0  0.93925  0.31773  0.89298  1.0000
  H   H271      1.0  0.00278  0.40497  0.89402  1.0000
  H   H272      1.0  0.84806  0.48269  0.69371  1.0000
  H   H273      1.0  0.98520  0.29348  0.86455  1.0000
  C   C284      1.0  0.93383  0.29589  0.83479  1.0000
  C   C285      1.0  0.65898  0.05956  0.95099  1.0000
  C   C286      1.0  0.95556  0.30114  0.86432  1.0000
  C   C287      1.0  0.99482  0.34645  0.79941  1.0000
  H   H274      1.0  0.84520  0.30728  0.80545  1.0000
  H   H275      1.0  0.88874  0.34199  0.91394  1.0000
  H   H276      1.0  0.70034  0.02283  0.92982  1.0000
  H   H277      1.0  0.88205  0.27884  0.78799  1.0000
  C   C288      1.0  0.75100  0.01984  0.98040  1.0000
  N   N23       1.0  0.89704  0.30728  0.83374  1.0000
  H   H278      1.0  0.88434  0.32753  0.78449  1.0000
  H   H279      1.0  0.64024  0.05743  0.92911  1.0000
  H   H280      1.0  0.95601  0.32304  0.91569  1.0000
  C   C289      1.0  0.01374  0.42911  0.94347  1.0000
  H   H281      1.0  0.62254  0.09638  0.97904  1.0000
  H   H282      1.0  0.00896  0.42090  0.73814  1.0000
  H   H283      1.0  0.98534  0.42545  0.95285  1.0000
  C   C290      1.0  0.67342  0.08373  0.00699  1.0000
  S   S96       1.0  0.92337  0.38908  0.00394  1.0000
  Fe  Fe49      1.0  0.90152  0.66150  0.17166  1.0000
  S   S97       1.0  0.92634  0.71522  0.16005  1.0000
  S   S98       1.0  0.92381  0.61510  0.13949  1.0000
  Fe  Fe50      1.0  0.86309  0.69066  0.23531  1.0000
  S   S99       1.0  0.88481  0.74710  0.22858  1.0000
  S   S100      1.0  0.82861  0.67498  0.28125  1.0000
  Fe  Fe51      1.0  0.86955  0.73891  0.17299  1.0000
  S   S101      1.0  0.85297  0.78635  0.13902  1.0000
  Fe  Fe52      1.0  0.93942  0.71887  0.21598  1.0000
  C   C291      1.0  0.85527  0.65585  0.04558  1.0000
  S   S102      1.0  0.84328  0.68432  0.18051  1.0000
  S   S103      1.0  0.91910  0.66316  0.22680  1.0000
  C   C292      1.0  0.94526  0.60532  0.30871  1.0000
  C   C293      1.0  0.89109  0.68972  0.31939  1.0000
  H   H284      1.0  0.95984  0.52026  0.03144  1.0000
  C   C294      1.0  0.71537  0.82833  0.17177  1.0000
  S   S104      1.0  0.69722  0.82920  0.06942  1.0000
  Fe  Fe53      1.0  0.69934  0.96434  0.05149  1.0000
  N   N24       1.0  0.73904  0.85814  0.16054  1.0000
  S   S105      1.0  0.65824  0.92748  0.07636  1.0000
  H   H285      1.0  0.73244  0.80339  0.17657  1.0000
  H   H286      1.0  0.95237  0.60936  0.28203  1.0000
  C   C295      1.0  0.81064  0.79496  0.11647  1.0000
  C   C296      1.0  0.77935  0.77268  0.11927  1.0000
  C   C297      1.0  0.74519  0.78265  0.10326  1.0000
  C   C298      1.0  0.74190  0.81517  0.08491  1.0000
  C   C299      1.0  0.77357  0.83674  0.08120  1.0000
  C   C300      1.0  0.80783  0.82648  0.09668  1.0000
  H   H287      1.0  0.78119  0.74827  0.13434  1.0000
  H   H288      1.0  0.72083  0.76567  0.10602  1.0000
  H   H289      1.0  0.77152  0.86166  0.06694  1.0000
  H   H290      1.0  0.83202  0.84372  0.09417  1.0000
  C   C301      1.0  0.89395  0.58742  0.11507  1.0000
  C   C302      1.0  0.90997  0.55785  0.09748  1.0000
  H   H291      1.0  0.93496  0.68650  0.08125  1.0000
  C   C303      1.0  0.84962  0.54395  0.07186  1.0000
  C   C304      1.0  0.83323  0.57323  0.08986  1.0000
  C   C305      1.0  0.85541  0.59497  0.11157  1.0000
  H   H292      1.0  0.82530  0.66174  0.04460  1.0000
  C   C306      1.0  0.85385  0.67843  0.31992  1.0000
  H   H293      1.0  0.80356  0.57930  0.08675  1.0000
  H   H294      1.0  0.84285  0.61775  0.12513  1.0000
  C   C307      1.0  0.74512  0.91485  0.13150  1.0000
  H   H295      1.0  0.97010  0.69745  0.28798  1.0000
  H   H296      1.0  0.80041  0.93779  0.13156  1.0000
  H   H297      1.0  0.84139  0.72384  0.06588  1.0000
  C   C308      1.0  0.00009  0.70066  0.29080  1.0000
  C   C309      1.0  0.90809  0.59895  0.31805  1.0000
  H   H298      1.0  0.90367  0.69761  0.29551  1.0000
  C   C310      1.0  0.79894  0.88750  0.15934  1.0000
  C   C311      1.0  0.77625  0.85892  0.16963  1.0000
  H   H299      1.0  0.78898  0.83678  0.18388  1.0000
  H   H300      1.0  0.98771  0.57914  0.01706  1.0000
  C   C312      1.0  0.78318  0.91560  0.14011  1.0000
  Fe  Fe54      1.0  0.68638  0.88388  0.04444  1.0000
  C   C313      1.0  0.93143  0.63902  0.04942  1.0000
  H   H301      1.0  0.73270  0.93650  0.11643  1.0000
  N   N25       1.0  0.87887  0.67809  0.06347  1.0000
  H   H302      1.0  0.97854  0.79624  0.29751  1.0000
  C   C314      1.0  0.91643  0.66974  0.06596  1.0000
  C   C315      1.0  0.90761  0.61640  0.03085  1.0000
  S   S106      1.0  0.55960  0.94939  0.03014  1.0000
  H   H303      1.0  0.69453  0.82125  0.15153  1.0000
  H   H304      1.0  0.00263  0.67695  0.34109  1.0000
  S   S107      1.0  0.73306  0.00514  0.08129  1.0000
  H   H305      1.0  0.00187  0.61225  0.32663  1.0000
  H   H306      1.0  0.70020  0.83621  0.19555  1.0000
  H   H307      1.0  0.88598  0.59867  0.29877  1.0000
  C   C316      1.0  0.88788  0.53615  0.07613  1.0000
  C   C317      1.0  0.54458  0.99478  0.02521  1.0000
  C   C318      1.0  0.86328  0.70989  0.08154  1.0000
  H   H308      1.0  0.82872  0.88728  0.16557  1.0000
  H   H309      1.0  0.69391  0.88492  0.13454  1.0000
  H   H310      1.0  0.93971  0.55176  0.10004  1.0000
  C   C319      1.0  0.72331  0.88576  0.14199  1.0000
  H   H311      1.0  0.88523  0.73026  0.08731  1.0000
  H   H312      1.0  0.94139  0.69777  0.34855  1.0000
  H   H313      1.0  0.85050  0.70157  0.10607  1.0000
  Fe  Fe55      1.0  0.62221  0.93800  0.03011  1.0000
  C   C320      1.0  0.86928  0.62478  0.02890  1.0000
  S   S108      1.0  0.99739  0.73815  0.23016  1.0000
  H   H314      1.0  0.00748  0.59779  0.09112  1.0000
  H   H315      1.0  0.99505  0.61962  0.17181  1.0000
  H   H316      1.0  0.59863  0.01812  0.03545  1.0000
  C   C321      1.0  0.95485  0.77665  0.34457  1.0000
  H   H317      1.0  0.96115  0.63233  0.05170  1.0000
  C   C322      1.0  0.00547  0.55741  0.02647  1.0000
  H   H318      1.0  0.99932  0.57346  0.13001  1.0000
  C   C323      1.0  0.97303  0.60729  0.33411  1.0000
  H   H319      1.0  0.92588  0.77960  0.33604  1.0000
  C   C324      1.0  0.98966  0.52384  0.03429  1.0000
  H   H320      1.0  0.91859  0.59184  0.01881  1.0000
  S   S109      1.0  0.73017  0.92036  0.02244  1.0000
  C   C325      1.0  0.98433  0.78611  0.32305  1.0000
  Fe  Fe56      1.0  0.87954  0.60890  0.52297  1.0000
  S   S110      1.0  0.91218  0.63382  0.56612  1.0000
  H   H321      1.0  0.74576  0.71495  0.59540  1.0000
  Fe  Fe57      1.0  0.91029  0.66102  0.47022  1.0000
  S   S111      1.0  0.94525  0.68906  0.51006  1.0000
  S   S112      1.0  0.92573  0.68030  0.41724  1.0000
  Fe  Fe58      1.0  0.95973  0.63336  0.52843  1.0000
  H   H322      1.0  0.79311  0.56194  0.60469  1.0000
  Fe  Fe59      1.0  0.89396  0.68688  0.54352  1.0000
  S   S113      1.0  0.88081  0.73585  0.57741  1.0000
  S   S114      1.0  0.92825  0.60523  0.48668  1.0000
  S   S115      1.0  0.85756  0.66234  0.50237  1.0000
  H   H323      1.0  0.98388  0.73988  0.43733  1.0000
  S   S116      1.0  0.84590  0.55879  0.53377  1.0000
  C   C326      1.0  0.63764  0.99901  0.60549  1.0000
  H   H324      1.0  0.70915  0.91856  0.61041  1.0000
  H   H325      1.0  0.74464  0.83656  0.59577  1.0000
  C   C327      1.0  0.64563  0.98538  0.66665  1.0000
  C   C328      1.0  0.73348  0.96749  0.63035  1.0000
  C   C329      1.0  0.71758  0.94576  0.60475  1.0000
  C   C330      1.0  0.71403  0.95884  0.57120  1.0000
  C   C331      1.0  0.72571  0.99389  0.56332  1.0000
  H   H326      1.0  0.94924  0.52043  0.60854  1.0000
  H   H327      1.0  0.58654  0.99129  0.48112  1.0000
  H   H328      1.0  0.87033  0.58972  0.36004  1.0000
  C   C332      1.0  0.56957  0.01194  0.49379  1.0000
  C   C333      1.0  0.83589  0.74504  0.59494  1.0000
  C   C334      1.0  0.80500  0.72339  0.58730  1.0000
  C   C335      1.0  0.76959  0.73173  0.60161  1.0000
  C   C336      1.0  0.76479  0.76168  0.62365  1.0000
  C   C337      1.0  0.79573  0.78317  0.63157  1.0000
  C   C338      1.0  0.83111  0.77494  0.61713  1.0000
  H   H329      1.0  0.80837  0.70038  0.57017  1.0000
  H   H330      1.0  0.79249  0.80590  0.64897  1.0000
  H   H331      1.0  0.85500  0.79167  0.62324  1.0000
  N   N26       1.0  0.96380  0.60415  0.36794  1.0000
  H   H332      1.0  0.75680  0.01968  0.64220  1.0000
  H   H333      1.0  0.51927  0.82344  0.67399  1.0000
  C   C339      1.0  0.89638  0.68033  0.38083  1.0000
  C   C340      1.0  0.85878  0.66966  0.38174  1.0000
  H   H334      1.0  0.56764  0.92075  0.59515  1.0000
  H   H335      1.0  0.78220  0.82214  0.56736  1.0000
  N   N27       1.0  0.62912  0.97786  0.63295  1.0000
  H   H336      1.0  0.84623  0.66192  0.40576  1.0000
  C   C341      1.0  0.60418  0.95017  0.62951  1.0000
  H   H337      1.0  0.93987  0.75358  0.39285  1.0000
  H   H338      1.0  0.82037  0.92971  0.63871  1.0000
  H   H339      1.0  0.70240  0.94178  0.55127  1.0000
  C   C342      1.0  0.83755  0.66857  0.35118  1.0000
  H   H340      1.0  0.58390  0.95794  0.54475  1.0000
  S   S117      1.0  0.71998  0.77063  0.64152  1.0000
  S   S118      1.0  0.72317  0.00933  0.52100  1.0000
  H   H341      1.0  0.85059  0.59432  0.60315  1.0000
  N   N28       1.0  0.77935  0.87875  0.57703  1.0000
  C   C343      1.0  0.79330  0.88827  0.60848  1.0000
  C   C344      1.0  0.78360  0.90120  0.54963  1.0000
  C   C345      1.0  0.81102  0.92151  0.61335  1.0000
  C   C346      1.0  0.80096  0.93476  0.55365  1.0000
  C   C347      1.0  0.81452  0.94499  0.58579  1.0000
  C   C348      1.0  0.76082  0.84380  0.57250  1.0000
  H   H342      1.0  0.78981  0.87066  0.63027  1.0000
  H   H343      1.0  0.77259  0.89377  0.52466  1.0000
  C   C349      1.0  0.96297  0.76188  0.37669  1.0000
  H   H344      1.0  0.80249  0.95333  0.53230  1.0000
  H   H345      1.0  0.88087  0.53783  0.67576  1.0000
  S   S119      1.0  0.67610  0.86779  0.65472  1.0000
  H   H346      1.0  0.62929  0.00840  0.55147  1.0000
  H   H347      1.0  0.00512  0.58043  0.40042  1.0000
  C   C350      1.0  0.58750  0.94267  0.59779  1.0000
  H   H348      1.0  0.84966  0.60924  0.64733  1.0000
  H   H349      1.0  0.74036  0.84447  0.55095  1.0000
  C   C351      1.0  0.00748  0.73697  0.41877  1.0000
  H   H350      1.0  0.01165  0.70763  0.41304  1.0000
  C   C352      1.0  0.99303  0.60751  0.39433  1.0000
  H   H351      1.0  0.92049  0.55852  0.56358  1.0000
  H   H352      1.0  0.82667  0.97153  0.58958  1.0000
  H   H353      1.0  0.59704  0.93370  0.65140  1.0000
  C   C353      1.0  0.85779  0.58661  0.62988  1.0000
  C   C354      1.0  0.59653  0.96366  0.56952  1.0000
  C   C355      1.0  0.90582  0.53508  0.57252  1.0000
  C   C356      1.0  0.86995  0.52735  0.55996  1.0000
  H   H354      1.0  0.00166  0.57483  0.48172  1.0000
  C   C357      1.0  0.74454  0.00270  0.62251  1.0000
  N   N29       1.0  0.99944  0.75629  0.38689  1.0000
  H   H355      1.0  0.80860  0.65990  0.35170  1.0000
  C   C358      1.0  0.62178  0.99202  0.57332  1.0000
  H   H356      1.0  0.88885  0.58263  0.63067  1.0000
  C   C359      1.0  0.80474  0.54514  0.62492  1.0000
  N   N30       1.0  0.83852  0.55345  0.63970  1.0000
  H   H357      1.0  0.98124  0.61989  0.41816  1.0000
  C   C360      1.0  0.85373  0.53173  0.66452  1.0000
  H   H358      1.0  0.92022  0.59434  0.40406  1.0000
  S   S120      1.0  0.74191  0.95103  0.67184  1.0000
  H   H359      1.0  0.76284  0.71271  0.68202  1.0000
  C   C361      1.0  0.92764  0.59671  0.37724  1.0000
  H   H360      1.0  0.65649  0.95991  0.67830  1.0000
  H   H361      1.0  0.66992  0.00394  0.66498  1.0000
  Fe  Fe60      1.0  0.70699  0.81922  0.67556  1.0000
  C   C362      1.0  0.53282  0.00411  0.50398  1.0000
  C   C363      1.0  0.74035  0.01601  0.58917  1.0000
  C   C364      1.0  0.89928  0.59400  0.35246  1.0000
  C   C365      1.0  0.91229  0.69023  0.34959  1.0000
  H   H362      1.0  0.01593  0.62563  0.38588  1.0000
  C   C366      1.0  0.51778  0.91782  0.94693  1.0000
  H   H363      1.0  0.62412  0.99779  0.68385  1.0000
  S   S121      1.0  0.66118  0.97821  0.00798  1.0000
  H   H364      1.0  0.61688  0.86473  0.91490  1.0000
  S   S122      1.0  0.67621  0.90048  0.73378  1.0000
  S   S123      1.0  0.74858  0.85095  0.70645  1.0000
  H   H365      1.0  0.74847  0.99481  0.96450  1.0000
  Fe  Fe61      1.0  0.70581  0.84913  0.74896  1.0000
  S   S124      1.0  0.71849  0.83218  0.80344  1.0000
  H   H366      1.0  0.69342  0.72356  0.69525  1.0000
  S   S125      1.0  0.66687  0.81295  0.71942  1.0000
  C   C367      1.0  0.76795  0.72932  0.70458  1.0000
  Fe  Fe62      1.0  0.68784  0.93083  0.98054  1.0000
  S   S126      1.0  0.69839  0.94578  0.92543  1.0000
  C   C368      1.0  0.55332  0.82886  0.78932  1.0000
  H   H367      1.0  0.56773  0.81141  0.80738  1.0000
  C   C369      1.0  0.71121  0.86371  0.83718  1.0000
  C   C370      1.0  0.70670  0.90069  0.83074  1.0000
  C   C371      1.0  0.70269  0.92543  0.85809  1.0000
  C   C372      1.0  0.70275  0.91341  0.89207  1.0000
  C   C373      1.0  0.70644  0.87635  0.89860  1.0000
  C   C374      1.0  0.71095  0.85161  0.87120  1.0000
  H   H368      1.0  0.70720  0.91039  0.80473  1.0000
  H   H369      1.0  0.69985  0.95406  0.85283  1.0000
  H   H370      1.0  0.70660  0.86681  0.92471  1.0000
  H   H371      1.0  0.71451  0.82303  0.87639  1.0000
  C   C375      1.0  0.55439  0.86397  0.73714  1.0000
  Fe  Fe63      1.0  0.71492  0.89934  0.68842  1.0000
  H   H372      1.0  0.78556  0.79054  0.78335  1.0000
  H   H373      1.0  0.61041  0.88467  0.87318  1.0000
  C   C376      1.0  0.57299  0.84248  0.76130  1.0000
  S   S127      1.0  0.64611  0.89097  0.99994  1.0000
  H   H374      1.0  0.60239  0.83569  0.75812  1.0000
  C   C377      1.0  0.70287  0.71952  0.72216  1.0000
  C   C378      1.0  0.80979  0.76705  0.73746  1.0000
  H   H375      1.0  0.72386  0.76215  0.77450  1.0000
  H   H376      1.0  0.62246  0.91278  0.90888  1.0000
  Fe  Fe64      1.0  0.63993  0.86469  0.70159  1.0000
  H   H377      1.0  0.68089  0.73208  0.73887  1.0000
  N   N31       1.0  0.56578  0.89451  0.90907  1.0000
  C   C379      1.0  0.80334  0.74482  0.70904  1.0000
  C   C380      1.0  0.60575  0.88881  0.90111  1.0000
  H   H378      1.0  0.83689  0.77974  0.74101  1.0000
  H   H379      1.0  0.82533  0.74014  0.69018  1.0000
  N   N32       1.0  0.73970  0.73602  0.72760  1.0000
  C   C381      1.0  0.74606  0.75710  0.75595  1.0000
  C   C382      1.0  0.78107  0.77310  0.76120  1.0000
  H   H380      1.0  0.70459  0.69008  0.72752  1.0000
  H   H381      1.0  0.57705  0.92309  0.95575  1.0000
  H   H382      1.0  0.54654  0.86515  0.86508  1.0000
  C   C383      1.0  0.55573  0.91258  0.93850  1.0000
  S   S128      1.0  0.57770  0.87712  0.69962  1.0000
  C   C384      1.0  0.53876  0.88034  0.88800  1.0000
  H   H383      1.0  0.75759  0.01081  0.00690  1.0000
  H   H384      1.0  0.85040  0.60662  0.01548  1.0000
