data_image0
_chemical_formula_structural       FeS2FeS2FeSFeS3HFeS2HSH3CFeS3H2CNCH5CFeS2CH2CHCH4CNCNC4HCNHCFeCH2C3HCH2C2H3C6H4C6H4CHC2H3FeC3H2NHCHC2HNCHCHCHC2HC2SCH2CSHC2H2CH2CH4NCH5C3HFeSHCFeC3HCH2FeS2FeS2FeS2FeSFeS3FeS2FeS2HC2HC2H3SCHCHC3HC6H5NHC2HCH2C6H4S2H3CHC2NC2H3FeHCH3SNSCHCH2CSH3NHC2HC2SH2C3FeH2CH3CHC2HC2H2CHC2H2C2NHC4HCH2CHFeS2FeS2FeSFeS3FeS2H2CH4C2SCHFeS2FeS2CH3CHC2HC4H4CH2CSCH2NC3HC7H4C6H4C2H3NC2NHCH2CH2CH2CSC2HCSC4H11C2NFeNHNFeCH2CHFeC2H2C2HC2HC3HCH3CHCS2C2HC2HCHCFeS2CFeS2FeS2FeSFeS3FeCS2H5FeS2HC3H2NC2NFeSCSHC6H4C3H3C2HSH4C6H6C2HCNC5H5C2HC2HCHCNC3FeC2NH2C2HCH2C4H3CHCHCSC2H3CH7CHFeH2SCSHCHCH4FeSHFeS2FeSFeS3FeS2FeS2FeSFeS3FeS2H2CH2FeS2CHFeHCHS2H3C2NC4HC6H4C3HC6H4CHCH2C6H3SCHCH3C3SCH3CH2NHCH3C3HCHCH2CHCSHCH4CFeNCH2C2HCNCH2FeC5HC2HCHSCH2NH2CSC2HCFeS2FeS2FeS2FeS2FeSFeS3FeS2FeS2FeSFeS3C3H2CH2C7H4C2H2C8H4C6H8CH4C2HC2HC3H3CHC2H2CHC2H2SCNC4HC2HCNCH2CHCH3CH2CNC2H2CH2CHC4HCHCHCH2NH4CSCFeH2CHNH3C2HC2HCHNHSFeS2FeS2FeSFeS3FeS2FeS2FeHFeS3FeS2FeS2NCHNH2C6H5CHCHCH2C7H4C6H5C2H2CHC2HSC3HCSC6H5C2HCH3CH3CNC6H9FeHC3SHC3HCSHC5HC2HSH2NH3CNCHCFeS2HCH3CFeS2HCHSHFeS2FeS2FeSFeHS2FeS2FeS2FeSFeS3C3HC4HC6H8CHC6H4C6H4C5NH3CHCHCH3NH2C3NHFeC2HCH3C2H2CHCHC2HFeHSC2NH4SCHCNHCH5SHC2HCSCNCHC3HCH2CHCHFe2S2FeS2FeSFeS3FeS2FeS2CH2CH2FeS2CH5FeCNHCH3CHC3HCHC2HCHC6H4C6H5C2SHNC6H5CH7C2SC2H2CHCNCHCH2CHCH3NHCHC3NH2CHC2SHCHC2SHCHCHCHS2CFeC2HCFeS2CH5FeS2FeS2FeSFeS3FeS2FeSHC3H4SNC2H2SH2C2NH2C6H4C3HC13H5CH3SHCNC2SCHC2H3CHCNCH2SC3H2CH2C2H2CH2C4H2CH2CFeCSFeC2H2FeH2CH3CFeHCHCH2FeS2FeS2FeSFeS3FeS2FeS2FeSHC4FeHSC3H3FeC3HFeC6H4C6H4CHC2HC2H2SC2H2CSH4C2HSH2SC2HCH2CH3SC2NC2NC3HC3H2CHCH7C2H4CHNH4CH2CNC2H4C3Fe2S2H5NFeS2FeS2FeSFeS3FeS3CNC3FeS2CHCHCH3NCSCHCHCHC7H4C2NH2CHCH3CH2CHC6H5CHCHCHSNC6H9CH2CS2C2H2CHSCHNHCH2CH3SC2H4CFeC4HC3HC9FeHCH2
_chemical_formula_sum              "Fe128 S256 H768 C768 N64"
_cell_length_a       60.7973
_cell_length_b       61.0562
_cell_length_c       44.977
_cell_angle_alpha    89.4489
_cell_angle_beta     89.2267
_cell_angle_gamma    89.4794

_space_group_name_H-M_alt    "P 1"
_space_group_IT_number       1

loop_
  _space_group_symop_operation_xyz
  'x, y, z'

loop_
  _atom_site_type_symbol
  _atom_site_label
  _atom_site_symmetry_multiplicity
  _atom_site_fract_x
  _atom_site_fract_y
  _atom_site_fract_z
  _atom_site_occupancy
  Fe  Fe1       1.0  0.10983  0.37180  0.21956  1.0000
  S   S1        1.0  0.08682  0.36686  0.25889  1.0000
  S   S2        1.0  0.12076  0.34388  0.18901  1.0000
  Fe  Fe2       1.0  0.11717  0.41992  0.23471  1.0000
  S   S3        1.0  0.09473  0.41859  0.27447  1.0000
  S   S4        1.0  0.13610  0.45021  0.22069  1.0000
  Fe  Fe3       1.0  0.11139  0.38646  0.28498  1.0000
  S   S5        1.0  0.11965  0.37875  0.33357  1.0000
  Fe  Fe4       1.0  0.07230  0.39944  0.24534  1.0000
  S   S6        1.0  0.03716  0.41149  0.23980  1.0000
  S   S7        1.0  0.13540  0.38893  0.24680  1.0000
  S   S8        1.0  0.09383  0.40310  0.20442  1.0000
  H   H1        1.0  0.09336  0.36854  0.14687  1.0000
  Fe  Fe5       1.0  0.21633  0.39363  0.45316  1.0000
  S   S9        1.0  0.25166  0.39982  0.46611  1.0000
  S   S10       1.0  0.20887  0.39562  0.40338  1.0000
  H   H2        1.0  0.30454  0.01160  0.00330  1.0000
  S   S11       1.0  0.21285  0.36417  0.48334  1.0000
  H   H3        1.0  0.07526  0.29385  0.07909  1.0000
  H   H4        1.0  0.16360  0.37064  0.19742  1.0000
  H   H5        1.0  0.11724  0.42426  0.11048  1.0000
  C   C1        1.0  0.23811  0.34287  0.41346  1.0000
  Fe  Fe6       1.0  0.29041  0.12127  0.02087  1.0000
  S   S12       1.0  0.25630  0.11095  0.03445  1.0000
  S   S13       1.0  0.31469  0.13494  0.05419  1.0000
  S   S14       1.0  0.20206  0.41694  0.48677  1.0000
  H   H6        1.0  0.18582  0.37507  0.17075  1.0000
  H   H7        1.0  0.20515  0.22252  0.02316  1.0000
  C   C2        1.0  0.11803  0.43127  0.36470  1.0000
  N   N1        1.0  0.15419  0.38502  0.15616  1.0000
  C   C3        1.0  0.25307  0.00325  0.02676  1.0000
  H   H8        1.0  0.13016  0.43514  0.16043  1.0000
  H   H9        1.0  0.12858  0.38805  0.08989  1.0000
  H   H10       1.0  0.08680  0.36327  0.09294  1.0000
  H   H11       1.0  0.08760  0.43734  0.34191  1.0000
  H   H12       1.0  0.15386  0.40995  0.18919  1.0000
  C   C4        1.0  0.31729  0.15204  0.18042  1.0000
  Fe  Fe7       1.0  0.10683  0.30136  0.02121  1.0000
  S   S15       1.0  0.10206  0.33135  0.05087  1.0000
  S   S16       1.0  0.10457  0.26648  0.03690  1.0000
  C   C5        1.0  0.23619  0.30454  0.47894  1.0000
  H   H13       1.0  0.20495  0.05413  0.05543  1.0000
  H   H14       1.0  0.16132  0.48298  0.30949  1.0000
  C   C6        1.0  0.13598  0.49519  0.22555  1.0000
  H   H15       1.0  0.15202  0.36317  0.11954  1.0000
  C   C7        1.0  0.11440  0.45619  0.32307  1.0000
  H   H16       1.0  0.16704  0.45336  0.34481  1.0000
  H   H17       1.0  0.00596  0.36096  0.20968  1.0000
  H   H18       1.0  0.26079  0.33233  0.44697  1.0000
  H   H19       1.0  0.31369  0.07681  0.13146  1.0000
  C   C8        1.0  0.32344  0.31294  0.46401  1.0000
  N   N2        1.0  0.13641  0.46058  0.32394  1.0000
  C   C9        1.0  0.13428  0.39313  0.11151  1.0000
  N   N3        1.0  0.22972  0.31664  0.45208  1.0000
  C   C10       1.0  0.32109  0.09198  0.12400  1.0000
  C   C11       1.0  0.16835  0.37026  0.17347  1.0000
  C   C12       1.0  0.12786  0.41336  0.12309  1.0000
  C   C13       1.0  0.32633  0.13894  0.23821  1.0000
  H   H20       1.0  0.05822  0.28323  0.10857  1.0000
  C   C14       1.0  0.30590  0.32741  0.47161  1.0000
  N   N4        1.0  0.04086  0.29180  0.06938  1.0000
  H   H21       1.0  0.16640  0.35294  0.16656  1.0000
  C   C15       1.0  0.31198  0.12703  0.22061  1.0000
  Fe  Fe8       1.0  0.12939  0.25813  0.00060  1.0000
  C   C16       1.0  0.32343  0.12151  0.08733  1.0000
  H   H22       1.0  0.15068  0.46525  0.28121  1.0000
  H   H23       1.0  0.06440  0.26660  0.07628  1.0000
  C   C17       1.0  0.21679  0.34106  0.40273  1.0000
  C   C18       1.0  0.06067  0.28349  0.08406  1.0000
  C   C19       1.0  0.12424  0.47573  0.23053  1.0000
  H   H24       1.0  0.19672  0.30503  0.45382  1.0000
  C   C20       1.0  0.20485  0.07125  0.04677  1.0000
  H   H25       1.0  0.09428  0.46200  0.24819  1.0000
  H   H26       1.0  0.21022  0.03855  0.00799  1.0000
  C   C21       1.0  0.01306  0.39951  0.25472  1.0000
  C   C22       1.0  0.01294  0.37850  0.26745  1.0000
  H   H27       1.0  0.13463  0.48823  0.29461  1.0000
  H   H28       1.0  0.02825  0.36956  0.27008  1.0000
  H   H29       1.0  0.30165  0.34080  0.45680  1.0000
  C   C23       1.0  0.14489  0.38279  0.35226  1.0000
  C   C24       1.0  0.14587  0.37850  0.38305  1.0000
  C   C25       1.0  0.16523  0.38239  0.39910  1.0000
  C   C26       1.0  0.18392  0.39054  0.38447  1.0000
  C   C27       1.0  0.18302  0.39463  0.35364  1.0000
  C   C28       1.0  0.16363  0.39086  0.33762  1.0000
  H   H30       1.0  0.13147  0.37228  0.39461  1.0000
  H   H31       1.0  0.16565  0.37911  0.42278  1.0000
  H   H32       1.0  0.19742  0.40083  0.34205  1.0000
  H   H33       1.0  0.16314  0.39426  0.31399  1.0000
  C   C29       1.0  0.11355  0.33962  0.15134  1.0000
  C   C30       1.0  0.12242  0.32139  0.13630  1.0000
  C   C31       1.0  0.11848  0.31818  0.10580  1.0000
  C   C32       1.0  0.10584  0.33339  0.08988  1.0000
  C   C33       1.0  0.09665  0.35143  0.10501  1.0000
  C   C34       1.0  0.10032  0.35446  0.13562  1.0000
  H   H34       1.0  0.13264  0.30977  0.14825  1.0000
  H   H35       1.0  0.12572  0.30425  0.09449  1.0000
  H   H36       1.0  0.31990  0.16756  0.47602  1.0000
  H   H37       1.0  0.27454  0.12592  0.18230  1.0000
  C   C35       1.0  0.31440  0.10161  0.09691  1.0000
  H   H38       1.0  0.25417  0.30095  0.47880  1.0000
  C   C36       1.0  0.04206  0.30917  0.04999  1.0000
  C   C37       1.0  0.24435  0.33047  0.43833  1.0000
  H   H39       1.0  0.10415  0.46372  0.30617  1.0000
  H   H40       1.0  0.15081  0.42791  0.38185  1.0000
  H   H41       1.0  0.21168  0.35080  0.38366  1.0000
  Fe  Fe9       1.0  0.26343  0.08150  0.00582  1.0000
  C   C38       1.0  0.14039  0.43606  0.36566  1.0000
  C   C39       1.0  0.30727  0.03436  0.05397  1.0000
  C   C40       1.0  0.14946  0.45053  0.34466  1.0000
  H   H42       1.0  0.02047  0.26737  0.08932  1.0000
  H   H43       1.0  0.25197  0.00463  0.05070  1.0000
  N   N5        1.0  0.30756  0.13370  0.19216  1.0000
  H   H44       1.0  0.18500  0.32652  0.40962  1.0000
  C   C41       1.0  0.20859  0.31525  0.44217  1.0000
  H   H45       1.0  0.29422  0.10368  0.17748  1.0000
  C   C42       1.0  0.14629  0.47496  0.30126  1.0000
  C   C43       1.0  0.02123  0.28165  0.07483  1.0000
  H   H46       1.0  0.31404  0.15715  0.15770  1.0000
  N   N6        1.0  0.30777  0.01049  0.05054  1.0000
  C   C44       1.0  0.10490  0.44142  0.34335  1.0000
  H   H47       1.0  0.19302  0.10614  0.01471  1.0000
  C   C45       1.0  0.30640  0.00134  0.02295  1.0000
  H   H48       1.0  0.23638  0.47086  0.46016  1.0000
  C   C46       1.0  0.20183  0.32735  0.41727  1.0000
  H   H49       1.0  0.19173  0.08048  0.05884  1.0000
  C   C47       1.0  0.32962  0.29537  0.48286  1.0000
  C   C48       1.0  0.09538  0.49684  0.25508  1.0000
  H   H50       1.0  0.30206  0.09383  0.08363  1.0000
  C   C49       1.0  0.14759  0.37911  0.12842  1.0000
  C   C50       1.0  0.29406  0.32462  0.49833  1.0000
  S   S17       1.0  0.04542  0.24867  0.01616  1.0000
  C   C51       1.0  0.13507  0.41946  0.15111  1.0000
  H   H51       1.0  0.11105  0.41912  0.37980  1.0000
  H   H52       1.0  0.30541  0.04309  0.03230  1.0000
  C   C52       1.0  0.14840  0.40505  0.16738  1.0000
  S   S18       1.0  0.25561  0.04813  0.02674  1.0000
  H   H53       1.0  0.32118  0.15852  0.42207  1.0000
  C   C53       1.0  0.23753  0.48481  0.47468  1.0000
  C   C54       1.0  0.10373  0.47673  0.24484  1.0000
  H   H54       1.0  0.32995  0.13356  0.26073  1.0000
  H   H55       1.0  0.33230  0.31539  0.44324  1.0000
  C   C55       1.0  0.25518  0.02227  0.00908  1.0000
  H   H56       1.0  0.05766  0.31705  0.04535  1.0000
  H   H57       1.0  0.02438  0.33022  0.01958  1.0000
  C   C56       1.0  0.02324  0.31680  0.03547  1.0000
  H   H58       1.0  0.22106  0.07852  0.05177  1.0000
  H   H59       1.0  0.24950  0.35428  0.40302  1.0000
  H   H60       1.0  0.31045  0.00468  0.09721  1.0000
  H   H61       1.0  0.23232  0.31454  0.49893  1.0000
  N   N7        1.0  0.20127  0.07207  0.01461  1.0000
  C   C57       1.0  0.29149  0.12164  0.17481  1.0000
  H   H62       1.0  0.22755  0.28865  0.48088  1.0000
  H   H63       1.0  0.32268  0.04005  0.06430  1.0000
  H   H64       1.0  0.29297  0.03929  0.06814  1.0000
  H   H65       1.0  0.29314  0.12536  0.15062  1.0000
  H   H66       1.0  0.30467  0.11221  0.22966  1.0000
  C   C58       1.0  0.19530  0.09149  0.00148  1.0000
  C   C59       1.0  0.00202  0.28910  0.06108  1.0000
  C   C60       1.0  0.01915  0.25757  0.00353  1.0000
  H   H67       1.0  0.15186  0.49456  0.21444  1.0000
  Fe  Fe10      1.0  0.07839  0.26350  0.00198  1.0000
  S   S19       1.0  0.16199  0.23890  0.00839  1.0000
  H   H68       1.0  0.22484  0.18717  0.01481  1.0000
  C   C61       1.0  0.19671  0.20927  0.01247  1.0000
  Fe  Fe11      1.0  0.24755  0.37130  0.49812  1.0000
  C   C62       1.0  0.20799  0.18916  0.00775  1.0000
  C   C63       1.0  0.17472  0.21243  0.00359  1.0000
  C   C64       1.0  0.33189  0.16420  0.19732  1.0000
  H   H69       1.0  0.00385  0.39659  0.18306  1.0000
  C   C65       1.0  0.00310  0.30668  0.04111  1.0000
  H   H70       1.0  0.00159  0.23524  0.03251  1.0000
  H   H71       1.0  0.07962  0.49737  0.26657  1.0000
  Fe  Fe12      1.0  0.20139  0.38809  0.51837  1.0000
  S   S20       1.0  0.23539  0.39354  0.53517  1.0000
  S   S21       1.0  0.16983  0.38473  0.54614  1.0000
  Fe  Fe13      1.0  0.10125  0.43113  0.74213  1.0000
  S   S22       1.0  0.09777  0.40961  0.70223  1.0000
  S   S23       1.0  0.08779  0.46552  0.73488  1.0000
  Fe  Fe14      1.0  0.11394  0.39188  0.78273  1.0000
  S   S24       1.0  0.11103  0.36787  0.74540  1.0000
  S   S25       1.0  0.12022  0.38449  0.83189  1.0000
  Fe  Fe15      1.0  0.12890  0.39319  0.71711  1.0000
  S   S26       1.0  0.15928  0.38659  0.68771  1.0000
  Fe  Fe16      1.0  0.08016  0.38684  0.73389  1.0000
  S   S27       1.0  0.04727  0.37202  0.72201  1.0000
  S   S28       1.0  0.13367  0.41633  0.75547  1.0000
  S   S29       1.0  0.08206  0.40912  0.77281  1.0000
  Fe  Fe17      1.0  0.28384  0.10955  0.95555  1.0000
  S   S30       1.0  0.24932  0.09796  0.96552  1.0000
  S   S31       1.0  0.29335  0.10550  0.90627  1.0000
  Fe  Fe18      1.0  0.10591  0.28813  0.95512  1.0000
  S   S32       1.0  0.10497  0.29577  0.90515  1.0000
  S   S33       1.0  0.10293  0.25216  0.96700  1.0000
  H   H72       1.0  0.19465  0.07549  0.92932  1.0000
  C   C66       1.0  0.25522  0.99936  0.96512  1.0000
  C   C67       1.0  0.06243  0.34616  0.88790  1.0000
  H   H73       1.0  0.29136  0.30461  0.53796  1.0000
  C   C68       1.0  0.19741  0.17165  0.99421  1.0000
  C   C69       1.0  0.06465  0.36763  0.84265  1.0000
  H   H74       1.0  0.05328  0.31527  0.82716  1.0000
  H   H75       1.0  0.14846  0.43016  0.56663  1.0000
  H   H76       1.0  0.30659  0.03326  0.82967  1.0000
  S   S34       1.0  0.21064  0.14561  0.98770  1.0000
  C   C70       1.0  0.05756  0.32777  0.87112  1.0000
  H   H77       1.0  0.12911  0.47330  0.76592  1.0000
  C   C71       1.0  0.17594  0.23294  0.93376  1.0000
  H   H78       1.0  0.07087  0.38039  0.88628  1.0000
  C   C72       1.0  0.02221  0.38307  0.73606  1.0000
  C   C73       1.0  0.02194  0.39879  0.75844  1.0000
  C   C74       1.0  0.20691  0.24994  0.95930  1.0000
  H   H79       1.0  0.03708  0.40421  0.76789  1.0000
  C   C75       1.0  0.11823  0.35914  0.85152  1.0000
  C   C76       1.0  0.11365  0.33951  0.83718  1.0000
  C   C77       1.0  0.11043  0.32013  0.85394  1.0000
  C   C78       1.0  0.11162  0.32013  0.88518  1.0000
  C   C79       1.0  0.11683  0.33961  0.89948  1.0000
  C   C80       1.0  0.12017  0.35898  0.88269  1.0000
  H   H80       1.0  0.11241  0.33931  0.81322  1.0000
  H   H81       1.0  0.10657  0.30511  0.84263  1.0000
  H   H82       1.0  0.11786  0.33989  0.92347  1.0000
  H   H83       1.0  0.12382  0.37407  0.89398  1.0000
  H   H84       1.0  0.15826  0.45733  0.55656  1.0000
  N   N8        1.0  0.18648  0.25150  0.94242  1.0000
  H   H85       1.0  0.22908  0.43104  0.63498  1.0000
  C   C81       1.0  0.31814  0.11104  0.88625  1.0000
  C   C82       1.0  0.10028  0.48933  0.74845  1.0000
  H   H86       1.0  0.20363  0.25491  0.98269  1.0000
  C   C83       1.0  0.05940  0.35103  0.79385  1.0000
  H   H87       1.0  0.30381  0.10322  0.84408  1.0000
  H   H88       1.0  0.04289  0.41762  0.68993  1.0000
  C   C84       1.0  0.16715  0.38402  0.58555  1.0000
  C   C85       1.0  0.14619  0.38713  0.59864  1.0000
  C   C86       1.0  0.14340  0.38777  0.62983  1.0000
  C   C87       1.0  0.16153  0.38488  0.64833  1.0000
  C   C88       1.0  0.18240  0.38125  0.63524  1.0000
  C   C89       1.0  0.18526  0.38103  0.60404  1.0000
  H   H89       1.0  0.13203  0.38923  0.58455  1.0000
  H   H90       1.0  0.12723  0.39039  0.63956  1.0000
  H   H91       1.0  0.19652  0.37885  0.64934  1.0000
  H   H92       1.0  0.20145  0.37848  0.59435  1.0000
  S   S35       1.0  0.24660  0.45484  0.52031  1.0000
  S   S36       1.0  0.29817  0.09093  0.99444  1.0000
  H   H93       1.0  0.20594  0.04031  0.95355  1.0000
  H   H94       1.0  0.23672  0.43721  0.58094  1.0000
  H   H95       1.0  0.14725  0.19690  0.98309  1.0000
  C   C90       1.0  0.25640  0.02023  0.97817  1.0000
  H   H96       1.0  0.29698  0.06324  0.87331  1.0000
  C   C91       1.0  0.19251  0.09292  0.97069  1.0000
  C   C92       1.0  0.05628  0.32977  0.84016  1.0000
  N   N9        1.0  0.18110  0.43744  0.57999  1.0000
  C   C93       1.0  0.04544  0.43258  0.70337  1.0000
  C   C94       1.0  0.17537  0.17476  0.98547  1.0000
  H   H97       1.0  0.03135  0.28144  0.97212  1.0000
  H   H98       1.0  0.05589  0.31188  0.88194  1.0000
  H   H99       1.0  0.18261  0.21689  0.93922  1.0000
  Fe  Fe19      1.0  0.24474  0.12859  0.99301  1.0000
  H   H100      1.0  0.25789  0.03473  0.96428  1.0000
  C   C95       1.0  0.31127  0.05340  0.88121  1.0000
  H   H101      1.0  0.15989  0.43353  0.61786  1.0000
  H   H102      1.0  0.05544  0.36792  0.78614  1.0000
  H   H103      1.0  0.21966  0.26075  0.94932  1.0000
  S   S37       1.0  0.07969  0.29861  0.98777  1.0000
  N   N10       1.0  0.05959  0.34958  0.82638  1.0000
  S   S38       1.0  0.27112  0.34199  0.50890  1.0000
  C   C96       1.0  0.31863  0.10812  0.85521  1.0000
  H   H104      1.0  0.06859  0.38304  0.83166  1.0000
  C   C97       1.0  0.14714  0.25494  0.91185  1.0000
  H   H105      1.0  0.32473  0.16269  0.81065  1.0000
  H   H106      1.0  0.16770  0.43317  0.53689  1.0000
  C   C98       1.0  0.21561  0.43326  0.61964  1.0000
  S   S39       1.0  0.27861  0.14099  0.98087  1.0000
  H   H107      1.0  0.31776  0.06187  0.90102  1.0000
  H   H108      1.0  0.05468  0.44485  0.68992  1.0000
  H   H109      1.0  0.20583  0.44121  0.54630  1.0000
  N   N11       1.0  0.02469  0.44204  0.71428  1.0000
  H   H110      1.0  0.13162  0.25634  0.90027  1.0000
  C   C99       1.0  0.17671  0.43480  0.60973  1.0000
  C   C100      1.0  0.20234  0.43874  0.56979  1.0000
  H   H111      1.0  0.14745  0.21964  0.91241  1.0000
  C   C101      1.0  0.30026  0.30708  0.51721  1.0000
  C   C102      1.0  0.00549  0.46605  0.74798  1.0000
  S   S40       1.0  0.13344  0.29383  0.98705  1.0000
  H   H112      1.0  0.04067  0.46219  0.74573  1.0000
  H   H113      1.0  0.18567  0.28641  0.94393  1.0000
  C   C103      1.0  0.31786  0.29264  0.50966  1.0000
  C   C104      1.0  0.15803  0.27376  0.92067  1.0000
  C   C105      1.0  0.16294  0.43982  0.55905  1.0000
  Fe  Fe20      1.0  0.23671  0.42148  0.50176  1.0000
  H   H114      1.0  0.00584  0.47752  0.76623  1.0000
  H   H115      1.0  0.07579  0.34632  0.78463  1.0000
  C   C106      1.0  0.17767  0.27172  0.93634  1.0000
  H   H116      1.0  0.21363  0.23294  0.95981  1.0000
  H   H117      1.0  0.19028  0.42940  0.65337  1.0000
  H   H118      1.0  0.15106  0.28982  0.91590  1.0000
  C   C107      1.0  0.19388  0.43255  0.62998  1.0000
  H   H119      1.0  0.04673  0.34022  0.78436  1.0000
  C   C108      1.0  0.01684  0.27412  0.98204  1.0000
  C   C109      1.0  0.15605  0.23438  0.91855  1.0000
  H   H120      1.0  0.18818  0.10852  0.96040  1.0000
  C   C110      1.0  0.06597  0.36624  0.87364  1.0000
  C   C111      1.0  0.16412  0.19492  0.99006  1.0000
  H   H121      1.0  0.32440  0.16031  0.75568  1.0000
  H   H122      1.0  0.06447  0.34458  0.91177  1.0000
  C   C112      1.0  0.02510  0.45723  0.73642  1.0000
  H   H123      1.0  0.05571  0.42751  0.72247  1.0000
  C   C113      1.0  0.21990  0.43656  0.58938  1.0000
  C   C114      1.0  0.12077  0.48881  0.76225  1.0000
  H   H124      1.0  0.32222  0.27934  0.52456  1.0000
  H   H125      1.0  0.16687  0.16143  0.97507  1.0000
  C   C115      1.0  0.19624  0.07443  0.95329  1.0000
  C   C116      1.0  0.24187  0.48148  0.50487  1.0000
  N   N12       1.0  0.32784  0.05148  0.85735  1.0000
  H   H126      1.0  0.30558  0.03694  0.88846  1.0000
  C   C117      1.0  0.20255  0.05473  0.96684  1.0000
  C   C118      1.0  0.32269  0.04050  0.83202  1.0000
  C   C119      1.0  0.20496  0.05384  0.99771  1.0000
  C   C120      1.0  0.00194  0.40788  0.76853  1.0000
  H   H127      1.0  0.00215  0.36398  0.70703  1.0000
  C   C121      1.0  0.00514  0.43572  0.70247  1.0000
  H   H128      1.0  0.00478  0.42329  0.68542  1.0000
  H   H129      1.0  0.00200  0.42031  0.78552  1.0000
  C   C122      1.0  0.00213  0.37621  0.72429  1.0000
  H   H130      1.0  0.24694  0.49758  0.54666  1.0000
  Fe  Fe21      1.0  0.10534  0.57577  0.25521  1.0000
  S   S41       1.0  0.10235  0.59822  0.29447  1.0000
  S   S42       1.0  0.09653  0.54057  0.26637  1.0000
  Fe  Fe22      1.0  0.11420  0.61422  0.21127  1.0000
  S   S43       1.0  0.11233  0.63911  0.24782  1.0000
  S   S44       1.0  0.11577  0.62075  0.16083  1.0000
  Fe  Fe23      1.0  0.13210  0.61483  0.27526  1.0000
  S   S45       1.0  0.16299  0.62130  0.30228  1.0000
  Fe  Fe24      1.0  0.08279  0.62008  0.26410  1.0000
  S   S46       1.0  0.05105  0.63740  0.27761  1.0000
  S   S47       1.0  0.13628  0.59105  0.23722  1.0000
  S   S48       1.0  0.08361  0.59659  0.22630  1.0000
  Fe  Fe25      1.0  0.20303  0.62475  0.46943  1.0000
  S   S49       1.0  0.23550  0.61279  0.45174  1.0000
  S   S50       1.0  0.17229  0.63293  0.44284  1.0000
  H   H131      1.0  0.31772  0.77110  0.47191  1.0000
  H   H132      1.0  0.16418  0.68536  0.10043  1.0000
  C   C123      1.0  0.12742  0.51546  0.23539  1.0000
  H   H133      1.0  0.18247  0.56910  0.31447  1.0000
  H   H134      1.0  0.13896  0.61233  0.04211  1.0000
  H   H135      1.0  0.18090  0.77779  0.01685  1.0000
  H   H136      1.0  0.06457  0.80345  0.03216  1.0000
  C   C124      1.0  0.14066  0.57306  0.36494  1.0000
  C   C125      1.0  0.28464  0.87982  0.14816  1.0000
  S   S51       1.0  0.28388  0.65087  0.47604  1.0000
  C   C126      1.0  0.14270  0.64268  0.01771  1.0000
  H   H137      1.0  0.33049  0.81913  0.47125  1.0000
  Fe  Fe26      1.0  0.28643  0.89973  0.03575  1.0000
  S   S52       1.0  0.29864  0.91069  0.08114  1.0000
  S   S53       1.0  0.25016  0.90486  0.02754  1.0000
  Fe  Fe27      1.0  0.11387  0.71778  0.03528  1.0000
  S   S54       1.0  0.12062  0.70907  0.08407  1.0000
  S   S55       1.0  0.09862  0.75086  0.02455  1.0000
  C   C127      1.0  0.23730  0.52473  0.48136  1.0000
  H   H138      1.0  0.08117  0.64827  0.18743  1.0000
  H   H139      1.0  0.14492  0.57678  0.41194  1.0000
  H   H140      1.0  0.32181  0.87349  0.20355  1.0000
  C   C128      1.0  0.29990  0.60505  0.43918  1.0000
  H   H141      1.0  0.28348  0.61259  0.43531  1.0000
  C   C129      1.0  0.30794  0.84914  0.13886  1.0000
  C   C130      1.0  0.32426  0.77434  0.44972  1.0000
  H   H142      1.0  0.04692  0.67956  0.24099  1.0000
  C   C131      1.0  0.02777  0.65149  0.20699  1.0000
  C   C132      1.0  0.18870  0.57505  0.41625  1.0000
  C   C133      1.0  0.16843  0.66770  0.09778  1.0000
  C   C134      1.0  0.15291  0.63769  0.06906  1.0000
  H   H143      1.0  0.21445  0.79916  0.02786  1.0000
  H   H144      1.0  0.27166  0.89096  0.14114  1.0000
  H   H145      1.0  0.01655  0.66100  0.22076  1.0000
  H   H146      1.0  0.14175  0.57049  0.31712  1.0000
  C   C135      1.0  0.31939  0.67913  0.47099  1.0000
  H   H147      1.0  0.28233  0.56568  0.44780  1.0000
  H   H148      1.0  0.06783  0.61627  0.16002  1.0000
  C   C136      1.0  0.05804  0.67519  0.22207  1.0000
  S   S56       1.0  0.23044  0.84167  0.00937  1.0000
  C   C137      1.0  0.15124  0.57085  0.33741  1.0000
  H   H149      1.0  0.14839  0.67482  0.99951  1.0000
  H   H150      1.0  0.07417  0.67103  0.23214  1.0000
  N   N13       1.0  0.04968  0.65643  0.20571  1.0000
  C   C138      1.0  0.02615  0.60376  0.25574  1.0000
  C   C139      1.0  0.02610  0.62437  0.26896  1.0000
  C   C140      1.0  0.17416  0.56995  0.33594  1.0000
  H   H151      1.0  0.04139  0.59482  0.25279  1.0000
  C   C141      1.0  0.28972  0.57222  0.46763  1.0000
  C   C142      1.0  0.16504  0.62513  0.34133  1.0000
  C   C143      1.0  0.14652  0.62758  0.35985  1.0000
  C   C144      1.0  0.14901  0.63018  0.39079  1.0000
  C   C145      1.0  0.17000  0.63005  0.40365  1.0000
  C   C146      1.0  0.18851  0.62753  0.38514  1.0000
  C   C147      1.0  0.18603  0.62528  0.35418  1.0000
  H   H152      1.0  0.13027  0.62763  0.35029  1.0000
  H   H153      1.0  0.13457  0.63228  0.40481  1.0000
  H   H154      1.0  0.20477  0.62768  0.39459  1.0000
  H   H155      1.0  0.20047  0.62358  0.34004  1.0000
  C   C148      1.0  0.11443  0.64604  0.14088  1.0000
  C   C149      1.0  0.10864  0.64593  0.11067  1.0000
  C   C150      1.0  0.10926  0.66529  0.09324  1.0000
  C   C151      1.0  0.11603  0.68496  0.10578  1.0000
  C   C152      1.0  0.12112  0.68518  0.13623  1.0000
  C   C153      1.0  0.12022  0.66589  0.15374  1.0000
  H   H156      1.0  0.10400  0.63068  0.10053  1.0000
  H   H157      1.0  0.10522  0.66485  0.06990  1.0000
  H   H158      1.0  0.12641  0.70029  0.14618  1.0000
  H   H159      1.0  0.12485  0.66626  0.17688  1.0000
  C   C154      1.0  0.29535  0.88375  0.17492  1.0000
  C   C155      1.0  0.10716  0.51627  0.25052  1.0000
  H   H160      1.0  0.20404  0.57095  0.36074  1.0000
  H   H161      1.0  0.16258  0.68945  0.04679  1.0000
  H   H162      1.0  0.13666  0.53034  0.23185  1.0000
  N   N14       1.0  0.17574  0.57379  0.38903  1.0000
  C   C156      1.0  0.18623  0.57127  0.36215  1.0000
  C   C157      1.0  0.15324  0.57449  0.39071  1.0000
  N   N15       1.0  0.29942  0.59236  0.46703  1.0000
  H   H163      1.0  0.05997  0.68952  0.20693  1.0000
  C   C158      1.0  0.00641  0.59464  0.24607  1.0000
  H   H164      1.0  0.12286  0.57434  0.36612  1.0000
  H   H165      1.0  0.18659  0.66571  0.09740  1.0000
  C   C159      1.0  0.31909  0.85268  0.16540  1.0000
  H   H166      1.0  0.27026  0.84356  0.10364  1.0000
  H   H167      1.0  0.17982  0.58452  0.43376  1.0000
  C   C160      1.0  0.18314  0.79382  0.00689  1.0000
  H   H168      1.0  0.28103  0.54393  0.49427  1.0000
  H   H169      1.0  0.33208  0.74028  0.44208  1.0000
  C   C161      1.0  0.05634  0.62618  0.17293  1.0000
  S   S57       1.0  0.28698  0.86707  0.01318  1.0000
  C   C162      1.0  0.30829  0.96517  0.04489  1.0000
  C   C163      1.0  0.30658  0.97856  0.01971  1.0000
  H   H170      1.0  0.31201  0.61858  0.43996  1.0000
  C   C164      1.0  0.23553  0.50629  0.46299  1.0000
  S   S58       1.0  0.23638  0.55141  0.46479  1.0000
  C   C165      1.0  0.28001  0.85883  0.10221  1.0000
  C   C166      1.0  0.20225  0.80607  0.01312  1.0000
  C   C167      1.0  0.33196  0.69795  0.47732  1.0000
  C   C168      1.0  0.06384  0.64429  0.18855  1.0000
  H   H171      1.0  0.20445  0.58370  0.41201  1.0000
  H   H172      1.0  0.25072  0.96786  0.02759  1.0000
  H   H173      1.0  0.00576  0.65131  0.28393  1.0000
  H   H174      1.0  0.29071  0.89771  0.18845  1.0000
  H   H175      1.0  0.19244  0.55834  0.42496  1.0000
  H   H176      1.0  0.30834  0.94749  0.04280  1.0000
  H   H177      1.0  0.26879  0.87260  0.09606  1.0000
  H   H178      1.0  0.31775  0.92625  0.13468  1.0000
  H   H179      1.0  0.31091  0.96413  0.09250  1.0000
  H   H180      1.0  0.02892  0.75108  0.03135  1.0000
  H   H181      1.0  0.33135  0.87567  0.07115  1.0000
  C   C169      1.0  0.32746  0.91230  0.12747  1.0000
  C   C170      1.0  0.20568  0.82709  0.00066  1.0000
  N   N16       1.0  0.15918  0.65914  0.07032  1.0000
  Fe  Fe28      1.0  0.23199  0.58538  0.48544  1.0000
  N   N17       1.0  0.29108  0.86274  0.13044  1.0000
  H   H182      1.0  0.30284  0.80848  0.47132  1.0000
  N   N18       1.0  0.32480  0.79524  0.43854  1.0000
  Fe  Fe29      1.0  0.25124  0.87307  0.00176  1.0000
  C   C171      1.0  0.32230  0.90182  0.10077  1.0000
  H   H183      1.0  0.00675  0.57882  0.23541  1.0000
  H   H184      1.0  0.32569  0.66743  0.45504  1.0000
  C   C172      1.0  0.29886  0.67527  0.48506  1.0000
  H   H185      1.0  0.31150  0.82760  0.44299  1.0000
  Fe  Fe30      1.0  0.25130  0.63286  0.48780  1.0000
  C   C173      1.0  0.03418  0.62054  0.17499  1.0000
  C   C174      1.0  0.30974  0.97458  0.07289  1.0000
  H   H186      1.0  0.15394  0.62720  0.08863  1.0000
  H   H187      1.0  0.31334  0.83590  0.12455  1.0000
  C   C175      1.0  0.14436  0.62920  0.04284  1.0000
  C   C176      1.0  0.30944  0.99743  0.07534  1.0000
  H   H188      1.0  0.29234  0.85748  0.08383  1.0000
  C   C177      1.0  0.01972  0.63336  0.19191  1.0000
  C   C178      1.0  0.31695  0.81349  0.45694  1.0000
  H   H189      1.0  0.23281  0.50860  0.43945  1.0000
  C   C179      1.0  0.00596  0.63543  0.27347  1.0000
  C   C180      1.0  0.25243  0.98235  0.01373  1.0000
  C   C181      1.0  0.15772  0.67242  0.04573  1.0000
  H   H190      1.0  0.00254  0.62885  0.19422  1.0000
  C   C182      1.0  0.14954  0.66436  0.01907  1.0000
  H   H191      1.0  0.16153  0.65909  0.11768  1.0000
  H   H192      1.0  0.30443  0.59446  0.42009  1.0000
  H   H193      1.0  0.02830  0.60608  0.16386  1.0000
  C   C183      1.0  0.31276  0.87013  0.18347  1.0000
  H   H194      1.0  0.02934  0.79537  0.00767  1.0000
  C   C184      1.0  0.01473  0.74744  0.01807  1.0000
  S   S59       1.0  0.14204  0.72209  0.00246  1.0000
  S   S60       1.0  0.09274  0.69974  0.00327  1.0000
  C   C185      1.0  0.28883  0.55985  0.49396  1.0000
  C   C186      1.0  0.33242  0.75680  0.43295  1.0000
  H   H195      1.0  0.31482  0.61726  0.49227  1.0000
  C   C187      1.0  0.32425  0.71340  0.49794  1.0000
  C   C188      1.0  0.30779  0.60097  0.49245  1.0000
  H   H196      1.0  0.09952  0.80243  0.00274  1.0000
  C   C189      1.0  0.06434  0.79966  0.00866  1.0000
  H   H197      1.0  0.33315  0.84254  0.17135  1.0000
  C   C190      1.0  0.33376  0.79933  0.41099  1.0000
  Fe  Fe31      1.0  0.21668  0.61735  0.53393  1.0000
  S   S61       1.0  0.25025  0.60423  0.52014  1.0000
  S   S62       1.0  0.20887  0.62146  0.58351  1.0000
  C   C191      1.0  0.30370  0.70957  0.51195  1.0000
  Fe  Fe32      1.0  0.11645  0.58507  0.76055  1.0000
  S   S63       1.0  0.09460  0.58532  0.72107  1.0000
  S   S64       1.0  0.13404  0.55347  0.77291  1.0000
  Fe  Fe33      1.0  0.10801  0.63361  0.77314  1.0000
  S   S65       1.0  0.08585  0.63708  0.73318  1.0000
  S   S66       1.0  0.10967  0.66432  0.80193  1.0000
  Fe  Fe34      1.0  0.07140  0.60537  0.74906  1.0000
  S   S67       1.0  0.03608  0.59476  0.75621  1.0000
  Fe  Fe35      1.0  0.11137  0.61673  0.70842  1.0000
  S   S68       1.0  0.11886  0.61844  0.65827  1.0000
  S   S69       1.0  0.09215  0.60277  0.78989  1.0000
  S   S70       1.0  0.13466  0.61573  0.74696  1.0000
  Fe  Fe36      1.0  0.29512  0.88582  0.97103  1.0000
  C   C192      1.0  0.27859  0.82405  0.95297  1.0000
  S   S71       1.0  0.25976  0.89028  0.95840  1.0000
  S   S72       1.0  0.29748  0.91790  0.99459  1.0000
  H   H198      1.0  0.06370  0.65544  0.78881  1.0000
  H   H199      1.0  0.17106  0.66405  0.50496  1.0000
  H   H200      1.0  0.00974  0.78284  0.96658  1.0000
  H   H201      1.0  0.10238  0.53678  0.65507  1.0000
  H   H202      1.0  0.01493  0.58991  0.68514  1.0000
  Fe  Fe37      1.0  0.11947  0.70629  0.96930  1.0000
  S   S73       1.0  0.12895  0.67679  0.94053  1.0000
  S   S74       1.0  0.10531  0.73856  0.95455  1.0000
  H   H203      1.0  0.29494  0.83112  0.95799  1.0000
  C   C193      1.0  0.14191  0.51491  0.69928  1.0000
  C   C194      1.0  0.17511  0.66529  0.56387  1.0000
  C   C195      1.0  0.13450  0.66295  0.59245  1.0000
  H   H204      1.0  0.27950  0.86735  0.86853  1.0000
  H   H205      1.0  0.29743  0.72126  0.52795  1.0000
  N   N19       1.0  0.15696  0.65937  0.54828  1.0000
  C   C196      1.0  0.15291  0.66912  0.60843  1.0000
  C   C197      1.0  0.08955  0.50950  0.74405  1.0000
  N   N20       1.0  0.26754  0.83702  0.92989  1.0000
  Fe  Fe38      1.0  0.12594  0.75426  0.99010  1.0000
  S   S75       1.0  0.19865  0.59657  0.50151  1.0000
  C   C198      1.0  0.01216  0.62992  0.73340  1.0000
  S   S76       1.0  0.25091  0.95449  0.96526  1.0000
  H   H206      1.0  0.02763  0.63688  0.72604  1.0000
  C   C199      1.0  0.11569  0.66735  0.84037  1.0000
  C   C200      1.0  0.11269  0.68803  0.85349  1.0000
  C   C201      1.0  0.11659  0.69120  0.88403  1.0000
  C   C202      1.0  0.12391  0.67374  0.90182  1.0000
  C   C203      1.0  0.12718  0.65310  0.88862  1.0000
  C   C204      1.0  0.12298  0.64987  0.85814  1.0000
  H   H207      1.0  0.10722  0.70172  0.83996  1.0000
  H   H208      1.0  0.11415  0.70719  0.89373  1.0000
  H   H209      1.0  0.13297  0.63950  0.90206  1.0000
  H   H210      1.0  0.12554  0.63391  0.84838  1.0000
  C   C205      1.0  0.23442  0.85210  0.90911  1.0000
  C   C206      1.0  0.12021  0.52879  0.76549  1.0000
  C   C207      1.0  0.09938  0.52910  0.75271  1.0000
  H   H211      1.0  0.23540  0.83144  0.94796  1.0000
  H   H212      1.0  0.09081  0.54443  0.74938  1.0000
  H   H213      1.0  0.12363  0.57022  0.66507  1.0000
  C   C208      1.0  0.08357  0.79353  0.96220  1.0000
  C   C209      1.0  0.16698  0.80237  0.98797  1.0000
  H   H214      1.0  0.11390  0.50112  0.67780  1.0000
  S   S77       1.0  0.14217  0.78784  0.97934  1.0000
  H   H215      1.0  0.15146  0.67212  0.63214  1.0000
  H   H216      1.0  0.14888  0.58863  0.69498  1.0000
  H   H217      1.0  0.29650  0.55911  0.54057  1.0000
  H   H218      1.0  0.07902  0.62899  0.89558  1.0000
  C   C210      1.0  0.18406  0.61797  0.60445  1.0000
  C   C211      1.0  0.18402  0.62256  0.63507  1.0000
  C   C212      1.0  0.16439  0.62197  0.65217  1.0000
  C   C213      1.0  0.14450  0.61679  0.63877  1.0000
  C   C214      1.0  0.14463  0.61156  0.60834  1.0000
  C   C215      1.0  0.16428  0.61210  0.59125  1.0000
  H   H219      1.0  0.19922  0.62716  0.64551  1.0000
  H   H220      1.0  0.16458  0.62627  0.67544  1.0000
  H   H221      1.0  0.12934  0.60753  0.59773  1.0000
  H   H222      1.0  0.16405  0.60844  0.56778  1.0000
  H   H223      1.0  0.16288  0.57416  0.72389  1.0000
  H   H224      1.0  0.00864  0.55717  0.71648  1.0000
  C   C216      1.0  0.17047  0.82336  0.97540  1.0000
  C   C217      1.0  0.17335  0.67037  0.59409  1.0000
  H   H225      1.0  0.11872  0.66113  0.60377  1.0000
  C   C218      1.0  0.29751  0.56839  0.51990  1.0000
  N   N21       1.0  0.05690  0.65356  0.83501  1.0000
  C   C219      1.0  0.06553  0.63733  0.85266  1.0000
  C   C220      1.0  0.05474  0.67445  0.84546  1.0000
  C   C221      1.0  0.24681  0.86241  0.88675  1.0000
  C   C222      1.0  0.06061  0.67940  0.87462  1.0000
  C   C223      1.0  0.06911  0.66289  0.89290  1.0000
  H   H226      1.0  0.19173  0.85170  0.97182  1.0000
  H   H227      1.0  0.09887  0.79253  0.94949  1.0000
  H   H228      1.0  0.04876  0.68749  0.83106  1.0000
  H   H229      1.0  0.19125  0.66540  0.55330  1.0000
  H   H230      1.0  0.05924  0.69604  0.88275  1.0000
  C   C224      1.0  0.15947  0.65302  0.51704  1.0000
  C   C225      1.0  0.25334  0.98029  0.98279  1.0000
  H   H231      1.0  0.12259  0.65258  0.55019  1.0000
  C   C226      1.0  0.01771  0.73879  0.98957  1.0000
  C   C227      1.0  0.24099  0.52140  0.51173  1.0000
  H   H232      1.0  0.18796  0.67421  0.60655  1.0000
  C   C228      1.0  0.05086  0.64894  0.80424  1.0000
  H   H233      1.0  0.30198  0.90678  0.90434  1.0000
  C   C229      1.0  0.24512  0.83926  0.93053  1.0000
  N   N22       1.0  0.14649  0.55376  0.69336  1.0000
  C   C230      1.0  0.15325  0.53418  0.70527  1.0000
  C   C231      1.0  0.12882  0.55471  0.67483  1.0000
  C   C232      1.0  0.32825  0.88293  0.90466  1.0000
  Fe  Fe39      1.0  0.07934  0.73285  0.99007  1.0000
  C   C233      1.0  0.12337  0.51583  0.68140  1.0000
  C   C234      1.0  0.18959  0.83560  0.98160  1.0000
  N   N23       1.0  0.04426  0.78981  0.96515  1.0000
  H   H234      1.0  0.26891  0.82412  0.97416  1.0000
  H   H235      1.0  0.02461  0.77118  0.93613  1.0000
  C   C235      1.0  0.02332  0.78599  0.95030  1.0000
  C   C236      1.0  0.31570  0.89982  0.89199  1.0000
  H   H236      1.0  0.16700  0.53351  0.72040  1.0000
  C   C237      1.0  0.29113  0.69073  0.50564  1.0000
  H   H237      1.0  0.23881  0.87278  0.87035  1.0000
  H   H238      1.0  0.03480  0.65670  0.79878  1.0000
  C   C238      1.0  0.07165  0.64172  0.88189  1.0000
  C   C239      1.0  0.27968  0.84625  0.90729  1.0000
  C   C240      1.0  0.11682  0.53582  0.66891  1.0000
  C   C241      1.0  0.13072  0.50854  0.77072  1.0000
  H   H239      1.0  0.24243  0.53535  0.52620  1.0000
  H   H240      1.0  0.04922  0.63108  0.80029  1.0000
  H   H241      1.0  0.16592  0.63597  0.51563  1.0000
  C   C242      1.0  0.26959  0.85937  0.88568  1.0000
  H   H242      1.0  0.14676  0.50813  0.78086  1.0000
  C   C243      1.0  0.01201  0.61033  0.74980  1.0000
  H   H243      1.0  0.07447  0.66669  0.91521  1.0000
  C   C244      1.0  0.30701  0.58912  0.51923  1.0000
  S   S78       1.0  0.04417  0.73565  0.97256  1.0000
  C   C245      1.0  0.04450  0.79502  0.99468  1.0000
  C   C246      1.0  0.15875  0.57366  0.69986  1.0000
  H   H244      1.0  0.15820  0.83030  0.96079  1.0000
  H   H245      1.0  0.06807  0.62097  0.84406  1.0000
  H   H246      1.0  0.14364  0.65393  0.50499  1.0000
  C   C247      1.0  0.06347  0.78889  0.94896  1.0000
  H   H247      1.0  0.29738  0.84387  0.90620  1.0000
  H   H248      1.0  0.17411  0.57423  0.68623  1.0000
  H   H249      1.0  0.07360  0.51002  0.73371  1.0000
  H   H250      1.0  0.21670  0.85428  0.91024  1.0000
  H   H251      1.0  0.28083  0.80690  0.94550  1.0000
  H   H252      1.0  0.01884  0.80039  0.93635  1.0000
  H   H253      1.0  0.06334  0.78429  0.92574  1.0000
  C   C248      1.0  0.13685  0.65800  0.56222  1.0000
  H   H254      1.0  0.30485  0.97131  0.99790  1.0000
  Fe  Fe40      1.0  0.26152  0.92155  0.98515  1.0000
  H   H255      1.0  0.27548  0.68819  0.51678  1.0000
  H   H256      1.0  0.31336  0.59619  0.53939  1.0000
  S   S79       1.0  0.32188  0.87198  0.94049  1.0000
  C   C249      1.0  0.08395  0.79907  0.99218  1.0000
  S   S80       1.0  0.21862  0.64680  0.50322  1.0000
  H   H257      1.0  0.25575  0.99792  0.94115  1.0000
  C   C250      1.0  0.32095  0.90779  0.86326  1.0000
  H   H258      1.0  0.31117  0.92090  0.85371  1.0000
  C   C251      1.0  0.24353  0.49993  0.52329  1.0000
  H   H259      1.0  0.14692  0.49952  0.70951  1.0000
  H   H260      1.0  0.33333  0.93369  0.64181  1.0000
  H   H261      1.0  0.00107  0.72781  0.95045  1.0000
  H   H262      1.0  0.13610  0.63648  0.99713  1.0000
  Fe  Fe41      1.0  0.36953  0.09859  0.21046  1.0000
  S   S81       1.0  0.36148  0.09236  0.25903  1.0000
  H   H263      1.0  0.61510  0.04748  0.20305  1.0000
  Fe  Fe42      1.0  0.41701  0.11068  0.22472  1.0000
  S   S82       1.0  0.41247  0.10562  0.27378  1.0000
  S   S83       1.0  0.44936  0.12206  0.20495  1.0000
  Fe  Fe43      1.0  0.39434  0.07527  0.26055  1.0000
  S   S84       1.0  0.40424  0.04389  0.28410  1.0000
  Fe  Fe44      1.0  0.38028  0.12320  0.26815  1.0000
  S   S85       1.0  0.36688  0.15093  0.29716  1.0000
  S   S86       1.0  0.40122  0.07919  0.21172  1.0000
  S   S87       1.0  0.38596  0.13067  0.21941  1.0000
  Fe  Fe45      1.0  0.57142  0.10597  0.25891  1.0000
  S   S88       1.0  0.59621  0.10078  0.29512  1.0000
  S   S89       1.0  0.53642  0.09933  0.27455  1.0000
  Fe  Fe46      1.0  0.60739  0.11741  0.21221  1.0000
  S   S90       1.0  0.63439  0.11365  0.24546  1.0000
  S   S91       1.0  0.61219  0.12346  0.16222  1.0000
  Fe  Fe47      1.0  0.61620  0.08329  0.26008  1.0000
  S   S92       1.0  0.63456  0.05101  0.26558  1.0000
  Fe  Fe48      1.0  0.61174  0.13159  0.27761  1.0000
  S   S93       1.0  0.62065  0.16133  0.30559  1.0000
  S   S94       1.0  0.59029  0.08614  0.22533  1.0000
  S   S95       1.0  0.58581  0.13777  0.24294  1.0000
  Fe  Fe49      1.0  0.39670  0.20717  0.45691  1.0000
  S   S96       1.0  0.40568  0.24296  0.45839  1.0000
  S   S97       1.0  0.40597  0.18205  0.42108  1.0000
  H   H264      1.0  0.35536  0.14241  0.40004  1.0000
  H   H265      1.0  0.44871  0.05008  0.26151  1.0000
  C   C252      1.0  0.35444  0.14616  0.42358  1.0000
  H   H266      1.0  0.35839  0.12964  0.14541  1.0000
  H   H267      1.0  0.42697  0.18111  0.26316  1.0000
  Fe  Fe50      1.0  0.61767  0.20343  0.47144  1.0000
  S   S98       1.0  0.61495  0.23766  0.45303  1.0000
  S   S99       1.0  0.62159  0.17111  0.44684  1.0000
  C   C253      1.0  0.50592  0.24529  0.45843  1.0000
  H   H268      1.0  0.57289  0.14359  0.36936  1.0000
  Fe  Fe51      1.0  0.58380  0.23980  0.48126  1.0000
  H   H269      1.0  0.56600  0.20366  0.43449  1.0000
  C   C254      1.0  0.43022  0.29896  0.45373  1.0000
  H   H270      1.0  0.56281  0.16701  0.41187  1.0000
  S   S100      1.0  0.35220  0.27774  0.47178  1.0000
  S   S101      1.0  0.55124  0.24884  0.45924  1.0000
  H   H271      1.0  0.65767  0.07636  0.11729  1.0000
  H   H272      1.0  0.58203  0.23074  0.34853  1.0000
  H   H273      1.0  0.65844  0.12053  0.17974  1.0000
  C   C255      1.0  0.61345  0.06047  0.15845  1.0000
  C   C256      1.0  0.63692  0.12301  0.11043  1.0000
  N   N24       1.0  0.45095  0.15680  0.27319  1.0000
  C   C257      1.0  0.61922  0.02715  0.25947  1.0000
  C   C258      1.0  0.49319  0.14550  0.29117  1.0000
  C   C259      1.0  0.59639  0.02830  0.25650  1.0000
  C   C260      1.0  0.57401  0.21964  0.39296  1.0000
  H   H274      1.0  0.58788  0.04385  0.25860  1.0000
  C   C261      1.0  0.62240  0.16853  0.40751  1.0000
  C   C262      1.0  0.61979  0.14772  0.39488  1.0000
  C   C263      1.0  0.61976  0.14508  0.36373  1.0000
  C   C264      1.0  0.62255  0.16323  0.34488  1.0000
  C   C265      1.0  0.62578  0.18392  0.35756  1.0000
  C   C266      1.0  0.62545  0.18662  0.38866  1.0000
  H   H275      1.0  0.61766  0.13357  0.40924  1.0000
  H   H276      1.0  0.61746  0.12903  0.35431  1.0000
  H   H277      1.0  0.62818  0.19803  0.34318  1.0000
  H   H278      1.0  0.62772  0.20268  0.39803  1.0000
  C   C267      1.0  0.63741  0.12259  0.14174  1.0000
  C   C268      1.0  0.48458  0.24413  0.47122  1.0000
  C   C269      1.0  0.52474  0.24594  0.47634  1.0000
  H   H279      1.0  0.47740  0.13221  0.33044  1.0000
  C   C270      1.0  0.47383  0.11293  0.22194  1.0000
  C   C271      1.0  0.49428  0.11945  0.21013  1.0000
  C   C272      1.0  0.51388  0.11445  0.22522  1.0000
  C   C273      1.0  0.51303  0.10294  0.25224  1.0000
  C   C274      1.0  0.49266  0.09565  0.26336  1.0000
  C   C275      1.0  0.47314  0.10058  0.24826  1.0000
  H   H280      1.0  0.49493  0.12892  0.18968  1.0000
  H   H281      1.0  0.52952  0.12010  0.21647  1.0000
  H   H282      1.0  0.49193  0.08671  0.28423  1.0000
  H   H283      1.0  0.45756  0.09533  0.25746  1.0000
  C   C276      1.0  0.39076  0.01910  0.27658  1.0000
  H   H284      1.0  0.44671  0.05544  0.22217  1.0000
  C   C277      1.0  0.37170  0.01865  0.25954  1.0000
  H   H285      1.0  0.44002  0.14298  0.31452  1.0000
  H   H286      1.0  0.36461  0.03379  0.25122  1.0000
  C   C278      1.0  0.37785  0.15941  0.33165  1.0000
  C   C279      1.0  0.39578  0.14864  0.34457  1.0000
  C   C280      1.0  0.40428  0.15606  0.37168  1.0000
  C   C281      1.0  0.39482  0.17415  0.38644  1.0000
  C   C282      1.0  0.37668  0.18474  0.37376  1.0000
  C   C283      1.0  0.36831  0.17744  0.34647  1.0000
  H   H287      1.0  0.40297  0.13447  0.33382  1.0000
  H   H288      1.0  0.41818  0.14761  0.38143  1.0000
  H   H289      1.0  0.36917  0.19862  0.38488  1.0000
  S   S102      1.0  0.34251  0.09053  0.17743  1.0000
  C   C284      1.0  0.64718  0.05572  0.18550  1.0000
  H   H290      1.0  0.65267  0.31324  0.47607  1.0000
  C   C285      1.0  0.45404  0.04433  0.23915  1.0000
  H   H291      1.0  0.50786  0.24584  0.43450  1.0000
  H   H292      1.0  0.35439  0.18587  0.33673  1.0000
  H   H293      1.0  0.39411  0.12714  0.49396  1.0000
  C   C286      1.0  0.62556  0.06848  0.13421  1.0000
  C   C287      1.0  0.39178  0.14484  0.48899  1.0000
  C   C288      1.0  0.42881  0.16300  0.26347  1.0000
  S   S103      1.0  0.36437  0.21220  0.48110  1.0000
  C   C289      1.0  0.56671  0.18098  0.39777  1.0000
  H   H294      1.0  0.34762  0.16685  0.23991  1.0000
  H   H295      1.0  0.56671  0.01027  0.24902  1.0000
  H   H296      1.0  0.37919  0.31553  0.47575  1.0000
  C   C290      1.0  0.37274  0.14259  0.44159  1.0000
  H   H297      1.0  0.41658  0.03066  0.21537  1.0000
  H   H298      1.0  0.65536  0.05129  0.20605  1.0000
  N   N25       1.0  0.37212  0.14823  0.47095  1.0000
  H   H299      1.0  0.57832  0.19394  0.32650  1.0000
  C   C291      1.0  0.33689  0.10203  0.14182  1.0000
  H   H300      1.0  0.44067  0.29781  0.43405  1.0000
  H   H301      1.0  0.50961  0.14025  0.29752  1.0000
  H   H302      1.0  0.46616  0.16880  0.23332  1.0000
  C   C292      1.0  0.45397  0.14674  0.30018  1.0000
  C   C293      1.0  0.64846  0.06971  0.13606  1.0000
  C   C294      1.0  0.57520  0.19606  0.35015  1.0000
  H   H303      1.0  0.42595  0.15666  0.24076  1.0000
  C   C295      1.0  0.34623  0.12171  0.13198  1.0000
  H   H304      1.0  0.65573  0.12101  0.06924  1.0000
  C   C296      1.0  0.56680  0.15688  0.35446  1.0000
  H   H305      1.0  0.34660  0.14675  0.09766  1.0000
  H   H306      1.0  0.47032  0.24378  0.45712  1.0000
  C   C297      1.0  0.48998  0.15609  0.26394  1.0000
  H   H307      1.0  0.38777  0.13613  0.43164  1.0000
  C   C298      1.0  0.47510  0.14079  0.30947  1.0000
  S   S104      1.0  0.41480  0.19908  0.49905  1.0000
  H   H308      1.0  0.59563  0.06001  0.15768  1.0000
  C   C299      1.0  0.56862  0.20160  0.41075  1.0000
  H   H309      1.0  0.62127  0.12458  0.09939  1.0000
  H   H310      1.0  0.50388  0.15915  0.24913  1.0000
  H   H311      1.0  0.54911  0.15434  0.35004  1.0000
  H   H312      1.0  0.57559  0.23568  0.40293  1.0000
  C   C300      1.0  0.46861  0.16150  0.25514  1.0000
  Fe  Fe52      1.0  0.63313  0.24846  0.49417  1.0000
  N   N26       1.0  0.44709  0.02160  0.23515  1.0000
  C   C301      1.0  0.65645  0.12104  0.09326  1.0000
  H   H313      1.0  0.61721  0.07450  0.11455  1.0000
  H   H314      1.0  0.47221  0.04586  0.23705  1.0000
  C   C302      1.0  0.57744  0.21688  0.36247  1.0000
  C   C303      1.0  0.35322  0.15656  0.48346  1.0000
  H   H315      1.0  0.41576  0.15620  0.27838  1.0000
  C   C304      1.0  0.58441  0.00924  0.25113  1.0000
  N   N27       1.0  0.57002  0.17842  0.36783  1.0000
  C   C305      1.0  0.62435  0.05366  0.18404  1.0000
  H   H316      1.0  0.57620  0.15528  0.33315  1.0000
  H   H317      1.0  0.64766  0.00580  0.25947  1.0000
  Fe  Fe53      1.0  0.37402  0.24780  0.48537  1.0000
  C   C306      1.0  0.40902  0.30777  0.45183  1.0000
  C   C307      1.0  0.65777  0.12070  0.15571  1.0000
  C   C308      1.0  0.39573  0.30879  0.47742  1.0000
  C   C309      1.0  0.45987  0.00480  0.24586  1.0000
  C   C310      1.0  0.62998  0.00677  0.25718  1.0000
  H   H318      1.0  0.40275  0.31350  0.43064  1.0000
  C   C311      1.0  0.42729  0.01734  0.22239  1.0000
  C   C312      1.0  0.43785  0.29137  0.48108  1.0000
  H   H319      1.0  0.41456  0.99956  0.30039  1.0000
  C   C313      1.0  0.33944  0.13142  0.10496  1.0000
  H   H320      1.0  0.40655  0.15120  0.47695  1.0000
  S   S105      1.0  0.58595  0.20518  0.49735  1.0000
  C   C314      1.0  0.39979  0.99933  0.28724  1.0000
  H   H321      1.0  0.45429  0.28439  0.48282  1.0000
  H   H322      1.0  0.33986  0.17851  0.18779  1.0000
  N   N28       1.0  0.65894  0.06366  0.16166  1.0000
  H   H323      1.0  0.47528  0.00818  0.25670  1.0000
  H   H324      1.0  0.60122  0.00480  0.31874  1.0000
  C   C315      1.0  0.33627  0.15766  0.22648  1.0000
  S   S106      1.0  0.66501  0.26903  0.49846  1.0000
  C   C316      1.0  0.33533  0.15527  0.43593  1.0000
  C   C317      1.0  0.33461  0.16037  0.46612  1.0000
  H   H325      1.0  0.34654  0.99830  0.24103  1.0000
  C   C318      1.0  0.36152  0.99854  0.25372  1.0000
  Fe  Fe54      1.0  0.38336  0.20638  0.52355  1.0000
  S   S107      1.0  0.39107  0.24218  0.52929  1.0000
  S   S108      1.0  0.37053  0.18039  0.55649  1.0000
  Fe  Fe55      1.0  0.60559  0.21799  0.53505  1.0000
  S   S109      1.0  0.60155  0.25337  0.52083  1.0000
  S   S110      1.0  0.59500  0.20756  0.58190  1.0000
  Fe  Fe56      1.0  0.38168  0.07972  0.73643  1.0000
  S   S111      1.0  0.40309  0.07848  0.77645  1.0000
  S   S112      1.0  0.36027  0.05004  0.73129  1.0000
  Fe  Fe57      1.0  0.39590  0.12597  0.71871  1.0000
  S   S113      1.0  0.41801  0.12791  0.75857  1.0000
  S   S114      1.0  0.39829  0.15729  0.69035  1.0000
  Fe  Fe58      1.0  0.42863  0.09382  0.74683  1.0000
  S   S115      1.0  0.46284  0.07887  0.74470  1.0000
  Fe  Fe59      1.0  0.39025  0.11239  0.78482  1.0000
  S   S116      1.0  0.38223  0.12258  0.83244  1.0000
  S   S117      1.0  0.40820  0.09247  0.70561  1.0000
  S   S118      1.0  0.36725  0.11310  0.74623  1.0000
  Fe  Fe60      1.0  0.59576  0.07572  0.73382  1.0000
  S   S119      1.0  0.59097  0.09022  0.77909  1.0000
  S   S120      1.0  0.58090  0.04229  0.72747  1.0000
  Fe  Fe61      1.0  0.61582  0.11796  0.70773  1.0000
  S   S121      1.0  0.61270  0.13559  0.75144  1.0000
  S   S122      1.0  0.63196  0.13099  0.66495  1.0000
  Fe  Fe62      1.0  0.62485  0.10418  0.77298  1.0000
  S   S123      1.0  0.65290  0.09787  0.80578  1.0000
  Fe  Fe63      1.0  0.57913  0.11990  0.75403  1.0000
  S   S124      1.0  0.54709  0.13694  0.76602  1.0000
  S   S125      1.0  0.63039  0.08751  0.72880  1.0000
  S   S126      1.0  0.58156  0.10456  0.70906  1.0000
  C   C319      1.0  0.59682  0.01822  0.72326  1.0000
  C   C320      1.0  0.61976  0.01869  0.72037  1.0000
  C   C321      1.0  0.36378  0.05932  0.83722  1.0000
  H   H326      1.0  0.62816  0.03423  0.71948  1.0000
  H   H327      1.0  0.36161  0.14340  0.59470  1.0000
  C   C322      1.0  0.33813  0.11134  0.83843  1.0000
  H   H328      1.0  0.43693  0.12896  0.67849  1.0000
  H   H329      1.0  0.33823  0.10897  0.81461  1.0000
  C   C323      1.0  0.40899  0.00571  0.71553  1.0000
  C   C324      1.0  0.48595  0.09489  0.75295  1.0000
  C   C325      1.0  0.50705  0.08605  0.74804  1.0000
  C   C326      1.0  0.52585  0.09871  0.75266  1.0000
  C   C327      1.0  0.52371  0.12031  0.76238  1.0000
  C   C328      1.0  0.50261  0.12911  0.76770  1.0000
  C   C329      1.0  0.48376  0.11645  0.76294  1.0000
  H   H330      1.0  0.50896  0.06945  0.74019  1.0000
  H   H331      1.0  0.54201  0.09173  0.74856  1.0000
  H   H332      1.0  0.50086  0.14580  0.77531  1.0000
  H   H333      1.0  0.46759  0.12340  0.76686  1.0000
  C   C330      1.0  0.37523  0.02533  0.72779  1.0000
  C   C331      1.0  0.39735  0.02551  0.71895  1.0000
  H   H334      1.0  0.39059  0.15378  0.51040  1.0000
  H   H335      1.0  0.40537  0.04090  0.71406  1.0000
  C   C332      1.0  0.35864  0.17318  0.84477  1.0000
  C   C333      1.0  0.62172  0.25485  0.59850  1.0000
  C   C334      1.0  0.60647  0.18725  0.60561  1.0000
  C   C335      1.0  0.59507  0.18157  0.63194  1.0000
  C   C336      1.0  0.60295  0.16478  0.65081  1.0000
  C   C337      1.0  0.62250  0.15368  0.64364  1.0000
  C   C338      1.0  0.63426  0.15984  0.61776  1.0000
  C   C339      1.0  0.62625  0.17648  0.59872  1.0000
  H   H336      1.0  0.57983  0.18995  0.63756  1.0000
  H   H337      1.0  0.59380  0.16025  0.67070  1.0000
  H   H338      1.0  0.64944  0.15137  0.61214  1.0000
  H   H339      1.0  0.63529  0.18082  0.57868  1.0000
  C   C340      1.0  0.37959  0.17368  0.59310  1.0000
  C   C341      1.0  0.37222  0.15417  0.60680  1.0000
  C   C342      1.0  0.37825  0.14856  0.63617  1.0000
  C   C343      1.0  0.39145  0.16261  0.65246  1.0000
  C   C344      1.0  0.39892  0.18205  0.63873  1.0000
  C   C345      1.0  0.39322  0.18747  0.60918  1.0000
  H   H340      1.0  0.37167  0.12569  0.89466  1.0000
  H   H341      1.0  0.37225  0.13361  0.64636  1.0000
  H   H342      1.0  0.40904  0.19315  0.65108  1.0000
  H   H343      1.0  0.39896  0.20256  0.59909  1.0000
  H   H344      1.0  0.48720  0.03531  0.74249  1.0000
  H   H345      1.0  0.56498  0.00924  0.80007  1.0000
  H   H346      1.0  0.42592  0.00599  0.70782  1.0000
  H   H347      1.0  0.64957  0.99932  0.71647  1.0000
  C   C346      1.0  0.35741  0.11757  0.85256  1.0000
  H   H348      1.0  0.37073  0.04633  0.79357  1.0000
  H   H349      1.0  0.56589  0.14548  0.59915  1.0000
  H   H350      1.0  0.62430  0.05777  0.80909  1.0000
  H   H351      1.0  0.44605  0.16815  0.68382  1.0000
  C   C347      1.0  0.33807  0.03851  0.80874  1.0000
  C   C348      1.0  0.34806  0.06089  0.86013  1.0000
  H   H352      1.0  0.49865  0.24496  0.54399  1.0000
  C   C349      1.0  0.45892  0.15578  0.68569  1.0000
  C   C350      1.0  0.59327  0.12286  0.60113  1.0000
  H   H353      1.0  0.51996  0.16169  0.72116  1.0000
  C   C351      1.0  0.49189  0.12433  0.69066  1.0000
  C   C352      1.0  0.47029  0.11785  0.68527  1.0000
  C   C353      1.0  0.45376  0.13371  0.68266  1.0000
  H   H354      1.0  0.50454  0.11183  0.69314  1.0000
  H   H355      1.0  0.62512  0.14139  0.50628  1.0000
  H   H356      1.0  0.39308  0.17725  0.80791  1.0000
  C   C354      1.0  0.36494  0.00524  0.73380  1.0000
  H   H357      1.0  0.44803  0.02949  0.75588  1.0000
  C   C355      1.0  0.37789  0.17388  0.79652  1.0000
  C   C356      1.0  0.52193  0.24533  0.50727  1.0000
  H   H358      1.0  0.37961  0.06725  0.83920  1.0000
  H   H359      1.0  0.66216  0.30799  0.55350  1.0000
  C   C357      1.0  0.58051  0.13927  0.58788  1.0000
  H   H360      1.0  0.63767  0.30124  0.53370  1.0000
  C   C358      1.0  0.48146  0.01892  0.74783  1.0000
  C   C359      1.0  0.45942  0.01566  0.75550  1.0000
  H   H361      1.0  0.64851  0.04171  0.80268  1.0000
  H   H362      1.0  0.39327  0.17525  0.75283  1.0000
  S   S127      1.0  0.63776  0.21349  0.51085  1.0000
  C   C360      1.0  0.49592  0.00103  0.74677  1.0000
  N   N29       1.0  0.64334  0.28145  0.57173  1.0000
  C   C361      1.0  0.63959  0.24036  0.59840  1.0000
  C   C362      1.0  0.62384  0.27539  0.58478  1.0000
  C   C363      1.0  0.35875  0.04787  0.81152  1.0000
  C   C364      1.0  0.65596  0.10521  0.84370  1.0000
  H   H363      1.0  0.58785  0.04245  0.79921  1.0000
  C   C365      1.0  0.64480  0.30264  0.55624  1.0000
  C   C366      1.0  0.66094  0.26730  0.57148  1.0000
  H   H364      1.0  0.60964  0.28626  0.58407  1.0000
  C   C367      1.0  0.33740  0.11741  0.90031  1.0000
  N   N30       1.0  0.61822  0.02475  0.79638  1.0000
  C   C368      1.0  0.58744  0.14856  0.56081  1.0000
  H   H365      1.0  0.62323  0.10393  0.59817  1.0000
  H   H366      1.0  0.63230  0.05082  0.77157  1.0000
  C   C369      1.0  0.61375  0.15204  0.51940  1.0000
  H   H367      1.0  0.52569  0.16354  0.68156  1.0000
  C   C370      1.0  0.33978  0.16565  0.79807  1.0000
  H   H368      1.0  0.39498  0.29151  0.54892  1.0000
  H   H369      1.0  0.48453  0.17885  0.69394  1.0000
  H   H370      1.0  0.46633  0.10059  0.68379  1.0000
  C   C371      1.0  0.64044  0.11811  0.85888  1.0000
  H   H371      1.0  0.62574  0.12361  0.84763  1.0000
  H   H372      1.0  0.37204  0.29541  0.52494  1.0000
  C   C372      1.0  0.48066  0.16168  0.69136  1.0000
  N   N31       1.0  0.49681  0.14602  0.69375  1.0000
  C   C373      1.0  0.50058  0.24477  0.52005  1.0000
  C   C374      1.0  0.51940  0.15277  0.69972  1.0000
  H   H373      1.0  0.63793  0.22418  0.60839  1.0000
  H   H374      1.0  0.63191  0.13409  0.90016  1.0000
  C   C375      1.0  0.35688  0.12073  0.88351  1.0000
  H   H375      1.0  0.35880  0.16700  0.72653  1.0000
  H   H376      1.0  0.34781  0.00500  0.74062  1.0000
  C   C376      1.0  0.61273  0.11594  0.58724  1.0000
  H   H377      1.0  0.58870  0.11621  0.62282  1.0000
  C   C377      1.0  0.59581  0.02648  0.79864  1.0000
  C   C378      1.0  0.38863  0.30174  0.53029  1.0000
  C   C379      1.0  0.33945  0.16434  0.76701  1.0000
  C   C380      1.0  0.64401  0.12406  0.88868  1.0000
  H   H378      1.0  0.59961  0.15594  0.50478  1.0000
  C   C381      1.0  0.35874  0.16809  0.75065  1.0000
  H   H379      1.0  0.35675  0.19077  0.85034  1.0000
  C   C382      1.0  0.63183  0.99894  0.71856  1.0000
  H   H380      1.0  0.53616  0.24596  0.52140  1.0000
  C   C383      1.0  0.37812  0.17275  0.76545  1.0000
  H   H381      1.0  0.35201  0.07011  0.87984  1.0000
  H   H382      1.0  0.53084  0.13851  0.70190  1.0000
  N   N32       1.0  0.60637  0.14141  0.54708  1.0000
  H   H383      1.0  0.35255  0.16073  0.50683  1.0000
  H   H384      1.0  0.57800  0.16205  0.55136  1.0000
  H   H385      1.0  0.63458  0.12046  0.54985  1.0000
  H   H386      1.0  0.38690  0.31893  0.53785  1.0000
  C   C384      1.0  0.63149  0.04466  0.79484  1.0000
  S   S128      1.0  0.45523  0.24550  0.51959  1.0000
  C   C385      1.0  0.61912  0.12550  0.56009  1.0000
  Fe  Fe64      1.0  0.42184  0.23488  0.50191  1.0000
  H   H387      1.0  0.62235  0.16749  0.52446  1.0000
  H   H388      1.0  0.60612  0.24987  0.60835  1.0000
  C   C386      1.0  0.42399  0.29231  0.50613  1.0000
  H   H389      1.0  0.63581  0.31562  0.56871  1.0000
  N   N33       1.0  0.35884  0.17044  0.81240  1.0000
  H   H390      1.0  0.33731  0.11970  0.92415  1.0000
  H   H391      1.0  0.51305  0.00338  0.74044  1.0000
  H   H392      1.0  0.34503  0.16384  0.85556  1.0000
  C   C387      1.0  0.58276  0.00773  0.79906  1.0000
  C   C388      1.0  0.65932  0.24654  0.58472  1.0000
  H   H393      1.0  0.37415  0.16673  0.85453  1.0000
  C   C389      1.0  0.48177  0.24417  0.50218  1.0000
  C   C390      1.0  0.66309  0.11720  0.90371  1.0000
  H   H394      1.0  0.64578  0.00332  0.79012  1.0000
  C   C391      1.0  0.62814  0.00465  0.79353  1.0000
  H   H395      1.0  0.42999  0.28592  0.52715  1.0000
  N   N34       1.0  0.40311  0.30072  0.50399  1.0000
  H   H396      1.0  0.33403  0.02998  0.78847  1.0000
  S   S129      1.0  0.66726  0.12624  0.94070  1.0000
  Fe  Fe65      1.0  0.42501  0.90830  0.23809  1.0000
  S   S130      1.0  0.40627  0.91182  0.28123  1.0000
  S   S131      1.0  0.45854  0.92354  0.23145  1.0000
  Fe  Fe66      1.0  0.38585  0.88822  0.20569  1.0000
  S   S132      1.0  0.36416  0.88970  0.24646  1.0000
  S   S133      1.0  0.37670  0.87384  0.16089  1.0000
  Fe  Fe67      1.0  0.37856  0.92340  0.25215  1.0000
  S   S134      1.0  0.35740  0.95381  0.25680  1.0000
  Fe  Fe68      1.0  0.39373  0.87783  0.27228  1.0000
  S   S135      1.0  0.39564  0.84762  0.30293  1.0000
  S   S136      1.0  0.39822  0.92242  0.20977  1.0000
  S   S137      1.0  0.41453  0.87377  0.23062  1.0000
  Fe  Fe69      1.0  0.59332  0.93111  0.24326  1.0000
  S   S138      1.0  0.59144  0.91170  0.20128  1.0000
  S   S139      1.0  0.57898  0.96538  0.24399  1.0000
  Fe  Fe70      1.0  0.61083  0.89190  0.28002  1.0000
  S   S140      1.0  0.61048  0.86946  0.24056  1.0000
  S   S141      1.0  0.62300  0.88528  0.32721  1.0000
  Fe  Fe71      1.0  0.62447  0.89784  0.21396  1.0000
  H   H397      1.0  0.34976  0.78567  0.37215  1.0000
  Fe  Fe72      1.0  0.57748  0.88537  0.23112  1.0000
  S   S142      1.0  0.54622  0.86735  0.22058  1.0000
  S   S143      1.0  0.62718  0.91935  0.25432  1.0000
  S   S144      1.0  0.57705  0.90572  0.27222  1.0000
  Fe  Fe73      1.0  0.60361  0.79410  0.45789  1.0000
  S   S145      1.0  0.60070  0.75816  0.46984  1.0000
  S   S146      1.0  0.59840  0.80246  0.40882  1.0000
  Fe  Fe74      1.0  0.38177  0.80437  0.46948  1.0000
  S   S147      1.0  0.38707  0.76941  0.45598  1.0000
  S   S148      1.0  0.37071  0.83295  0.44002  1.0000
  N   N35       1.0  0.47501  0.89296  0.15983  1.0000
  C   C392      1.0  0.43309  0.97855  0.23008  1.0000
  H   H398      1.0  0.46317  0.96968  0.25198  1.0000
  N   N36       1.0  0.61775  0.95244  0.33132  1.0000
  H   H399      1.0  0.42308  0.85682  0.15995  1.0000
  H   H400      1.0  0.65483  0.72411  0.44524  1.0000
  C   C393      1.0  0.61568  0.86232  0.34981  1.0000
  C   C394      1.0  0.62285  0.86124  0.37945  1.0000
  C   C395      1.0  0.61747  0.84324  0.39805  1.0000
  C   C396      1.0  0.60497  0.82604  0.38707  1.0000
  C   C397      1.0  0.59794  0.82709  0.35741  1.0000
  C   C398      1.0  0.60314  0.84515  0.33892  1.0000
  H   H401      1.0  0.63258  0.87441  0.38809  1.0000
  H   H402      1.0  0.62302  0.84268  0.42079  1.0000
  H   H403      1.0  0.58828  0.81389  0.34866  1.0000
  H   H404      1.0  0.59753  0.84572  0.31619  1.0000
  H   H405      1.0  0.62415  0.77490  0.37000  1.0000
  C   C399      1.0  0.64339  0.87894  0.13143  1.0000
  H   H406      1.0  0.62798  0.87481  0.14235  1.0000
  C   C400      1.0  0.61795  0.98763  0.25184  1.0000
  H   H407      1.0  0.63425  0.94484  0.16582  1.0000
  C   C401      1.0  0.59509  0.98886  0.24886  1.0000
  H   H408      1.0  0.39705  0.96406  0.28902  1.0000
  H   H409      1.0  0.62629  0.97195  0.25027  1.0000
  C   C402      1.0  0.43567  0.88965  0.15849  1.0000
  C   C403      1.0  0.52197  0.88268  0.22733  1.0000
  C   C404      1.0  0.52271  0.90547  0.22988  1.0000
  C   C405      1.0  0.50311  0.91772  0.23241  1.0000
  C   C406      1.0  0.48264  0.90729  0.23269  1.0000
  C   C407      1.0  0.48188  0.88443  0.23128  1.0000
  C   C408      1.0  0.50151  0.87217  0.22834  1.0000
  H   H410      1.0  0.53837  0.91375  0.22897  1.0000
  H   H411      1.0  0.50385  0.93540  0.23348  1.0000
  H   H412      1.0  0.46618  0.87624  0.23155  1.0000
  H   H413      1.0  0.50087  0.85453  0.22656  1.0000
  C   C409      1.0  0.37747  0.83662  0.40179  1.0000
  C   C410      1.0  0.37292  0.85690  0.38798  1.0000
  C   C411      1.0  0.37825  0.86058  0.35773  1.0000
  C   C412      1.0  0.38784  0.84384  0.34082  1.0000
  C   C413      1.0  0.39196  0.82339  0.35452  1.0000
  C   C414      1.0  0.38699  0.81983  0.38489  1.0000
  H   H414      1.0  0.36546  0.86997  0.40083  1.0000
  H   H415      1.0  0.37495  0.87637  0.34749  1.0000
  H   H416      1.0  0.39939  0.81035  0.34162  1.0000
  H   H417      1.0  0.39059  0.80415  0.39520  1.0000
  H   H418      1.0  0.46035  0.83960  0.16237  1.0000
  C   C415      1.0  0.34156  0.76082  0.40483  1.0000
  C   C416      1.0  0.37068  0.97875  0.26413  1.0000
  H   H419      1.0  0.49881  0.91078  0.13492  1.0000
  H   H420      1.0  0.61430  0.92575  0.12609  1.0000
  C   C417      1.0  0.51792  0.76283  0.47630  1.0000
  H   H421      1.0  0.60987  0.73727  0.37417  1.0000
  C   C418      1.0  0.47720  0.87063  0.16074  1.0000
  C   C419      1.0  0.45459  0.90252  0.15875  1.0000
  H   H422      1.0  0.42741  0.96179  0.22877  1.0000
  S   S149      1.0  0.63297  0.79919  0.48681  1.0000
  C   C420      1.0  0.38998  0.97920  0.28069  1.0000
  C   C421      1.0  0.61897  0.97473  0.32816  1.0000
  C   C422      1.0  0.43772  0.86690  0.15968  1.0000
  H   H423      1.0  0.34769  0.70042  0.46634  1.0000
  C   C423      1.0  0.34230  0.78222  0.39374  1.0000
  S   S150      1.0  0.57969  0.80491  0.49325  1.0000
  C   C424      1.0  0.59816  0.94200  0.32782  1.0000
  C   C425      1.0  0.66721  0.87833  0.08699  1.0000
  C   C426      1.0  0.57906  0.95392  0.32119  1.0000
  C   C427      1.0  0.58009  0.97665  0.31834  1.0000
  C   C428      1.0  0.64157  0.94344  0.14374  1.0000
  C   C429      1.0  0.62310  0.74236  0.38840  1.0000
  H   H424      1.0  0.59727  0.92429  0.32970  1.0000
  H   H425      1.0  0.63202  0.92076  0.07668  1.0000
  H   H426      1.0  0.56373  0.94551  0.31729  1.0000
  H   H427      1.0  0.56559  0.98599  0.31201  1.0000
  H   H428      1.0  0.36153  0.86159  0.10312  1.0000
  C   C430      1.0  0.64823  0.73505  0.42835  1.0000
  C   C431      1.0  0.63762  0.93940  0.33721  1.0000
  H   H429      1.0  0.63488  0.86413  0.08972  1.0000
  C   C432      1.0  0.35213  0.87586  0.10991  1.0000
  H   H430      1.0  0.41946  0.89723  0.15766  1.0000
  H   H431      1.0  0.49187  0.92214  0.17096  1.0000
  H   H432      1.0  0.49340  0.86305  0.16193  1.0000
  C   C433      1.0  0.64056  0.92981  0.09359  1.0000
  H   H433      1.0  0.42388  0.84474  0.44498  1.0000
  H   H434      1.0  0.65100  0.80116  0.38158  1.0000
  H   H435      1.0  0.62532  0.71151  0.41200  1.0000
  C   C434      1.0  0.64734  0.87294  0.10158  1.0000
  N   N37       1.0  0.45154  0.81328  0.39518  1.0000
  C   C435      1.0  0.44264  0.81981  0.42177  1.0000
  C   C436      1.0  0.44949  0.82621  0.37030  1.0000
  C   C437      1.0  0.43150  0.83990  0.42406  1.0000
  C   C438      1.0  0.43864  0.84649  0.37184  1.0000
  C   C439      1.0  0.42963  0.85334  0.39893  1.0000
  C   C440      1.0  0.46275  0.79197  0.39356  1.0000
  H   H436      1.0  0.44400  0.80933  0.44131  1.0000
  H   H437      1.0  0.45602  0.82086  0.34900  1.0000
  H   H438      1.0  0.34804  0.91237  0.16639  1.0000
  H   H439      1.0  0.43653  0.85647  0.35192  1.0000
  H   H440      1.0  0.42053  0.86869  0.40020  1.0000
  H   H441      1.0  0.47137  0.78951  0.37191  1.0000
  H   H442      1.0  0.47521  0.79056  0.41136  1.0000
  H   H443      1.0  0.45065  0.77859  0.39702  1.0000
  H   H444      1.0  0.45282  0.92021  0.15853  1.0000
  Fe  Fe75      1.0  0.41831  0.77144  0.48295  1.0000
  H   H445      1.0  0.53278  0.76246  0.46279  1.0000
  C   C441      1.0  0.45313  0.98304  0.24334  1.0000
  C   C442      1.0  0.45860  0.85727  0.16099  1.0000
  C   C443      1.0  0.47755  0.76363  0.47974  1.0000
  S   S151      1.0  0.45173  0.76362  0.46132  1.0000
  H   H446      1.0  0.49631  0.76350  0.43867  1.0000
  C   C444      1.0  0.35678  0.88590  0.13713  1.0000
  C   C445      1.0  0.33501  0.88380  0.09175  1.0000
  C   C446      1.0  0.49464  0.90673  0.15840  1.0000
  H   H447      1.0  0.50900  0.89834  0.16872  1.0000
  C   C447      1.0  0.49714  0.76349  0.46265  1.0000
  S   S152      1.0  0.65532  0.89889  0.18430  1.0000
  H   H448      1.0  0.33480  0.81599  0.40246  1.0000
  C   C448      1.0  0.65504  0.79323  0.40323  1.0000
  C   C449      1.0  0.63131  0.76365  0.38611  1.0000
  C   C450      1.0  0.63037  0.93266  0.12141  1.0000
  C   C451      1.0  0.65580  0.75657  0.42581  1.0000
  C   C452      1.0  0.65946  0.89012  0.14711  1.0000
  H   H449      1.0  0.63431  0.92702  0.35498  1.0000
  C   C453      1.0  0.63169  0.72798  0.40965  1.0000
  C   C454      1.0  0.34463  0.90444  0.14554  1.0000
  H   H450      1.0  0.63459  0.98302  0.32987  1.0000
  S   S153      1.0  0.41355  0.80688  0.49364  1.0000
  H   H451      1.0  0.65149  0.94965  0.34451  1.0000
  H   H452      1.0  0.34835  0.74738  0.39191  1.0000
  N   N38       1.0  0.66135  0.93745  0.08826  1.0000
  H   H453      1.0  0.66462  0.92035  0.04709  1.0000
  H   H454      1.0  0.64277  0.93049  0.31679  1.0000
  H   H455      1.0  0.40401  0.99248  0.21030  1.0000
  C   C455      1.0  0.66265  0.95142  0.13798  1.0000
  N   N39       1.0  0.64746  0.77050  0.40469  1.0000
  C   C456      1.0  0.60012  0.98719  0.32200  1.0000
  H   H456      1.0  0.64673  0.80288  0.42100  1.0000
  C   C457      1.0  0.42006  0.99577  0.21947  1.0000
  Fe  Fe76      1.0  0.60862  0.80711  0.52372  1.0000
  S   S154      1.0  0.60653  0.77225  0.53962  1.0000
  S   S155      1.0  0.60754  0.83769  0.55288  1.0000
  H   H457      1.0  0.57801  0.76873  0.62272  1.0000
  C   C458      1.0  0.51939  0.76155  0.50729  1.0000
  H   H458      1.0  0.57730  0.79569  0.66406  1.0000
  H   H459      1.0  0.56219  0.83306  0.65525  1.0000
  H   H460      1.0  0.37544  0.78251  0.67830  1.0000
  C   C459      1.0  0.56206  0.82105  0.63760  1.0000
  Fe  Fe77      1.0  0.39533  0.79523  0.53446  1.0000
  S   S156      1.0  0.40172  0.75938  0.52521  1.0000
  S   S157      1.0  0.40719  0.81049  0.57767  1.0000
  H   H461      1.0  0.38187  0.79462  0.64242  1.0000
  C   C460      1.0  0.45848  0.95493  0.76798  1.0000
  H   H462      1.0  0.34316  0.84621  0.62583  1.0000
  S   S158      1.0  0.66258  0.74481  0.50200  1.0000
  H   H463      1.0  0.42679  0.91796  0.62054  1.0000
  Fe  Fe78      1.0  0.37846  0.88633  0.71272  1.0000
  S   S159      1.0  0.38279  0.87024  0.75749  1.0000
  S   S160      1.0  0.36031  0.86991  0.67513  1.0000
  Fe  Fe79      1.0  0.40024  0.92879  0.73272  1.0000
  S   S161      1.0  0.40656  0.91591  0.77869  1.0000
  S   S162      1.0  0.41433  0.96132  0.71786  1.0000
  Fe  Fe80      1.0  0.41675  0.88503  0.75515  1.0000
  S   S163      1.0  0.44808  0.86600  0.76439  1.0000
  Fe  Fe81      1.0  0.37209  0.90253  0.77713  1.0000
  H   H464      1.0  0.39678  0.89390  0.60314  1.0000
  S   S164      1.0  0.41288  0.89880  0.70919  1.0000
  S   S165      1.0  0.36528  0.91772  0.73215  1.0000
  Fe  Fe82      1.0  0.60688  0.87704  0.72135  1.0000
  S   S166      1.0  0.58330  0.87429  0.76040  1.0000
  S   S167      1.0  0.61697  0.84763  0.69307  1.0000
  Fe  Fe83      1.0  0.61625  0.92484  0.73414  1.0000
  S   S168      1.0  0.59346  0.92608  0.77358  1.0000
  S   S169      1.0  0.63633  0.95406  0.72003  1.0000
  Fe  Fe84      1.0  0.60836  0.89352  0.78599  1.0000
  S   S170      1.0  0.61578  0.88485  0.83441  1.0000
  Fe  Fe85      1.0  0.57038  0.90710  0.74504  1.0000
  S   S171      1.0  0.53550  0.92004  0.73985  1.0000
  S   S172      1.0  0.63294  0.89351  0.74833  1.0000
  S   S173      1.0  0.59229  0.90852  0.70427  1.0000
  C   C461      1.0  0.63965  0.89160  0.85473  1.0000
  C   C462      1.0  0.47904  0.76306  0.51077  1.0000
  C   C463      1.0  0.62950  0.83178  0.84781  1.0000
  H   H465      1.0  0.64632  0.69911  0.50282  1.0000
  C   C464      1.0  0.34452  0.92942  0.66033  1.0000
  C   C465      1.0  0.62103  0.97871  0.71998  1.0000
  C   C466      1.0  0.59809  0.97832  0.72241  1.0000
  C   C467      1.0  0.38346  0.94018  0.65854  1.0000
  H   H466      1.0  0.58959  0.96283  0.72328  1.0000
  C   C468      1.0  0.47261  0.88052  0.75689  1.0000
  C   C469      1.0  0.47185  0.90109  0.74303  1.0000
  C   C470      1.0  0.49134  0.91271  0.73747  1.0000
  C   C471      1.0  0.51179  0.90396  0.74582  1.0000
  C   C472      1.0  0.51267  0.88320  0.75925  1.0000
  C   C473      1.0  0.49309  0.87150  0.76473  1.0000
  H   H467      1.0  0.45622  0.90801  0.73656  1.0000
  H   H468      1.0  0.49060  0.92856  0.72658  1.0000
  H   H469      1.0  0.52834  0.87632  0.76582  1.0000
  H   H470      1.0  0.49381  0.85558  0.77546  1.0000
  H   H471      1.0  0.55936  0.82832  0.54593  1.0000
  H   H472      1.0  0.41548  0.83859  0.73673  1.0000
  H   H473      1.0  0.45470  0.80816  0.66837  1.0000
  H   H474      1.0  0.53111  0.82795  0.55931  1.0000
  C   C474      1.0  0.55419  0.82670  0.60943  1.0000
  H   H475      1.0  0.36886  0.97003  0.73635  1.0000
  C   C475      1.0  0.39385  0.82970  0.60118  1.0000
  C   C476      1.0  0.40659  0.84118  0.62162  1.0000
  C   C477      1.0  0.39657  0.85400  0.64395  1.0000
  C   C478      1.0  0.37366  0.85554  0.64593  1.0000
  C   C479      1.0  0.36092  0.84499  0.62458  1.0000
  C   C480      1.0  0.37096  0.83208  0.60228  1.0000
  H   H476      1.0  0.42432  0.83955  0.62076  1.0000
  H   H477      1.0  0.40658  0.86220  0.66005  1.0000
  H   H478      1.0  0.63387  0.91751  0.60851  1.0000
  H   H479      1.0  0.36096  0.82328  0.58674  1.0000
  C   C481      1.0  0.60817  0.83904  0.59225  1.0000
  C   C482      1.0  0.60071  0.85830  0.60626  1.0000
  C   C483      1.0  0.60267  0.86095  0.63722  1.0000
  C   C484      1.0  0.61240  0.84442  0.65447  1.0000
  C   C485      1.0  0.61954  0.82503  0.64054  1.0000
  C   C486      1.0  0.61730  0.82226  0.60963  1.0000
  H   H480      1.0  0.59370  0.87141  0.59298  1.0000
  H   H481      1.0  0.59708  0.87594  0.64760  1.0000
  H   H482      1.0  0.62712  0.81215  0.65368  1.0000
  H   H483      1.0  0.62325  0.80743  0.59913  1.0000
  C   C487      1.0  0.41965  0.80282  0.66665  1.0000
  C   C488      1.0  0.35134  0.88216  0.85949  1.0000
  C   C489      1.0  0.39318  0.90719  0.61838  1.0000
  C   C490      1.0  0.37680  0.98542  0.73126  1.0000
  C   C491      1.0  0.37170  0.91060  0.62897  1.0000
  N   N40       1.0  0.36712  0.92676  0.64905  1.0000
  H   H484      1.0  0.45190  0.83137  0.71377  1.0000
  H   H485      1.0  0.35580  0.86099  0.89776  1.0000
  H   H486      1.0  0.66657  0.84314  0.61202  1.0000
  C   C492      1.0  0.64071  0.88572  0.88503  1.0000
  H   H487      1.0  0.63878  0.89377  0.68171  1.0000
  C   C493      1.0  0.48809  0.98005  0.75366  1.0000
  H   H488      1.0  0.33893  0.91386  0.67099  1.0000
  C   C494      1.0  0.39785  0.82003  0.70410  1.0000
  H   H489      1.0  0.42093  0.79300  0.64666  1.0000
  H   H490      1.0  0.36512  0.87529  0.84717  1.0000
  H   H491      1.0  0.66515  0.83736  0.88033  1.0000
  N   N41       1.0  0.39949  0.80740  0.67916  1.0000
  H   H492      1.0  0.50071  0.76051  0.54837  1.0000
  H   H493      1.0  0.62651  0.87848  0.89590  1.0000
  C   C495      1.0  0.34600  0.87408  0.88820  1.0000
  C   C496      1.0  0.41670  0.82865  0.71692  1.0000
  C   C497      1.0  0.59276  0.98714  0.79680  1.0000
  N   N42       1.0  0.46651  0.97708  0.76170  1.0000
  H   H494      1.0  0.49936  0.96614  0.75245  1.0000
  Fe  Fe86      1.0  0.57841  0.76975  0.50724  1.0000
  C   C498      1.0  0.39885  0.98565  0.72195  1.0000
  C   C499      1.0  0.49982  0.76170  0.52441  1.0000
  H   H495      1.0  0.38188  0.82379  0.71397  1.0000
  C   C500      1.0  0.43726  0.82445  0.70404  1.0000
  H   H496      1.0  0.36548  0.80965  0.66852  1.0000
  H   H497      1.0  0.41806  0.94779  0.65626  1.0000
  H   H498      1.0  0.45416  0.94695  0.74681  1.0000
  C   C501      1.0  0.43881  0.81144  0.67872  1.0000
  C   C502      1.0  0.66014  0.88869  0.90128  1.0000
  H   H499      1.0  0.58279  0.97250  0.79622  1.0000
  H   H500      1.0  0.62343  0.96967  0.79072  1.0000
  C   C503      1.0  0.58605  0.99800  0.72384  1.0000
  H   H501      1.0  0.66601  0.66320  0.50240  1.0000
  C   C504      1.0  0.57061  0.80006  0.64253  1.0000
  H   H502      1.0  0.56353  0.77941  0.57368  1.0000
  C   C505      1.0  0.40999  0.92062  0.62820  1.0000
  C   C506      1.0  0.54663  0.81830  0.55750  1.0000
  H   H503      1.0  0.62425  0.83976  0.86890  1.0000
  Fe  Fe87      1.0  0.36984  0.76012  0.49929  1.0000
  H   H504      1.0  0.54309  0.80384  0.54351  1.0000
  S   S174      1.0  0.36278  0.79556  0.51129  1.0000
  C   C507      1.0  0.56293  0.79117  0.59157  1.0000
  C   C508      1.0  0.57111  0.78501  0.61937  1.0000
  N   N43       1.0  0.55445  0.81174  0.58697  1.0000
  H   H505      1.0  0.61620  0.83533  0.83165  1.0000
  H   H506      1.0  0.54822  0.84325  0.60547  1.0000
  H   H507      1.0  0.44352  0.95520  0.78247  1.0000
  H   H508      1.0  0.63999  0.84645  0.79312  1.0000
  S   S175      1.0  0.54513  0.75823  0.52543  1.0000
  C   C509      1.0  0.40511  0.93733  0.64824  1.0000
  H   H509      1.0  0.46417  0.76297  0.52426  1.0000
  C   C510      1.0  0.61559  0.98554  0.79389  1.0000
  N   N44       1.0  0.65067  0.84061  0.83756  1.0000
  H   H510      1.0  0.65750  0.90576  0.81779  1.0000
  C   C511      1.0  0.65805  0.90114  0.84105  1.0000
  H   H511      1.0  0.35879  0.89975  0.62181  1.0000
  H   H512      1.0  0.47113  0.94477  0.77945  1.0000
  H   H513      1.0  0.37994  0.95301  0.67450  1.0000
  H   H514      1.0  0.34314  0.94246  0.67736  1.0000
  H   H515      1.0  0.63084  0.81380  0.85128  1.0000
  S   S176      1.0  0.34452  0.90996  0.81075  1.0000
  H   H516      1.0  0.66066  0.91199  0.67015  1.0000
  C   C512      1.0  0.33884  0.89911  0.84687  1.0000
  C   C513      1.0  0.37960  0.79802  0.66655  1.0000
  H   H517      1.0  0.66083  0.88367  0.92439  1.0000
  C   C514      1.0  0.64481  0.90470  0.66353  1.0000
  S   S177      1.0  0.33925  0.73785  0.50667  1.0000
  C   C515      1.0  0.65351  0.84719  0.80858  1.0000
  N   N45       1.0  0.64767  0.89233  0.63593  1.0000
  C   C516      1.0  0.64132  0.90130  0.60936  1.0000
  H   H518      1.0  0.63249  0.91818  0.66123  1.0000
  C   C517      1.0  0.66411  0.69860  0.50222  1.0000
  C   C518      1.0  0.65310  0.86851  0.58389  1.0000
  C   C519      1.0  0.64381  0.88948  0.58298  1.0000
  H   H519      1.0  0.63806  0.89624  0.56204  1.0000
  C   C520      1.0  0.65711  0.87190  0.63696  1.0000
  H   H520      1.0  0.43488  0.99198  0.76756  1.0000
  H   H521      1.0  0.66174  0.86461  0.65810  1.0000
  C   C521      1.0  0.45215  0.99447  0.76224  1.0000
  H   H522      1.0  0.65431  0.85882  0.56377  1.0000
  C   C522      1.0  0.65993  0.85968  0.61099  1.0000
  H   H523      1.0  0.56831  0.99754  0.72588  1.0000
  Fe  Fe88      1.0  0.62912  0.76355  0.50080  1.0000
  Fe  Fe89      1.0  0.91604  0.38468  0.26714  1.0000
  S   S178      1.0  0.91616  0.40967  0.23048  1.0000
  S   S179      1.0  0.94756  0.36645  0.27844  1.0000
  Fe  Fe90      1.0  0.86649  0.39033  0.27913  1.0000
  S   S180      1.0  0.86329  0.41516  0.24183  1.0000
  S   S181      1.0  0.83503  0.38510  0.30661  1.0000
  Fe  Fe91      1.0  0.88567  0.39266  0.21510  1.0000
  S   S182      1.0  0.88550  0.38721  0.16462  1.0000
  Fe  Fe92      1.0  0.89397  0.42949  0.26032  1.0000
  S   S183      1.0  0.89968  0.46404  0.27613  1.0000
  S   S184      1.0  0.88636  0.36662  0.25082  1.0000
  S   S185      1.0  0.89628  0.40564  0.29855  1.0000
  Fe  Fe93      1.0  0.79815  0.38558  0.47697  1.0000
  S   S186      1.0  0.76604  0.39767  0.45929  1.0000
  S   S187      1.0  0.82700  0.37472  0.44763  1.0000
  Fe  Fe94      1.0  0.88179  0.29124  0.04056  1.0000
  S   S188      1.0  0.89741  0.25890  0.02776  1.0000
  S   S189      1.0  0.87711  0.29932  0.08991  1.0000
  C   C523      1.0  0.67731  0.11897  0.13855  1.0000
  H   H524      1.0  0.99271  0.35227  0.28487  1.0000
  H   H525      1.0  0.69063  0.05108  0.17222  1.0000
  C   C524      1.0  0.84815  0.43085  0.39337  1.0000
  H   H526      1.0  0.96434  0.24802  0.01731  1.0000
  H   H527      1.0  0.98845  0.31198  0.02940  1.0000
  Fe  Fe95      1.0  0.70888  0.11440  0.03688  1.0000
  S   S190      1.0  0.74494  0.11006  0.02515  1.0000
  S   S191      1.0  0.70178  0.11450  0.08711  1.0000
  C   C525      1.0  0.72435  0.02643  0.01240  1.0000
  H   H528      1.0  0.83595  0.33548  0.01339  1.0000
  H   H529      1.0  0.79646  0.43454  0.41840  1.0000
  H   H530      1.0  0.84944  0.38444  0.05548  1.0000
  H   H531      1.0  0.76734  0.20481  0.05125  1.0000
  H   H532      1.0  0.87725  0.42520  0.36612  1.0000
  Fe  Fe96      1.0  0.77015  0.42591  0.49082  1.0000
  C   C526      1.0  0.68133  0.33362  0.48196  1.0000
  N   N46       1.0  0.95131  0.36242  0.19626  1.0000
  H   H533      1.0  0.70533  0.00382  0.03923  1.0000
  C   C527      1.0  0.93151  0.34940  0.20173  1.0000
  H   H534      1.0  0.72235  0.34591  0.39278  1.0000
  H   H535      1.0  0.82983  0.35710  0.13979  1.0000
  H   H536      1.0  0.80929  0.18153  0.08623  1.0000
  C   C528      1.0  0.84349  0.37059  0.06843  1.0000
  H   H537      1.0  0.80027  0.45187  0.36929  1.0000
  C   C529      1.0  0.71815  0.00538  0.02246  1.0000
  C   C530      1.0  0.81418  0.43776  0.42214  1.0000
  C   C531      1.0  0.82894  0.44659  0.34176  1.0000
  H   H538      1.0  0.80461  0.19435  0.05060  1.0000
  C   C532      1.0  0.97113  0.35479  0.20625  1.0000
  H   H539      1.0  0.85997  0.43940  0.31999  1.0000
  C   C533      1.0  0.88959  0.48828  0.25928  1.0000
  C   C534      1.0  0.76691  0.48632  0.48694  1.0000
  H   H540      1.0  0.94011  0.47523  0.23958  1.0000
  C   C535      1.0  0.76282  0.18888  0.06014  1.0000
  H   H541      1.0  0.87779  0.47320  0.21954  1.0000
  C   C536      1.0  0.82921  0.37896  0.40860  1.0000
  C   C537      1.0  0.81128  0.38598  0.39169  1.0000
  C   C538      1.0  0.81338  0.38792  0.36052  1.0000
  C   C539      1.0  0.83354  0.38341  0.34598  1.0000
  C   C540      1.0  0.85159  0.37690  0.36298  1.0000
  C   C541      1.0  0.84935  0.37448  0.39408  1.0000
  H   H542      1.0  0.79565  0.38940  0.40252  1.0000
  H   H543      1.0  0.79932  0.39292  0.34753  1.0000
  H   H544      1.0  0.86715  0.37320  0.35207  1.0000
  H   H545      1.0  0.86331  0.36896  0.40692  1.0000
  C   C542      1.0  0.88556  0.36206  0.14493  1.0000
  C   C543      1.0  0.89061  0.36221  0.11427  1.0000
  C   C544      1.0  0.88900  0.34300  0.09722  1.0000
  C   C545      1.0  0.88219  0.32339  0.11068  1.0000
  C   C546      1.0  0.87779  0.32313  0.14150  1.0000
  C   C547      1.0  0.87951  0.34230  0.15857  1.0000
  H   H546      1.0  0.89535  0.37741  0.10351  1.0000
  H   H547      1.0  0.89251  0.34347  0.07359  1.0000
  H   H548      1.0  0.87251  0.30806  0.15216  1.0000
  H   H549      1.0  0.87548  0.34189  0.18208  1.0000
  H   H550      1.0  0.81553  0.45382  0.43335  1.0000
  C   C548      1.0  0.97277  0.37997  0.27154  1.0000
  C   C549      1.0  0.97309  0.40131  0.26007  1.0000
  S   S192      1.0  0.76750  0.46014  0.46967  1.0000
  H   H551      1.0  0.95792  0.41036  0.25742  1.0000
  N   N47       1.0  0.75324  0.34209  0.41489  1.0000
  C   C550      1.0  0.76506  0.34287  0.38877  1.0000
  C   C551      1.0  0.76351  0.33755  0.44115  1.0000
  C   C552      1.0  0.78769  0.33845  0.38842  1.0000
  C   C553      1.0  0.78615  0.33326  0.44163  1.0000
  C   C554      1.0  0.79824  0.33362  0.41506  1.0000
  C   C555      1.0  0.72964  0.34727  0.41518  1.0000
  H   H552      1.0  0.75709  0.34710  0.36804  1.0000
  H   H553      1.0  0.75423  0.33747  0.46194  1.0000
  H   H554      1.0  0.79716  0.33945  0.36780  1.0000
  H   H555      1.0  0.79442  0.33020  0.46252  1.0000
  H   H556      1.0  0.81593  0.33095  0.41528  1.0000
  C   C556      1.0  0.95007  0.38169  0.18054  1.0000
  H   H557      1.0  0.72688  0.36420  0.42347  1.0000
  H   H558      1.0  0.71722  0.15907  0.07698  1.0000
  H   H559      1.0  0.81118  0.16584  0.05226  1.0000
  H   H560      1.0  0.83349  0.31680  0.06228  1.0000
  H   H561      1.0  0.93436  0.38766  0.17239  1.0000
  H   H562      1.0  0.98656  0.28069  0.06488  1.0000
  H   H563      1.0  0.72059  0.33579  0.43022  1.0000
  C   C557      1.0  0.83914  0.37332  0.09884  1.0000
  C   C558      1.0  0.73447  0.16328  0.07442  1.0000
  S   S193      1.0  0.85257  0.28711  0.01071  1.0000
  C   C559      1.0  0.70327  0.33492  0.49159  1.0000
  C   C560      1.0  0.88009  0.48844  0.23111  1.0000
  H   H564      1.0  0.72796  0.19569  0.05719  1.0000
  H   H565      1.0  0.78544  0.14137  0.08316  1.0000
  C   C561      1.0  0.81716  0.44600  0.36873  1.0000
  H   H566      1.0  0.74615  0.13190  0.09009  1.0000
  C   C562      1.0  0.80206  0.17914  0.06398  1.0000
  N   N48       1.0  0.82672  0.43794  0.39400  1.0000
  C   C563      1.0  0.99280  0.36874  0.27576  1.0000
  H   H567      1.0  0.93098  0.34340  0.22517  1.0000
  C   C564      1.0  0.94251  0.49247  0.24408  1.0000
  H   H568      1.0  0.69294  0.11750  0.14963  1.0000
  H   H569      1.0  0.84496  0.36317  0.01100  1.0000
  C   C565      1.0  0.74050  0.18385  0.06349  1.0000
  H   H570      1.0  0.93123  0.33526  0.18642  1.0000
  C   C566      1.0  0.83439  0.33292  0.07215  1.0000
  H   H571      1.0  0.84192  0.38897  0.10938  1.0000
  H   H572      1.0  0.91632  0.35928  0.19831  1.0000
  H   H573      1.0  0.69061  0.07118  0.14267  1.0000
  N   N49       1.0  0.77868  0.17367  0.06701  1.0000
  H   H574      1.0  0.86405  0.34186  0.02187  1.0000
  C   C567      1.0  0.75075  0.14800  0.08176  1.0000
  H   H575      1.0  0.99310  0.42730  0.24203  1.0000
  C   C568      1.0  0.77290  0.15346  0.07777  1.0000
  C   C569      1.0  0.86043  0.43130  0.36679  1.0000
  C   C570      1.0  0.84675  0.34768  0.02397  1.0000
  N   N50       1.0  0.84090  0.35061  0.05544  1.0000
  H   H576      1.0  0.71627  0.04084  0.02134  1.0000
  H   H577      1.0  0.68603  0.07977  0.18038  1.0000
  C   C571      1.0  0.83233  0.35540  0.11597  1.0000
  H   H578      1.0  0.82563  0.32078  0.11592  1.0000
  C   C572      1.0  0.82987  0.33507  0.10258  1.0000
  C   C573      1.0  0.68275  0.06651  0.16430  1.0000
  S   S194      1.0  0.90116  0.31015  0.00652  1.0000
  H   H579      1.0  0.82016  0.42462  0.43740  1.0000
  C   C574      1.0  0.98916  0.38673  0.18588  1.0000
  H   H580      1.0  0.97203  0.33978  0.21930  1.0000
  C   C575      1.0  0.67939  0.29462  0.49480  1.0000
  C   C576      1.0  0.85071  0.43918  0.34084  1.0000
  S   S195      1.0  0.70517  0.14334  0.00614  1.0000
  H   H581      1.0  0.85572  0.42433  0.41333  1.0000
  C   C577      1.0  0.99311  0.41097  0.25158  1.0000
  H   H582      1.0  0.82127  0.45260  0.32159  1.0000
  C   C578      1.0  0.67676  0.11882  0.10727  1.0000
  H   H583      1.0  0.95670  0.48649  0.28700  1.0000
  C   C579      1.0  0.96891  0.39429  0.17549  1.0000
  H   H584      1.0  0.96774  0.40994  0.16402  1.0000
  S   S196      1.0  0.69733  0.09029  0.00289  1.0000
  S   S197      1.0  0.71744  0.36063  0.48821  1.0000
  C   C580      1.0  0.99036  0.36671  0.20095  1.0000
  Fe  Fe97      1.0  0.75009  0.37882  0.49736  1.0000
  C   C581      1.0  0.97886  0.25542  0.00751  1.0000
  C   C582      1.0  0.00002  0.24816  0.01601  1.0000
  H   H585      1.0  0.67337  0.34817  0.47314  1.0000
  C   C583      1.0  0.66948  0.31374  0.48360  1.0000
  Fe  Fe98      1.0  0.78487  0.39507  0.54150  1.0000
  S   S198      1.0  0.75157  0.40832  0.52749  1.0000
  S   S199      1.0  0.79203  0.39659  0.59152  1.0000
  C   C584      1.0  0.68648  0.16775  0.90133  1.0000
  H   H586      1.0  0.92626  0.35197  0.84670  1.0000
  H   H587      1.0  0.76420  0.01143  0.96287  1.0000
  H   H588      1.0  0.86960  0.43161  0.59640  1.0000
  H   H589      1.0  0.76304  0.47434  0.53180  1.0000
  H   H590      1.0  0.67932  0.02040  0.97091  1.0000
  Fe  Fe99      1.0  0.88627  0.39256  0.71375  1.0000
  S   S200      1.0  0.86007  0.39518  0.74911  1.0000
  S   S201      1.0  0.88043  0.38382  0.66522  1.0000
  Fe  Fe100     1.0  0.92281  0.40587  0.75678  1.0000
  S   S202      1.0  0.89891  0.41007  0.79502  1.0000
  S   S203      1.0  0.95772  0.41546  0.76751  1.0000
  Fe  Fe101     1.0  0.88428  0.37847  0.77993  1.0000
  S   S204      1.0  0.87799  0.34743  0.80777  1.0000
  Fe  Fe102     1.0  0.87730  0.42647  0.76108  1.0000
  S   S205      1.0  0.85829  0.45831  0.76597  1.0000
  S   S206      1.0  0.90952  0.37341  0.74322  1.0000
  S   S207      1.0  0.90215  0.42465  0.72403  1.0000
  Fe  Fe103     1.0  0.87354  0.30366  0.97520  1.0000
  S   S208      1.0  0.88802  0.27210  0.95841  1.0000
  S   S209      1.0  0.86345  0.33388  0.94807  1.0000
  Fe  Fe104     1.0  0.69650  0.11893  0.97082  1.0000
  S   S210      1.0  0.73154  0.11541  0.95510  1.0000
  H   H591      1.0  0.97003  0.46531  0.74603  1.0000
  C   C585      1.0  0.80545  0.17336  0.98896  1.0000
  C   C586      1.0  0.87473  0.33287  0.70131  1.0000
  C   C587      1.0  0.67856  0.10419  0.88859  1.0000
  H   H592      1.0  0.83151  0.43811  0.57848  1.0000
  H   H593      1.0  0.92484  0.27872  0.91574  1.0000
  H   H594      1.0  0.88180  0.33107  0.74812  1.0000
  H   H595      1.0  0.67905  0.18119  0.94458  1.0000
  S   S211      1.0  0.80324  0.41451  0.50661  1.0000
  N   N51       1.0  0.83680  0.33888  0.68890  1.0000
  C   C588      1.0  0.91974  0.34409  0.92119  1.0000
  C   C589      1.0  0.93101  0.32123  0.87018  1.0000
  H   H596      1.0  0.84295  0.33691  0.76372  1.0000
  H   H597      1.0  0.87813  0.43748  0.64937  1.0000
  S   S212      1.0  0.74829  0.05485  0.97582  1.0000
  H   H598      1.0  0.96969  0.43848  0.70507  1.0000
  H   H599      1.0  0.71824  0.18149  0.95980  1.0000
  C   C590      1.0  0.89645  0.48235  0.76094  1.0000
  C   C591      1.0  0.87346  0.48281  0.76264  1.0000
  N   N52       1.0  0.92993  0.31050  0.89703  1.0000
  H   H600      1.0  0.90517  0.46685  0.76199  1.0000
  H   H601      1.0  0.68710  0.08825  0.84728  1.0000
  C   C592      1.0  0.87366  0.34420  0.84682  1.0000
  C   C593      1.0  0.86896  0.36192  0.86545  1.0000
  C   C594      1.0  0.86551  0.35842  0.89626  1.0000
  C   C595      1.0  0.86720  0.33730  0.90894  1.0000
  C   C596      1.0  0.87208  0.31962  0.89033  1.0000
  C   C597      1.0  0.87502  0.32304  0.85945  1.0000
  H   H602      1.0  0.86770  0.37827  0.85609  1.0000
  H   H603      1.0  0.86165  0.37222  0.91038  1.0000
  H   H604      1.0  0.87328  0.30327  0.89967  1.0000
  H   H605      1.0  0.87849  0.30919  0.84528  1.0000
  C   C598      1.0  0.98193  0.40142  0.75635  1.0000
  C   C599      1.0  0.98202  0.38539  0.73432  1.0000
  C   C600      1.0  0.72038  0.01646  0.91931  1.0000
  H   H606      1.0  0.96669  0.38036  0.72467  1.0000
  C   C601      1.0  0.83567  0.44156  0.60138  1.0000
  C   C602      1.0  0.75126  0.00980  0.97948  1.0000
  C   C603      1.0  0.85822  0.33560  0.68018  1.0000
  C   C604      1.0  0.98524  0.44436  0.71332  1.0000
  C   C605      1.0  0.92458  0.32167  0.92237  1.0000
  C   C606      1.0  0.92058  0.35512  0.89389  1.0000
  C   C607      1.0  0.71319  0.31580  0.50283  1.0000
  C   C608      1.0  0.81664  0.39195  0.61162  1.0000
  C   C609      1.0  0.81658  0.39600  0.64240  1.0000
  C   C610      1.0  0.83591  0.39358  0.65916  1.0000
  C   C611      1.0  0.85553  0.38684  0.64532  1.0000
  C   C612      1.0  0.85550  0.38232  0.61470  1.0000
  C   C613      1.0  0.83621  0.38497  0.59787  1.0000
  H   H607      1.0  0.80150  0.40137  0.65324  1.0000
  H   H608      1.0  0.83562  0.39696  0.68272  1.0000
  H   H609      1.0  0.87058  0.37701  0.60378  1.0000
  H   H610      1.0  0.83652  0.38175  0.57424  1.0000
  H   H611      1.0  0.77061  0.21704  0.99019  1.0000
  C   C614      1.0  0.92627  0.34367  0.86818  1.0000
  H   H612      1.0  0.93309  0.27873  0.87747  1.0000
  H   H613      1.0  0.91458  0.35263  0.94119  1.0000
  H   H614      1.0  0.74714  0.16721  0.92551  1.0000
  S   S213      1.0  0.78241  0.36473  0.51325  1.0000
  H   H615      1.0  0.85017  0.43505  0.70387  1.0000
  C   C615      1.0  0.69096  0.01296  0.95546  1.0000
  N   N53       1.0  0.84571  0.44852  0.66069  1.0000
  C   C616      1.0  0.86174  0.44131  0.64142  1.0000
  C   C617      1.0  0.82465  0.45188  0.65110  1.0000
  S   S214      1.0  0.75913  0.17131  0.98937  1.0000
  C   C618      1.0  0.81933  0.44852  0.62130  1.0000
  H   H616      1.0  0.69333  0.09885  0.89979  1.0000
  C   C619      1.0  0.85085  0.45115  0.69220  1.0000
  C   C620      1.0  0.85702  0.43791  0.61144  1.0000
  H   H617      1.0  0.81174  0.45676  0.66661  1.0000
  H   H618      1.0  0.89179  0.33105  0.69429  1.0000
  H   H619      1.0  0.80250  0.45044  0.61385  1.0000
  C   C621      1.0  0.84728  0.33638  0.74020  1.0000
  H   H620      1.0  0.86753  0.45808  0.69500  1.0000
  C   C622      1.0  0.70136  0.29589  0.50439  1.0000
  N   N54       1.0  0.70244  0.15957  0.88269  1.0000
  C   C623      1.0  0.80608  0.21935  0.99110  1.0000
  H   H621      1.0  0.83915  0.46254  0.70354  1.0000
  H   H622      1.0  0.86282  0.33575  0.65678  1.0000
  S   S215      1.0  0.95049  0.28159  0.97363  1.0000
  C   C624      1.0  0.81954  0.34098  0.66654  1.0000
  C   C625      1.0  0.78536  0.18478  0.98922  1.0000
  C   C626      1.0  0.99572  0.28112  0.97318  1.0000
  H   H623      1.0  0.70382  0.04388  0.93985  1.0000
  H   H624      1.0  0.73172  0.02666  0.90666  1.0000
  C   C627      1.0  0.83120  0.33919  0.71848  1.0000
  H   H625      1.0  0.82637  0.34629  0.64457  1.0000
  H   H626      1.0  0.73670  0.15301  0.87622  1.0000
  C   C628      1.0  0.76445  0.48874  0.51773  1.0000
  C   C629      1.0  0.71384  0.17562  0.93800  1.0000
  H   H627      1.0  0.80716  0.35359  0.67317  1.0000
  H   H628      1.0  0.91612  0.37234  0.89248  1.0000
  C   C630      1.0  0.93548  0.28711  0.89897  1.0000
  H   H629      1.0  0.95283  0.28498  0.90604  1.0000
  H   H630      1.0  0.93512  0.31242  0.85002  1.0000
  C   C631      1.0  0.69666  0.15144  0.85324  1.0000
  C   C632      1.0  0.82620  0.20794  0.99084  1.0000
  C   C633      1.0  0.67497  0.09822  0.85881  1.0000
  C   C634      1.0  0.86915  0.33312  0.73147  1.0000
  H   H631      1.0  0.92363  0.31317  0.94363  1.0000
  H   H632      1.0  0.81422  0.34171  0.72546  1.0000
  C   C635      1.0  0.70467  0.02616  0.93796  1.0000
  H   H633      1.0  0.70490  0.13543  0.84895  1.0000
  H   H634      1.0  0.81123  0.32503  0.66377  1.0000
  C   C636      1.0  0.72403  0.15950  0.89096  1.0000
  Fe  Fe105     1.0  0.73289  0.08774  0.98914  1.0000
  C   C637      1.0  0.69190  0.17569  0.92935  1.0000
  S   S216      1.0  0.85241  0.22141  0.99219  1.0000
  Fe  Fe106     1.0  0.86886  0.25555  0.99604  1.0000
  C   C638      1.0  0.73006  0.16754  0.91870  1.0000
  C   C639      1.0  0.97659  0.27193  0.98594  1.0000
  H   H635      1.0  0.67868  0.14862  0.85141  1.0000
  H   H636      1.0  0.70934  0.28132  0.51308  1.0000
  Fe  Fe107     1.0  0.91509  0.27780  0.99142  1.0000
  H   H637      1.0  0.73000  0.31632  0.51035  1.0000
  H   H638      1.0  0.67618  0.27179  0.56024  1.0000
  C   C640      1.0  0.74091  0.02877  0.99073  1.0000
  H   H639      1.0  0.84097  0.17573  0.98936  1.0000
  H   H640      1.0  0.66929  0.16737  0.89518  1.0000
  H   H641      1.0  0.70166  0.16341  0.83575  1.0000
  C   C641      1.0  0.82562  0.18484  0.98970  1.0000
  Fe  Fe108     1.0  0.74075  0.13807  0.99252  1.0000
  H   H642      1.0  0.99420  0.29380  0.95636  1.0000
  C   C642      1.0  0.78592  0.20788  0.99015  1.0000
  H   H643      1.0  0.80552  0.15565  0.98813  1.0000
  C   C643      1.0  0.98545  0.45941  0.73645  1.0000
  H   H644      1.0  0.67313  0.23519  0.58381  1.0000
  H   H645      1.0  0.80607  0.23705  0.99182  1.0000
  Fe  Fe109     1.0  0.88354  0.58525  0.23238  1.0000
  S   S217      1.0  0.90562  0.58606  0.27182  1.0000
  S   S218      1.0  0.87021  0.55344  0.21447  1.0000
  Fe  Fe110     1.0  0.88918  0.63428  0.21858  1.0000
  S   S219      1.0  0.91207  0.63820  0.25722  1.0000
  S   S220      1.0  0.88170  0.66575  0.19233  1.0000
  Fe  Fe111     1.0  0.92761  0.60653  0.24257  1.0000
  S   S221      1.0  0.96251  0.59432  0.23481  1.0000
  Fe  Fe112     1.0  0.88782  0.61738  0.28320  1.0000
  S   S222      1.0  0.88038  0.62691  0.33131  1.0000
  S   S223      1.0  0.90646  0.60410  0.20219  1.0000
  S   S224      1.0  0.86393  0.61534  0.24554  1.0000
  Fe  Fe113     1.0  0.78408  0.61879  0.45624  1.0000
  S   S225      1.0  0.75085  0.60557  0.46988  1.0000
  S   S226      1.0  0.79103  0.61585  0.40626  1.0000
  Fe  Fe114     1.0  0.88255  0.70708  0.02178  1.0000
  S   S227      1.0  0.88480  0.74210  0.03630  1.0000
  S   S228      1.0  0.87838  0.67642  0.05083  1.0000
  Fe  Fe115     1.0  0.69914  0.88361  0.01960  1.0000
  S   S229      1.0  0.73022  0.89718  0.03755  1.0000
  H   H646      1.0  0.66816  0.76212  0.44117  1.0000
  C   C644      1.0  0.84016  0.66575  0.25239  1.0000
  C   C645      1.0  0.72820  0.98640  0.01080  1.0000
  C   C646      1.0  0.87836  0.68038  0.31345  1.0000
  C   C647      1.0  0.84073  0.66589  0.31401  1.0000
  Fe  Fe116     1.0  0.72444  0.92560  0.00605  1.0000
  H   H647      1.0  0.84035  0.66549  0.22824  1.0000
  S   S230      1.0  0.78006  0.86133  0.01003  1.0000
  C   C648      1.0  0.74451  0.84428  0.08166  1.0000
  C   C649      1.0  0.73236  0.81637  0.03662  1.0000
  C   C650      1.0  0.67191  0.93432  0.05910  1.0000
  H   H648      1.0  0.92709  0.69204  0.15620  1.0000
  H   H649      1.0  0.72140  0.53856  0.46058  1.0000
  H   H650      1.0  0.89980  0.50816  0.29584  1.0000
  Fe  Fe117     1.0  0.91550  0.74264  0.00698  1.0000
  C   C651      1.0  0.71436  0.55457  0.46540  1.0000
  C   C652      1.0  0.68323  0.88957  0.10268  1.0000
  C   C653      1.0  0.99329  0.75198  0.02908  1.0000
  H   H651      1.0  0.69860  0.89385  0.09188  1.0000
  Fe  Fe118     1.0  0.74715  0.63539  0.49906  1.0000
  C   C654      1.0  0.85593  0.62192  0.35239  1.0000
  C   C655      1.0  0.83709  0.61330  0.33956  1.0000
  C   C656      1.0  0.81747  0.61138  0.35648  1.0000
  C   C657      1.0  0.81652  0.61769  0.38651  1.0000
  C   C658      1.0  0.83547  0.62599  0.39945  1.0000
  C   C659      1.0  0.85500  0.62821  0.38241  1.0000
  H   H652      1.0  0.83753  0.60841  0.31650  1.0000
  H   H653      1.0  0.80292  0.60491  0.34627  1.0000
  H   H654      1.0  0.83498  0.63101  0.42246  1.0000
  H   H655      1.0  0.86945  0.63495  0.39255  1.0000
  C   C660      1.0  0.88015  0.66830  0.15297  1.0000
  C   C661      1.0  0.87740  0.68925  0.14008  1.0000
  C   C662      1.0  0.87688  0.69210  0.10889  1.0000
  C   C663      1.0  0.87861  0.67393  0.09026  1.0000
  C   C664      1.0  0.88097  0.65296  0.10319  1.0000
  C   C665      1.0  0.88195  0.65016  0.13432  1.0000
  H   H656      1.0  0.87588  0.70339  0.15427  1.0000
  H   H657      1.0  0.87495  0.70831  0.09930  1.0000
  H   H658      1.0  0.88212  0.63877  0.08901  1.0000
  H   H659      1.0  0.88389  0.63393  0.14388  1.0000
  C   C666      1.0  0.98637  0.60588  0.24983  1.0000
  H   H660      1.0  0.69960  0.82984  0.04243  1.0000
  C   C667      1.0  0.98611  0.62622  0.26390  1.0000
  C   C668      1.0  0.67942  0.89524  0.13260  1.0000
  H   H661      1.0  0.97071  0.63497  0.26702  1.0000
  C   C669      1.0  0.88630  0.52811  0.26069  1.0000
  C   C670      1.0  0.87712  0.52843  0.23237  1.0000
  H   H662      1.0  0.93750  0.73992  0.08660  1.0000
  H   H663      1.0  0.88842  0.54320  0.27252  1.0000
  S   S231      1.0  0.77966  0.64948  0.48351  1.0000
  C   C671      1.0  0.93527  0.50850  0.22395  1.0000
  C   C672      1.0  0.69811  0.58875  0.44908  1.0000
  H   H664      1.0  0.76631  0.80643  0.03597  1.0000
  H   H665      1.0  0.93918  0.71020  0.04994  1.0000
  C   C673      1.0  0.75407  0.81690  0.04653  1.0000
  S   S232      1.0  0.71889  0.96035  0.02356  1.0000
  H   H666      1.0  0.70841  0.56289  0.41951  1.0000
  H   H667      1.0  0.69255  0.59961  0.43143  1.0000
  H   H668      1.0  0.87977  0.69842  0.31124  1.0000
  H   H669      1.0  0.84089  0.66551  0.33814  1.0000
  C   C674      1.0  0.95170  0.49882  0.27086  1.0000
  C   C675      1.0  0.72259  0.84386  0.07268  1.0000
  H   H670      1.0  0.94833  0.55392  0.26118  1.0000
  S   S233      1.0  0.94795  0.75459  0.02616  1.0000
  H   H671      1.0  0.72792  0.80570  0.01857  1.0000
  H   H672      1.0  0.67032  0.94944  0.04535  1.0000
  S   S234      1.0  0.80155  0.59985  0.49209  1.0000
  C   C676      1.0  0.78277  0.83173  0.07856  1.0000
  C   C677      1.0  0.81587  0.83297  0.01441  1.0000
  H   H673      1.0  0.87290  0.67836  0.25499  1.0000
  C   C678      1.0  0.93013  0.69618  0.13297  1.0000
  H   H674      1.0  0.77041  0.50368  0.44518  1.0000
  H   H675      1.0  0.91966  0.53996  0.19116  1.0000
  C   C679      1.0  0.93567  0.72303  0.09395  1.0000
  H   H676      1.0  0.94385  0.55595  0.19937  1.0000
  H   H677      1.0  0.92736  0.50339  0.20374  1.0000
  H   H678      1.0  0.82263  0.84543  0.02848  1.0000
  S   S235      1.0  0.67142  0.87068  0.04930  1.0000
  C   C680      1.0  0.71652  0.82991  0.04991  1.0000
  C   C681      1.0  0.92964  0.54700  0.20919  1.0000
  N   N55       1.0  0.85877  0.67277  0.29808  1.0000
  C   C682      1.0  0.85859  0.67297  0.26767  1.0000
  C   C683      1.0  0.70702  0.56819  0.44243  1.0000
  N   N56       1.0  0.93360  0.68482  0.08209  1.0000
  C   C684      1.0  0.93646  0.70611  0.07321  1.0000
  C   C685      1.0  0.93092  0.67969  0.11160  1.0000
  C   C686      1.0  0.67229  0.94844  0.10984  1.0000
  H   H679      1.0  0.89334  0.67232  0.30401  1.0000
  C   C687      1.0  0.79520  0.83667  0.00124  1.0000
  C   C688      1.0  0.93437  0.66731  0.06001  1.0000
  C   C689      1.0  0.94669  0.53665  0.25623  1.0000
  H   H680      1.0  0.92861  0.66282  0.11869  1.0000
  H   H681      1.0  0.80825  0.65203  0.31230  1.0000
  C   C690      1.0  0.93233  0.71800  0.12399  1.0000
  H   H682      1.0  0.68971  0.93044  0.06153  1.0000
  C   C691      1.0  0.87385  0.50850  0.21773  1.0000
  H   H683      1.0  0.92755  0.67311  0.03849  1.0000
  H   H684      1.0  0.95157  0.66161  0.05646  1.0000
  H   H685      1.0  0.99117  0.75906  0.05090  1.0000
  H   H686      1.0  0.91880  0.55890  0.22087  1.0000
  H   H687      1.0  0.80779  0.65189  0.25687  1.0000
  H   H688      1.0  0.86662  0.50859  0.19588  1.0000
  H   H689      1.0  0.79305  0.81842  0.06873  1.0000
  C   C692      1.0  0.82193  0.65814  0.26845  1.0000
  C   C693      1.0  0.76772  0.52642  0.48159  1.0000
  H   H690      1.0  0.93132  0.73100  0.14023  1.0000
  H   H691      1.0  0.67313  0.79403  0.40608  1.0000
  H   H692      1.0  0.78362  0.83018  0.10313  1.0000
  H   H693      1.0  0.76907  0.54080  0.46745  1.0000
  C   C694      1.0  0.82214  0.65827  0.29947  1.0000
  H   H694      1.0  0.87789  0.67581  0.33747  1.0000
  N   N57       1.0  0.75988  0.83075  0.06880  1.0000
  H   H695      1.0  0.92390  0.65332  0.06715  1.0000
  H   H696      1.0  0.74919  0.85559  0.09887  1.0000
  H   H697      1.0  0.71038  0.85445  0.08303  1.0000
  H   H698      1.0  0.69195  0.90385  0.14457  1.0000
  C   C695      1.0  0.97460  0.74758  0.01201  1.0000
  H   H699      1.0  0.96102  0.52622  0.29773  1.0000
  H   H700      1.0  0.68879  0.95445  0.10555  1.0000
  C   C696      1.0  0.95394  0.52105  0.27697  1.0000
  N   N58       1.0  0.93732  0.53026  0.23026  1.0000
  C   C697      1.0  0.82796  0.81331  0.00968  1.0000
  C   C698      1.0  0.89252  0.50816  0.27403  1.0000
  H   H701      1.0  0.79005  0.84761  0.07137  1.0000
  H   H702      1.0  0.84376  0.81090  0.02005  1.0000
  H   H703      1.0  0.67167  0.95929  0.15551  1.0000
  H   H704      1.0  0.69059  0.61179  0.48361  1.0000
  C   C699      1.0  0.76850  0.50531  0.46901  1.0000
  C   C700      1.0  0.69713  0.59560  0.47868  1.0000
  C   C701      1.0  0.71305  0.56193  0.49473  1.0000
  Fe  Fe119     1.0  0.74738  0.87959  0.99936  1.0000
  Fe  Fe120     1.0  0.79477  0.62923  0.52087  1.0000
  S   S236      1.0  0.76220  0.61719  0.53808  1.0000
  S   S237      1.0  0.82316  0.63973  0.55020  1.0000
  H   H705      1.0  0.73483  0.98620  0.90450  1.0000
  H   H706      1.0  0.85687  0.55843  0.84432  1.0000
  H   H707      1.0  0.72009  0.95164  0.95583  1.0000
  H   H708      1.0  0.75301  0.97432  0.98040  1.0000
  H   H709      1.0  0.80493  0.57443  0.54600  1.0000
  N   N59       1.0  0.81247  0.56971  0.59168  1.0000
  Fe  Fe121     1.0  0.87948  0.62180  0.78167  1.0000
  S   S238      1.0  0.88192  0.64217  0.73969  1.0000
  S   S239      1.0  0.86592  0.63169  0.82739  1.0000
  Fe  Fe122     1.0  0.89766  0.58043  0.75033  1.0000
  S   S240      1.0  0.90134  0.59785  0.70644  1.0000
  S   S241      1.0  0.91289  0.54648  0.75482  1.0000
  Fe  Fe123     1.0  0.91497  0.62525  0.73348  1.0000
  S   S242      1.0  0.94705  0.64142  0.71942  1.0000
  Fe  Fe124     1.0  0.86811  0.61281  0.71616  1.0000
  S   S243      1.0  0.83853  0.61072  0.68524  1.0000
  S   S244      1.0  0.91319  0.60704  0.77681  1.0000
  S   S245      1.0  0.86359  0.59332  0.75881  1.0000
  Fe  Fe125     1.0  0.89298  0.71867  0.95617  1.0000
  S   S246      1.0  0.89678  0.75448  0.96685  1.0000
  S   S247      1.0  0.90015  0.70971  0.90773  1.0000
  S   S248      1.0  0.86144  0.71544  0.98221  1.0000
  C   C702      1.0  0.85418  0.58500  0.57700  1.0000
  N   N60       1.0  0.70519  0.58248  0.50093  1.0000
  C   C703      1.0  0.89665  0.59328  0.85939  1.0000
  C   C704      1.0  0.90823  0.50201  0.75843  1.0000
  C   C705      1.0  0.81740  0.57543  0.56292  1.0000
  Fe  Fe126     1.0  0.71201  0.89506  0.95508  1.0000
  S   S249      1.0  0.74427  0.90959  0.96937  1.0000
  S   S250      1.0  0.70444  0.89939  0.90561  1.0000
  C   C706      1.0  0.70492  0.59022  0.53168  1.0000
  H   H710      1.0  0.85620  0.58408  0.82382  1.0000
  C   C707      1.0  0.86247  0.57570  0.84409  1.0000
  H   H711      1.0  0.92601  0.50147  0.75743  1.0000
  C   C708      1.0  0.97761  0.73847  0.98382  1.0000
  H   H712      1.0  0.88697  0.60531  0.87159  1.0000
  H   H713      1.0  0.78750  0.56056  0.62351  1.0000
  H   H714      1.0  0.85497  0.58402  0.86368  1.0000
  N   N61       1.0  0.98075  0.59622  0.67823  1.0000
  C   C709      1.0  0.92173  0.56348  0.82716  1.0000
  S   S251      1.0  0.71182  0.65029  0.50137  1.0000
  C   C710      1.0  0.82815  0.57087  0.61317  1.0000
  H   H715      1.0  0.77800  0.57512  0.59123  1.0000
  C   C711      1.0  0.83824  0.58333  0.55516  1.0000
  H   H716      1.0  0.68951  0.58510  0.54315  1.0000
  C   C712      1.0  0.72211  0.99358  0.91835  1.0000
  H   H717      1.0  0.70086  0.85285  0.86422  1.0000
  C   C713      1.0  0.99210  0.64004  0.72546  1.0000
  C   C714      1.0  0.87668  0.65263  0.85006  1.0000
  C   C715      1.0  0.89216  0.66758  0.83917  1.0000
  C   C716      1.0  0.89952  0.68460  0.85743  1.0000
  C   C717      1.0  0.89175  0.68673  0.88688  1.0000
  C   C718      1.0  0.87664  0.67146  0.89804  1.0000
  C   C719      1.0  0.86904  0.65460  0.87962  1.0000
  H   H718      1.0  0.89817  0.66630  0.81648  1.0000
  H   H719      1.0  0.91117  0.69633  0.84854  1.0000
  H   H720      1.0  0.87045  0.67295  0.92060  1.0000
  H   H721      1.0  0.85703  0.64315  0.88828  1.0000
  C   C720      1.0  0.97193  0.61137  0.75089  1.0000
  C   C721      1.0  0.97189  0.63050  0.73359  1.0000
  N   N62       1.0  0.88655  0.57685  0.84436  1.0000
  H   H722      1.0  0.95664  0.60363  0.75691  1.0000
  H   H723      1.0  0.96345  0.73508  0.97034  1.0000
  C   C722      1.0  0.89718  0.52228  0.75737  1.0000
  H   H724      1.0  0.92735  0.60871  0.86981  1.0000
  C   C723      1.0  0.87418  0.52281  0.75893  1.0000
  H   H725      1.0  0.94990  0.58177  0.84101  1.0000
  H   H726      1.0  0.86549  0.53833  0.75812  1.0000
  H   H727      1.0  0.89077  0.54958  0.81539  1.0000
  C   C724      1.0  0.79008  0.56264  0.59916  1.0000
  H   H728      1.0  0.70612  0.60840  0.53245  1.0000
  H   H729      1.0  0.97173  0.62850  0.66436  1.0000
  C   C725      1.0  0.71115  0.95686  0.93556  1.0000
  H   H730      1.0  0.79234  0.78821  0.96403  1.0000
  C   C726      1.0  0.82659  0.63318  0.58849  1.0000
  C   C727      1.0  0.84702  0.63699  0.60180  1.0000
  C   C728      1.0  0.85085  0.63083  0.63164  1.0000
  C   C729      1.0  0.83414  0.62101  0.64864  1.0000
  C   C730      1.0  0.81349  0.61787  0.63561  1.0000
  C   C731      1.0  0.80976  0.62374  0.60567  1.0000
  H   H731      1.0  0.86008  0.64448  0.58877  1.0000
  H   H732      1.0  0.86677  0.63349  0.64137  1.0000
  H   H733      1.0  0.80038  0.61048  0.64864  1.0000
  H   H734      1.0  0.79389  0.62097  0.59589  1.0000
  H   H735      1.0  0.98418  0.61146  0.63587  1.0000
  C   C732      1.0  0.91955  0.59527  0.85851  1.0000
  H   H736      1.0  0.67554  0.86164  0.77602  1.0000
  C   C733      1.0  0.93215  0.58021  0.84233  1.0000
  H   H737      1.0  0.77117  0.82276  0.97248  1.0000
  C   C734      1.0  0.89876  0.56219  0.82813  1.0000
  H   H738      1.0  0.86119  0.58058  0.62359  1.0000
  S   S252      1.0  0.71616  0.86429  0.98304  1.0000
  N   N63       1.0  0.84996  0.73867  0.89757  1.0000
  C   C735      1.0  0.85492  0.72750  0.87209  1.0000
  C   C736      1.0  0.83432  0.73095  0.91707  1.0000
  C   C737      1.0  0.84424  0.70793  0.86567  1.0000
  C   C738      1.0  0.82354  0.71127  0.91156  1.0000
  C   C739      1.0  0.82860  0.69971  0.88569  1.0000
  C   C740      1.0  0.86165  0.75899  0.90374  1.0000
  H   H739      1.0  0.86783  0.73325  0.85714  1.0000
  H   H740      1.0  0.83039  0.73977  0.93733  1.0000
  H   H741      1.0  0.84881  0.69872  0.84595  1.0000
  H   H742      1.0  0.81161  0.70492  0.92751  1.0000
  H   H743      1.0  0.82078  0.68417  0.88139  1.0000
  H   H744      1.0  0.85772  0.77162  0.88667  1.0000
  H   H745      1.0  0.85712  0.76572  0.92593  1.0000
  H   H746      1.0  0.87970  0.75580  0.90357  1.0000
  H   H747      1.0  0.82419  0.56698  0.63620  1.0000
  C   C741      1.0  0.78694  0.82032  0.98291  1.0000
  H   H748      1.0  0.69181  0.91096  0.84628  1.0000
  H   H749      1.0  0.78658  0.54691  0.58797  1.0000
  C   C742      1.0  0.95967  0.58952  0.68384  1.0000
  S   S253      1.0  0.69234  0.91258  0.99000  1.0000
  S   S254      1.0  0.76284  0.55502  0.52930  1.0000
  C   C743      1.0  0.84923  0.57853  0.60615  1.0000
  C   C744      1.0  0.69320  0.99015  0.95406  1.0000
  H   H750      1.0  0.68319  0.97999  0.96872  1.0000
  H   H751      1.0  0.70628  0.86497  0.81178  1.0000
  C   C745      1.0  0.95562  0.57085  0.70129  1.0000
  H   H752      1.0  0.87005  0.59206  0.57152  1.0000
  S   S255      1.0  0.83399  0.77142  0.98474  1.0000
  C   C746      1.0  0.69082  0.85768  0.81879  1.0000
  H   H753      1.0  0.93127  0.55195  0.81392  1.0000
  N   N64       1.0  0.70846  0.98076  0.93541  1.0000
  H   H754      1.0  0.94585  0.59906  0.67559  1.0000
  C   C747      1.0  0.79903  0.80064  0.97819  1.0000
  H   H755      1.0  0.97022  0.54494  0.72730  1.0000
  H   H756      1.0  0.84168  0.58898  0.53263  1.0000
  C   C748      1.0  0.67877  0.89757  0.88734  1.0000
  H   H757      1.0  0.99221  0.65490  0.71215  1.0000
  H   H758      1.0  0.76115  0.51148  0.55405  1.0000
  H   H759      1.0  0.99163  0.58630  0.77178  1.0000
  S   S256      1.0  0.91378  0.70739  0.99431  1.0000
  C   C749      1.0  0.76338  0.50986  0.53028  1.0000
  C   C750      1.0  0.99186  0.60148  0.75916  1.0000
  H   H760      1.0  0.71885  0.55126  0.51244  1.0000
  H   H761      1.0  0.71933  0.58361  0.54399  1.0000
  H   H762      1.0  0.69492  0.94862  0.93541  1.0000
  H   H763      1.0  0.93889  0.56585  0.70634  1.0000
  C   C751      1.0  0.97327  0.55902  0.71297  1.0000
  Fe  Fe127     1.0  0.86570  0.75107  0.99467  1.0000
  C   C752      1.0  0.99820  0.58442  0.68903  1.0000
  C   C753      1.0  0.98455  0.61578  0.65976  1.0000
  C   C754      1.0  0.74488  0.98872  0.98929  1.0000
  C   C755      1.0  0.67750  0.90405  0.85728  1.0000
  H   H764      1.0  0.72050  0.95093  0.91574  1.0000
  C   C756      1.0  0.76504  0.52882  0.51233  1.0000
  C   C757      1.0  0.81965  0.79689  0.99151  1.0000
  C   C758      1.0  0.99474  0.56575  0.70672  1.0000
  H   H765      1.0  0.84460  0.50358  0.76299  1.0000
  C   C759      1.0  0.86238  0.50311  0.76164  1.0000
  C   C760      1.0  0.68784  0.85074  0.84820  1.0000
  C   C761      1.0  0.67539  0.67816  0.50199  1.0000
  C   C762      1.0  0.69861  0.67686  0.50141  1.0000
  C   C763      1.0  0.67359  0.85587  0.79878  1.0000
  C   C764      1.0  0.69903  0.71697  0.50133  1.0000
  C   C765      1.0  0.67584  0.71827  0.50203  1.0000
  C   C766      1.0  0.71032  0.69653  0.50099  1.0000
  C   C767      1.0  0.99901  0.73434  0.97261  1.0000
  Fe  Fe128     1.0  0.76822  0.58866  0.50747  1.0000
  H   H766      1.0  0.70843  0.73194  0.50116  1.0000
  C   C768      1.0  0.66756  0.84210  0.85722  1.0000
  H   H767      1.0  0.72811  0.69602  0.50059  1.0000
  H   H768      1.0  0.00062  0.62338  0.66480  1.0000
