data_image0
_chemical_formula_structural       HC2SHSHFeSFeCSHCHCS2FeS2H3FeHSFeS2CNHCHC6H4CFeC3H4SCHCH2CHFeNC2H2CH2CH3C2H2C4NC5H2C3H2FeNC2HC5H5C2H3SFeSC3FeS2CSH2NHFeS2C6H4CH3CHCHCSC2H2C2HCHFeCHCHSH2FeH4SC3SFeHCNC6H3FeCH2C2SNH4CH2CFeSH3SCSCFeS2FeS2FeSFeS3FeSCFeS2CH2SC2H4C6H4C6H7C6H4NC6H8SH2C3H2SCHC3H2C2HNH2CHNH2CHFeCHSCH2CNCH2CH2CSH2CSC2FeS2CHC2FeS2H4FeSHSFeSH2SFeS2FeS2FeSFeS3FeSC6H4C6H4FeHC3H3C6H4C2HC3H3SNC2H2SNC6H8CHC2H2C3NHCH4C2HNC6SH3CH2CH3C2NHCNC2HCHS2HCHFeC2HCFeHCHCH2FeS3HSCHSFeS2FeS2NC2HC2HC6H5C3SHCHC4H3NCHNC5H3CSH2CH2CHFeC3H3CHSHSCFeSHCHFeC2HNCH2C3H2CH2CHC2HSCFeC2SCHSFeHC3H2SC2FeS2C2H3NHS2C6H5CHNCH2FeSHCH3SCHC3HC2HFeCHCHSCH2CSHCS2C3HFeHFeH7C3HFeH2C2NHCHFeH2CSCFeC2FeSCHFeHS2FeS2CHC6H7C2H2SCH2CHCNSC2HCS2H2CH2S2CHFeCH3CNC5S2CHSHSH2CHSC2HCH2C2FeHS2HSCHC3HCHFeHFeS2CHCHC2FeS2C6H4CFeCNHCFeCH3C2HSH3NH2CH2C2NSHCH3C3HCH2CHCH2CNHCHC7SHCH2CHCSH2C3HCHSCNCH4SH3CH2CSCHSC3H3FeCNCHCHCFeS2FeS2FeSFeS3FeSNFeSH2C4H2C6H4C6H6C2HC2H2C6H3C3NH2NC2SH2CH11CNC3HC2HCH2SCSCH4CNH2S2CHC3H2FeHCFeCHC2HCFeS2FeHS2CFe2S2FeS2FeSFeS3HSFeSC2FeSC6H4C6H4CNCH2CHC2HC2HC11H4FeNC6H8C2HSHCHNSFeHC3HC2H2C2SHCHCH4CHCH2CH2SHSNH3C2HCH2SHFeCH2CHFeH5C2NHSCHCSCFeH2SCFeSFeS2H2CH3FeS2CH4C6H4C2HC2SC4HSCSCH3C7H2C2HNCH2C2SHC3HCH2SH2CH2NCFeH5C2H2SCHSC2H2C2SCSFeHCHFeSHNHS2H2FeHS2FeS2C6H4C4HCHC2HCFeC3HSC2H7C4H4FeSCH3NCH3CHC2NCSHNCHCHSCH2CFeSH4CSFeC2H2C
_chemical_formula_sum              "H576 C576 S192 Fe96 N48"
_cell_length_a       55.1538
_cell_length_b       55.044
_cell_length_c       33.1387
_cell_angle_alpha    91.3815
_cell_angle_beta     87.3562
_cell_angle_gamma    88.9905

_space_group_name_H-M_alt    "P 1"
_space_group_IT_number       1

loop_
  _space_group_symop_operation_xyz
  'x, y, z'

loop_
  _atom_site_type_symbol
  _atom_site_label
  _atom_site_symmetry_multiplicity
  _atom_site_fract_x
  _atom_site_fract_y
  _atom_site_fract_z
  _atom_site_occupancy
  H   H1        1.0  0.44210  0.01006  0.16544  1.0000
  C   C1        1.0  0.43155  0.04208  0.28322  1.0000
  C   C2        1.0  0.01965  0.26555  0.32575  1.0000
  S   S1        1.0  0.33990  0.02153  0.22292  1.0000
  H   H2        1.0  0.25734  0.04743  0.41114  1.0000
  S   S2        1.0  0.17991  0.03274  0.45695  1.0000
  H   H3        1.0  0.44679  0.23906  0.12409  1.0000
  Fe  Fe1       1.0  0.13948  0.02629  0.45927  1.0000
  S   S3        1.0  0.10794  0.04904  0.43625  1.0000
  Fe  Fe2       1.0  0.02176  0.16735  0.47322  1.0000
  C   C3        1.0  0.47156  0.26767  0.10845  1.0000
  S   S4        1.0  0.01433  0.20641  0.45741  1.0000
  H   H4        1.0  0.03435  0.27560  0.33828  1.0000
  C   C4        1.0  0.47059  0.15954  0.47713  1.0000
  H   H5        1.0  0.42549  0.19542  0.14476  1.0000
  C   C5        1.0  0.42956  0.02566  0.17306  1.0000
  S   S5        1.0  0.48146  0.15148  0.21734  1.0000
  S   S6        1.0  0.46353  0.21641  0.19530  1.0000
  Fe  Fe3       1.0  0.46539  0.14212  0.27822  1.0000
  S   S7        1.0  0.43472  0.11633  0.29196  1.0000
  S   S8        1.0  0.46123  0.18111  0.29976  1.0000
  H   H6        1.0  0.30419  0.02625  0.02955  1.0000
  H   H7        1.0  0.40211  0.16509  0.27737  1.0000
  H   H8        1.0  0.06259  0.22701  0.31233  1.0000
  Fe  Fe4       1.0  0.48023  0.19040  0.24012  1.0000
  H   H9        1.0  0.45308  0.15109  0.48075  1.0000
  S   S9        1.0  0.26903  0.02968  0.23134  1.0000
  Fe  Fe5       1.0  0.35257  0.03592  0.16295  1.0000
  S   S10       1.0  0.37932  0.06588  0.15049  1.0000
  S   S11       1.0  0.31573  0.03474  0.13656  1.0000
  C   C6        1.0  0.10608  0.09419  0.47667  1.0000
  N   N1        1.0  0.42368  0.02675  0.21666  1.0000
  H   H10       1.0  0.39136  0.14495  0.13327  1.0000
  C   C7        1.0  0.47930  0.16600  0.43821  1.0000
  H   H11       1.0  0.46851  0.16252  0.41230  1.0000
  C   C8        1.0  0.41978  0.10209  0.25237  1.0000
  C   C9        1.0  0.39871  0.08897  0.26140  1.0000
  C   C10       1.0  0.38628  0.07745  0.23044  1.0000
  C   C11       1.0  0.39476  0.07926  0.19027  1.0000
  C   C12       1.0  0.41583  0.09237  0.18123  1.0000
  C   C13       1.0  0.42838  0.10368  0.21222  1.0000
  H   H12       1.0  0.39195  0.08776  0.29246  1.0000
  H   H13       1.0  0.36995  0.06752  0.23760  1.0000
  H   H14       1.0  0.42242  0.09383  0.15013  1.0000
  H   H15       1.0  0.44462  0.11370  0.20500  1.0000
  C   C14       1.0  0.09543  0.07834  0.44933  1.0000
  Fe  Fe6       1.0  0.30367  0.01704  0.19531  1.0000
  C   C15       1.0  0.07331  0.12433  0.46938  1.0000
  C   C16       1.0  0.06251  0.10835  0.44239  1.0000
  C   C17       1.0  0.07364  0.08561  0.43221  1.0000
  H   H16       1.0  0.04561  0.11346  0.42932  1.0000
  H   H17       1.0  0.06522  0.07347  0.41107  1.0000
  H   H18       1.0  0.42893  0.18271  0.22434  1.0000
  H   H19       1.0  0.42534  0.16782  0.11426  1.0000
  S   S12       1.0  0.02301  0.29826  0.26440  1.0000
  C   C18       1.0  0.23404  0.02810  0.29350  1.0000
  H   H20       1.0  0.22835  0.04570  0.28312  1.0000
  C   C19       1.0  0.22132  0.01774  0.32665  1.0000
  H   H21       1.0  0.22904  0.03156  0.40964  1.0000
  H   H22       1.0  0.12284  0.08890  0.49005  1.0000
  C   C20       1.0  0.05950  0.21112  0.33050  1.0000
  H   H23       1.0  0.04906  0.15470  0.39537  1.0000
  Fe  Fe7       1.0  0.49446  0.31984  0.02954  1.0000
  N   N2        1.0  0.04381  0.19364  0.31852  1.0000
  C   C21       1.0  0.42815  0.17534  0.14504  1.0000
  C   C22       1.0  0.46328  0.24804  0.13182  1.0000
  H   H24       1.0  0.44735  0.17150  0.15209  1.0000
  H   H25       1.0  0.36902  0.13767  0.25793  1.0000
  C   C23       1.0  0.49712  0.25224  0.17497  1.0000
  H   H26       1.0  0.08353  0.22305  0.37650  1.0000
  H   H27       1.0  0.46144  0.27357  0.08315  1.0000
  C   C24       1.0  0.01027  0.24538  0.34636  1.0000
  H   H28       1.0  0.01962  0.04308  0.47326  1.0000
  H   H29       1.0  0.36379  0.12751  0.18534  1.0000
  H   H30       1.0  0.07670  0.18657  0.41836  1.0000
  C   C25       1.0  0.49237  0.28016  0.11881  1.0000
  C   C26       1.0  0.09519  0.11714  0.48629  1.0000
  H   H31       1.0  0.01320  0.18888  0.28236  1.0000
  H   H32       1.0  0.20599  0.02739  0.34143  1.0000
  C   C27       1.0  0.25392  0.01584  0.27341  1.0000
  C   C28       1.0  0.03997  0.17357  0.34139  1.0000
  C   C29       1.0  0.40570  0.01252  0.23247  1.0000
  C   C30       1.0  0.47594  0.24019  0.16528  1.0000
  N   N3        1.0  0.41167  0.16498  0.17577  1.0000
  C   C31       1.0  0.41452  0.17079  0.21562  1.0000
  C   C32       1.0  0.39350  0.14989  0.16476  1.0000
  C   C33       1.0  0.39916  0.16118  0.24572  1.0000
  C   C34       1.0  0.37768  0.14010  0.19407  1.0000
  C   C35       1.0  0.38060  0.14579  0.23480  1.0000
  H   H33       1.0  0.01773  0.23999  0.37450  1.0000
  H   H34       1.0  0.41281  0.02361  0.15593  1.0000
  C   C36       1.0  0.24265  0.03914  0.42995  1.0000
  C   C37       1.0  0.03210  0.19564  0.27985  1.0000
  C   C38       1.0  0.43681  0.04115  0.24149  1.0000
  H   H35       1.0  0.43797  0.04276  0.16267  1.0000
  H   H36       1.0  0.02746  0.15976  0.33202  1.0000
  Fe  Fe8       1.0  0.00847  0.32295  0.21554  1.0000
  N   N4        1.0  0.25267  0.01978  0.45420  1.0000
  C   C39       1.0  0.40006  0.01284  0.27404  1.0000
  C   C40       1.0  0.25328  0.02255  0.49530  1.0000
  H   H37       1.0  0.03074  0.21488  0.27049  1.0000
  C   C41       1.0  0.00696  0.07884  0.49236  1.0000
  C   C42       1.0  0.07141  0.20899  0.36670  1.0000
  C   C43       1.0  0.02364  0.05932  0.49069  1.0000
  C   C44       1.0  0.01012  0.27293  0.28919  1.0000
  C   C45       1.0  0.06761  0.18857  0.39017  1.0000
  H   H38       1.0  0.06333  0.03151  0.47802  1.0000
  H   H39       1.0  0.38562  0.00155  0.28615  1.0000
  H   H40       1.0  0.23327  0.05363  0.44909  1.0000
  H   H41       1.0  0.40856  0.02860  0.33175  1.0000
  H   H42       1.0  0.45098  0.05258  0.22904  1.0000
  C   C46       1.0  0.05194  0.17066  0.37734  1.0000
  C   C47       1.0  0.41300  0.02786  0.29951  1.0000
  H   H43       1.0  0.44139  0.05429  0.30256  1.0000
  H   H44       1.0  0.04257  0.18492  0.25596  1.0000
  H   H45       1.0  0.39542  0.00096  0.21295  1.0000
  S   S13       1.0  0.06019  0.15328  0.48314  1.0000
  Fe  Fe9       1.0  0.49842  0.17547  0.32385  1.0000
  S   S14       1.0  0.30125  0.02562  0.88106  1.0000
  C   C48       1.0  0.48943  0.23795  0.77507  1.0000
  C   C49       1.0  0.04993  0.08127  0.53247  1.0000
  C   C50       1.0  0.48163  0.22614  0.54351  1.0000
  Fe  Fe10      1.0  0.47829  0.13497  0.70509  1.0000
  S   S15       1.0  0.46247  0.16799  0.67666  1.0000
  S   S16       1.0  0.46077  0.10490  0.74113  1.0000
  C   C51       1.0  0.30926  0.01629  0.00181  1.0000
  S   S17       1.0  0.47128  0.15717  0.55990  1.0000
  H   H46       1.0  0.33608  0.11244  0.77085  1.0000
  H   H47       1.0  0.48626  0.27564  0.75935  1.0000
  N   N5        1.0  0.45139  0.21495  0.59390  1.0000
  H   H48       1.0  0.05548  0.02604  0.53072  1.0000
  Fe  Fe11      1.0  0.33996  0.03612  0.74244  1.0000
  S   S18       1.0  0.35315  0.07114  0.71576  1.0000
  S   S19       1.0  0.30092  0.03305  0.76424  1.0000
  C   C52       1.0  0.38382  0.07903  0.71966  1.0000
  C   C53       1.0  0.39967  0.06505  0.74178  1.0000
  C   C54       1.0  0.42334  0.07305  0.74768  1.0000
  C   C55       1.0  0.43146  0.09481  0.73090  1.0000
  C   C56       1.0  0.41585  0.10844  0.70785  1.0000
  C   C57       1.0  0.39203  0.10063  0.70250  1.0000
  H   H49       1.0  0.39352  0.04841  0.75516  1.0000
  H   H50       1.0  0.43535  0.06245  0.76557  1.0000
  H   H51       1.0  0.42196  0.12522  0.69482  1.0000
  H   H52       1.0  0.37986  0.11152  0.68532  1.0000
  C   C58       1.0  0.48758  0.26311  0.78384  1.0000
  H   H53       1.0  0.25042  0.01531  0.75671  1.0000
  H   H54       1.0  0.49218  0.20259  0.80092  1.0000
  H   H55       1.0  0.43136  0.18289  0.60237  1.0000
  C   C59       1.0  0.42850  0.20295  0.60437  1.0000
  H   H56       1.0  0.41432  0.20808  0.58325  1.0000
  C   C60       1.0  0.48421  0.16401  0.51132  1.0000
  H   H57       1.0  0.25170  0.01343  0.84499  1.0000
  C   C61       1.0  0.46529  0.22405  0.62371  1.0000
  S   S20       1.0  0.20440  0.02989  0.56491  1.0000
  C   C62       1.0  0.23822  0.03032  0.62380  1.0000
  C   C63       1.0  0.25374  0.01998  0.65181  1.0000
  H   H58       1.0  0.23818  0.04977  0.61973  1.0000
  H   H59       1.0  0.26540  0.03148  0.66900  1.0000
  C   C64       1.0  0.06175  0.03987  0.50898  1.0000
  C   C65       1.0  0.48767  0.27224  0.82405  1.0000
  H   H60       1.0  0.31530  0.11600  0.81446  1.0000
  C   C66       1.0  0.45933  0.21581  0.55424  1.0000
  H   H61       1.0  0.06691  0.08265  0.54755  1.0000
  Fe  Fe12      1.0  0.18011  0.01372  0.51689  1.0000
  C   C67       1.0  0.49088  0.22197  0.80708  1.0000
  H   H62       1.0  0.45932  0.22299  0.65528  1.0000
  C   C68       1.0  0.22285  0.01578  0.60095  1.0000
  H   H63       1.0  0.39039  0.05954  0.88925  1.0000
  S   S21       1.0  0.46331  0.31343  0.98894  1.0000
  H   H64       1.0  0.31550  0.08875  0.78242  1.0000
  H   H65       1.0  0.34612  0.05249  0.89968  1.0000
  Fe  Fe13      1.0  0.31558  0.01372  0.81765  1.0000
  H   H66       1.0  0.29430  0.04334  0.96336  1.0000
  H   H67       1.0  0.48641  0.29161  0.83026  1.0000
  H   H68       1.0  0.44887  0.20754  0.53075  1.0000
  H   H69       1.0  0.42157  0.20796  0.63554  1.0000
  S   S22       1.0  0.49111  0.22749  0.72374  1.0000
  C   C69       1.0  0.30985  0.01317  0.92766  1.0000
  C   C70       1.0  0.30367  0.02593  0.96412  1.0000
  C   C71       1.0  0.49593  0.23540  0.57370  1.0000
  S   S23       1.0  0.35426  0.02009  0.79803  1.0000
  Fe  Fe14      1.0  0.49435  0.18786  0.70112  1.0000
  H   H70       1.0  0.49246  0.21856  0.87168  1.0000
  C   C72       1.0  0.49101  0.23110  0.84722  1.0000
  N   N6        1.0  0.34457  0.09119  0.82194  1.0000
  C   C73       1.0  0.36885  0.09553  0.81644  1.0000
  C   C74       1.0  0.33640  0.07620  0.85174  1.0000
  C   C75       1.0  0.38570  0.08424  0.84050  1.0000
  C   C76       1.0  0.35272  0.06472  0.87653  1.0000
  C   C77       1.0  0.37753  0.06866  0.87064  1.0000
  C   C78       1.0  0.32698  0.10279  0.79633  1.0000
  H   H71       1.0  0.37541  0.10740  0.79280  1.0000
  H   H72       1.0  0.31715  0.07278  0.85617  1.0000
  H   H73       1.0  0.40497  0.08734  0.83530  1.0000
  Fe  Fe15      1.0  0.48742  0.15821  0.62234  1.0000
  C   C79       1.0  0.48771  0.23445  0.61407  1.0000
  H   H74       1.0  0.10373  0.12936  0.50716  1.0000
  H   H75       1.0  0.43331  0.00904  0.69473  1.0000
  C   C80       1.0  0.23558  0.00485  0.77144  1.0000
  C   C81       1.0  0.48972  0.25626  0.85598  1.0000
  S   S24       1.0  0.49274  0.26649  0.90687  1.0000
  N   N7        1.0  0.04487  0.06079  0.51040  1.0000
  H   H76       1.0  0.22279  0.01759  0.78842  1.0000
  H   H77       1.0  0.24593  0.03890  0.51065  1.0000
  H   H78       1.0  0.08044  0.04532  0.51619  1.0000
  H   H79       1.0  0.48808  0.22614  0.51204  1.0000
  C   C82       1.0  0.01210  0.09984  0.51446  1.0000
  H   H80       1.0  0.00151  0.23488  0.67942  1.0000
  H   H81       1.0  0.03815  0.11774  0.55086  1.0000
  C   C83       1.0  0.03369  0.10114  0.53466  1.0000
  Fe  Fe16      1.0  0.49210  0.30351  0.94032  1.0000
  S   S25       1.0  0.13921  0.01032  0.52131  1.0000
  H   H82       1.0  0.49785  0.06737  0.71252  1.0000
  H   H83       1.0  0.26356  0.00642  0.55094  1.0000
  H   H84       1.0  0.99942  0.11513  0.51562  1.0000
  S   S26       1.0  0.34096  0.00105  0.70637  1.0000
  C   C84       1.0  0.26311  0.00416  0.51837  1.0000
  S   S27       1.0  0.28133  0.53570  0.09178  1.0000
  C   C85       1.0  0.12132  0.42521  0.13110  1.0000
  Fe  Fe17      1.0  0.17316  0.50161  0.25528  1.0000
  S   S28       1.0  0.13239  0.50194  0.25021  1.0000
  S   S29       1.0  0.19453  0.48908  0.19710  1.0000
  Fe  Fe18      1.0  0.16838  0.50598  0.34915  1.0000
  S   S30       1.0  0.12792  0.50635  0.34936  1.0000
  S   S31       1.0  0.18833  0.50260  0.40782  1.0000
  Fe  Fe19      1.0  0.13176  0.47671  0.30219  1.0000
  S   S32       1.0  0.11055  0.44238  0.31083  1.0000
  Fe  Fe20      1.0  0.13200  0.53183  0.29760  1.0000
  S   S33       1.0  0.10268  0.56112  0.30435  1.0000
  S   S34       1.0  0.17215  0.47434  0.30495  1.0000
  S   S35       1.0  0.17286  0.53364  0.29982  1.0000
  Fe  Fe21      1.0  0.02073  0.37231  0.17908  1.0000
  S   S36       1.0  0.04630  0.40377  0.17041  1.0000
  C   C86       1.0  0.39552  0.41491  0.03427  1.0000
  Fe  Fe22      1.0  0.03387  0.64859  0.17469  1.0000
  S   S37       1.0  0.07277  0.63485  0.17060  1.0000
  S   S38       1.0  0.01323  0.65841  0.23272  1.0000
  C   C87       1.0  0.17510  0.50818  0.45723  1.0000
  H   H85       1.0  0.13902  0.43493  0.39743  1.0000
  H   H86       1.0  0.11838  0.43430  0.10300  1.0000
  S   S39       1.0  0.29655  0.48171  0.01169  1.0000
  C   C88       1.0  0.02866  0.56889  0.20892  1.0000
  C   C89       1.0  0.15100  0.51621  0.46361  1.0000
  H   H87       1.0  0.39113  0.61594  0.04086  1.0000
  H   H88       1.0  0.09549  0.39702  0.12005  1.0000
  H   H89       1.0  0.04344  0.58347  0.15335  1.0000
  H   H90       1.0  0.14017  0.51995  0.43801  1.0000
  C   C90       1.0  0.09066  0.43315  0.27350  1.0000
  C   C91       1.0  0.08784  0.44668  0.23880  1.0000
  C   C92       1.0  0.07329  0.43796  0.20811  1.0000
  C   C93       1.0  0.06141  0.41572  0.21195  1.0000
  C   C94       1.0  0.06369  0.40252  0.24713  1.0000
  C   C95       1.0  0.07833  0.41120  0.27778  1.0000
  H   H91       1.0  0.09722  0.46358  0.23520  1.0000
  H   H92       1.0  0.07165  0.44816  0.18084  1.0000
  H   H93       1.0  0.05474  0.38528  0.25022  1.0000
  H   H94       1.0  0.08042  0.40065  0.30458  1.0000
  C   C96       1.0  0.09563  0.58212  0.26728  1.0000
  C   C97       1.0  0.11065  0.58530  0.23271  1.0000
  C   C98       1.0  0.10375  0.60189  0.20344  1.0000
  C   C99       1.0  0.08163  0.61488  0.20825  1.0000
  C   C100      1.0  0.06673  0.61169  0.24288  1.0000
  C   C101      1.0  0.07383  0.59557  0.27245  1.0000
  H   H95       1.0  0.12758  0.57510  0.22865  1.0000
  H   H96       1.0  0.11543  0.60440  0.17677  1.0000
  H   H97       1.0  0.04963  0.62148  0.24686  1.0000
  H   H98       1.0  0.06216  0.59316  0.29914  1.0000
  H   H99       1.0  0.12057  0.46219  0.40043  1.0000
  H   H100      1.0  0.04555  0.50714  0.27182  1.0000
  H   H101      1.0  0.14710  0.45116  0.15146  1.0000
  C   C102      1.0  0.25606  0.52339  0.11920  1.0000
  C   C103      1.0  0.24478  0.50219  0.10629  1.0000
  C   C104      1.0  0.22576  0.49225  0.13024  1.0000
  C   C105      1.0  0.21770  0.50333  0.16733  1.0000
  C   C106      1.0  0.22882  0.52466  0.18006  1.0000
  C   C107      1.0  0.24786  0.53460  0.15610  1.0000
  H   H102      1.0  0.25082  0.49336  0.07799  1.0000
  H   H103      1.0  0.21728  0.47580  0.11995  1.0000
  H   H104      1.0  0.22285  0.53344  0.20845  1.0000
  H   H105      1.0  0.25637  0.55106  0.16636  1.0000
  N   N8        1.0  0.30783  0.49102  0.14774  1.0000
  C   C108      1.0  0.28737  0.48469  0.16966  1.0000
  C   C109      1.0  0.31747  0.47588  0.11756  1.0000
  C   C110      1.0  0.27548  0.46314  0.16052  1.0000
  C   C111      1.0  0.30607  0.45419  0.10762  1.0000
  C   C112      1.0  0.28482  0.44792  0.12906  1.0000
  C   C113      1.0  0.32006  0.51367  0.15773  1.0000
  H   H106      1.0  0.27961  0.49673  0.19344  1.0000
  H   H107      1.0  0.33391  0.48064  0.10057  1.0000
  H   H108      1.0  0.25872  0.45873  0.17700  1.0000
  H   H109      1.0  0.31359  0.44252  0.08307  1.0000
  H   H110      1.0  0.27555  0.43139  0.12108  1.0000
  H   H111      1.0  0.33389  0.51034  0.18031  1.0000
  H   H112      1.0  0.32883  0.52147  0.13017  1.0000
  H   H113      1.0  0.30674  0.52778  0.16977  1.0000
  S   S40       1.0  0.00498  0.62511  0.15098  1.0000
  H   H114      1.0  0.07786  0.65124  0.30659  1.0000
  H   H115      1.0  0.40410  0.48425  0.03863  1.0000
  C   C114      1.0  0.07075  0.54057  0.20878  1.0000
  C   C115      1.0  0.13735  0.43472  0.15870  1.0000
  C   C116      1.0  0.10871  0.40415  0.14037  1.0000
  H   H116      1.0  0.17609  0.42743  0.21513  1.0000
  H   H117      1.0  0.10210  0.37678  0.18465  1.0000
  S   S41       1.0  0.35943  0.45017  0.03542  1.0000
  C   C117      1.0  0.11245  0.39271  0.17672  1.0000
  H   H118      1.0  0.05444  0.53286  0.30301  1.0000
  C   C118      1.0  0.05776  0.52293  0.27359  1.0000
  C   C119      1.0  0.00963  0.34956  0.01070  1.0000
  C   C120      1.0  0.04599  0.57055  0.17712  1.0000
  H   H119      1.0  0.15228  0.42911  0.25478  1.0000
  H   H120      1.0  0.20763  0.49756  0.48645  1.0000
  C   C121      1.0  0.03286  0.55302  0.24032  1.0000
  C   C122      1.0  0.18893  0.50367  0.49103  1.0000
  H   H121      1.0  0.07684  0.51603  0.27330  1.0000
  N   N9        1.0  0.05380  0.53928  0.24012  1.0000
  H   H122      1.0  0.08758  0.53009  0.20897  1.0000
  H   H123      1.0  0.01948  0.55214  0.26525  1.0000
  C   C123      1.0  0.06712  0.55625  0.17689  1.0000
  H   H124      1.0  0.42485  0.38814  0.03438  1.0000
  N   N10       1.0  0.14040  0.42372  0.19476  1.0000
  H   H125      1.0  0.13057  0.39429  0.23262  1.0000
  H   H126      1.0  0.01847  0.35742  0.03627  1.0000
  C   C124      1.0  0.15730  0.43399  0.22315  1.0000
  H   H127      1.0  0.39306  0.41576  0.06685  1.0000
  Fe  Fe23      1.0  0.30072  0.51999  0.03414  1.0000
  C   C125      1.0  0.12845  0.40282  0.20378  1.0000
  H   H128      1.0  0.08102  0.55799  0.15293  1.0000
  S   S42       1.0  0.34163  0.51708  0.03253  1.0000
  C   C126      1.0  0.13805  0.45399  0.40927  1.0000
  H   H129      1.0  0.43364  0.45170  0.01689  1.0000
  H   H130      1.0  0.08593  0.66468  0.23673  1.0000
  C   C127      1.0  0.16243  0.44931  0.46844  1.0000
  N   N11       1.0  0.14040  0.45468  0.45317  1.0000
  C   C128      1.0  0.38086  0.42966  0.01079  1.0000
  H   H131      1.0  0.15285  0.46440  0.39426  1.0000
  H   H132      1.0  0.15697  0.45415  0.22233  1.0000
  C   C129      1.0  0.39623  0.60735  0.01191  1.0000
  H   H133      1.0  0.17819  0.44567  0.44821  1.0000
  H   H134      1.0  0.01238  0.58030  0.20983  1.0000
  C   C130      1.0  0.41355  0.39920  0.01596  1.0000
  S   S43       1.0  0.00243  0.36173  0.23765  1.0000
  H   H135      1.0  0.10329  0.46470  0.46652  1.0000
  H   H136      1.0  0.36713  0.58141  0.01550  1.0000
  C   C131      1.0  0.12070  0.46019  0.47859  1.0000
  S   S44       1.0  0.49770  0.35976  0.01433  1.0000
  C   C132      1.0  0.41165  0.48345  0.00778  1.0000
  C   C133      1.0  0.14089  0.51963  0.50324  1.0000
  Fe  Fe24      1.0  0.33735  0.47965  0.00553  1.0000
  S   S45       1.0  0.43152  0.64218  0.00728  1.0000
  S   S46       1.0  0.02971  0.33374  0.15861  1.0000
  C   C134      1.0  0.41315  0.49848  0.94001  1.0000
  H   H137      1.0  0.32032  0.49883  0.80212  1.0000
  C   C135      1.0  0.39695  0.64670  0.88102  1.0000
  C   C136      1.0  0.41620  0.61614  0.98898  1.0000
  Fe  Fe25      1.0  0.34095  0.53020  0.96902  1.0000
  S   S47       1.0  0.33860  0.49226  0.94159  1.0000
  S   S48       1.0  0.37123  0.55278  0.93922  1.0000
  H   H138      1.0  0.18281  0.44582  0.52223  1.0000
  H   H139      1.0  0.45802  0.43110  0.96733  1.0000
  H   H140      1.0  0.10747  0.46580  0.54070  1.0000
  H   H141      1.0  0.43647  0.47827  0.89716  1.0000
  Fe  Fe26      1.0  0.29786  0.49765  0.94929  1.0000
  S   S49       1.0  0.27019  0.48130  0.90703  1.0000
  H   H142      1.0  0.44760  0.43310  0.91742  1.0000
  S   S50       1.0  0.30013  0.53643  0.97218  1.0000
  Fe  Fe27      1.0  0.46866  0.35237  0.96988  1.0000
  S   S51       1.0  0.44046  0.37996  0.94886  1.0000
  H   H143      1.0  0.12505  0.57199  0.58430  1.0000
  H   H144      1.0  0.03126  0.64098  0.95744  1.0000
  S   S52       1.0  0.02096  0.40430  0.70904  1.0000
  Fe  Fe28      1.0  0.12547  0.51486  0.73354  1.0000
  S   S53       1.0  0.15611  0.53345  0.70065  1.0000
  S   S54       1.0  0.09122  0.52904  0.76660  1.0000
  Fe  Fe29      1.0  0.14383  0.46446  0.70675  1.0000
  S   S55       1.0  0.17655  0.47855  0.67180  1.0000
  S   S56       1.0  0.13344  0.42510  0.71425  1.0000
  Fe  Fe30      1.0  0.17986  0.50400  0.72619  1.0000
  S   S57       1.0  0.21603  0.51527  0.75193  1.0000
  Fe  Fe31      1.0  0.15083  0.50691  0.64891  1.0000
  S   S58       1.0  0.14033  0.51862  0.58607  1.0000
  S   S59       1.0  0.14925  0.48743  0.76245  1.0000
  S   S60       1.0  0.11826  0.49086  0.68053  1.0000
  Fe  Fe32      1.0  0.02255  0.65111  0.76079  1.0000
  S   S61       1.0  0.06025  0.63835  0.73975  1.0000
  C   C137      1.0  0.08329  0.55980  0.76124  1.0000
  C   C138      1.0  0.05973  0.56797  0.77307  1.0000
  C   C139      1.0  0.05249  0.59214  0.76693  1.0000
  C   C140      1.0  0.06892  0.60826  0.74931  1.0000
  C   C141      1.0  0.09267  0.60027  0.73852  1.0000
  C   C142      1.0  0.09981  0.57605  0.74423  1.0000
  H   H145      1.0  0.04689  0.55543  0.78625  1.0000
  H   H146      1.0  0.03413  0.59817  0.77530  1.0000
  H   H147      1.0  0.10549  0.61278  0.72525  1.0000
  H   H148      1.0  0.11808  0.56994  0.73547  1.0000
  C   C143      1.0  0.10266  0.41773  0.70876  1.0000
  C   C144      1.0  0.08704  0.43326  0.68906  1.0000
  C   C145      1.0  0.06214  0.42858  0.68867  1.0000
  C   C146      1.0  0.05262  0.40815  0.70761  1.0000
  C   C147      1.0  0.06830  0.39192  0.72587  1.0000
  C   C148      1.0  0.09332  0.39663  0.72614  1.0000
  H   H149      1.0  0.09405  0.44882  0.67385  1.0000
  H   H150      1.0  0.05019  0.44097  0.67388  1.0000
  H   H151      1.0  0.06116  0.37594  0.74017  1.0000
  H   H152      1.0  0.10533  0.38425  0.74086  1.0000
  Fe  Fe33      1.0  0.46439  0.66160  0.97922  1.0000
  H   H153      1.0  0.03836  0.59957  0.92673  1.0000
  C   C149      1.0  0.38420  0.42831  0.96871  1.0000
  C   C150      1.0  0.40204  0.41243  0.95043  1.0000
  C   C151      1.0  0.41694  0.39791  0.97387  1.0000
  H   H154      1.0  0.43773  0.61141  0.93347  1.0000
  H   H155      1.0  0.37305  0.43949  0.95026  1.0000
  H   H156      1.0  0.40442  0.41149  0.91784  1.0000
  C   C152      1.0  0.25227  0.49422  0.86924  1.0000
  C   C153      1.0  0.25929  0.51501  0.84855  1.0000
  C   C154      1.0  0.24712  0.52197  0.81393  1.0000
  C   C155      1.0  0.22759  0.50850  0.79985  1.0000
  C   C156      1.0  0.21974  0.48849  0.82184  1.0000
  C   C157      1.0  0.23209  0.48137  0.85616  1.0000
  H   H157      1.0  0.27477  0.52509  0.85811  1.0000
  H   H158      1.0  0.25334  0.53750  0.79723  1.0000
  H   H159      1.0  0.20477  0.47794  0.81150  1.0000
  H   H160      1.0  0.22638  0.46536  0.87205  1.0000
  C   C158      1.0  0.12286  0.46066  0.52054  1.0000
  C   C159      1.0  0.04054  0.63861  0.92792  1.0000
  H   H161      1.0  0.03567  0.56923  0.68349  1.0000
  C   C160      1.0  0.38859  0.57672  0.95990  1.0000
  C   C161      1.0  0.40867  0.58538  0.93705  1.0000
  C   C162      1.0  0.42248  0.60486  0.95154  1.0000
  H   H162      1.0  0.12225  0.52592  0.50771  1.0000
  H   H163      1.0  0.41352  0.57706  0.90783  1.0000
  H   H164      1.0  0.05980  0.59486  0.85896  1.0000
  S   S62       1.0  0.01390  0.35700  0.88795  1.0000
  N   N12       1.0  0.43707  0.46332  0.95589  1.0000
  C   C163      1.0  0.05641  0.61279  0.87266  1.0000
  C   C164      1.0  0.04450  0.61543  0.91065  1.0000
  H   H165      1.0  0.24826  0.43281  0.81672  1.0000
  H   H166      1.0  0.37163  0.62748  0.91996  1.0000
  S   S63       1.0  0.47936  0.65496  0.91598  1.0000
  N   N13       1.0  0.07550  0.43889  0.79933  1.0000
  C   C165      1.0  0.09421  0.42498  0.81257  1.0000
  C   C166      1.0  0.05200  0.43164  0.80514  1.0000
  C   C167      1.0  0.08962  0.40293  0.83152  1.0000
  C   C168      1.0  0.04678  0.40980  0.82424  1.0000
  C   C169      1.0  0.06572  0.39535  0.83738  1.0000
  C   C170      1.0  0.08061  0.46221  0.78045  1.0000
  H   H167      1.0  0.11286  0.43055  0.80741  1.0000
  H   H168      1.0  0.03716  0.44249  0.79433  1.0000
  H   H169      1.0  0.10452  0.39167  0.84110  1.0000
  H   H170      1.0  0.02821  0.40390  0.82862  1.0000
  H   H171      1.0  0.06177  0.37825  0.85186  1.0000
  H   H172      1.0  0.08047  0.47708  0.80374  1.0000
  H   H173      1.0  0.09865  0.46169  0.76398  1.0000
  H   H174      1.0  0.06706  0.46660  0.75781  1.0000
  C   C171      1.0  0.38485  0.65970  0.94914  1.0000
  H   H175      1.0  0.44619  0.66540  0.84562  1.0000
  C   C172      1.0  0.17872  0.50680  0.53074  1.0000
  C   C173      1.0  0.01585  0.35715  0.97115  1.0000
  H   H176      1.0  0.39126  0.51474  0.98927  1.0000
  H   H177      1.0  0.30526  0.46299  0.83840  1.0000
  C   C174      1.0  0.26556  0.46363  0.76448  1.0000
  C   C175      1.0  0.38302  0.64329  0.91674  1.0000
  C   C176      1.0  0.40416  0.50032  0.97999  1.0000
  N   N14       1.0  0.41193  0.66619  0.87748  1.0000
  H   H178      1.0  0.02951  0.37082  0.96675  1.0000
  C   C177      1.0  0.38256  0.58773  0.99760  1.0000
  H   H179      1.0  0.07297  0.63141  0.82267  1.0000
  H   H180      1.0  0.24953  0.45445  0.75464  1.0000
  H   H181      1.0  0.27043  0.43774  0.85326  1.0000
  H   H182      1.0  0.39591  0.63345  0.85646  1.0000
  C   C178      1.0  0.42966  0.47971  0.92837  1.0000
  C   C179      1.0  0.27368  0.48385  0.74335  1.0000
  H   H183      1.0  0.40715  0.51152  0.91829  1.0000
  N   N15       1.0  0.10006  0.57631  0.63463  1.0000
  C   C180      1.0  0.08437  0.59590  0.63758  1.0000
  C   C181      1.0  0.09279  0.55407  0.64757  1.0000
  C   C182      1.0  0.06088  0.59357  0.65470  1.0000
  C   C183      1.0  0.06950  0.55112  0.66507  1.0000
  C   C184      1.0  0.05349  0.57104  0.66870  1.0000
  C   C185      1.0  0.12455  0.57881  0.61620  1.0000
  S   S64       1.0  0.02199  0.34073  0.77067  1.0000
  H   H184      1.0  0.10520  0.53857  0.64512  1.0000
  H   H185      1.0  0.04885  0.60938  0.65866  1.0000
  H   H186      1.0  0.06426  0.53368  0.67698  1.0000
  C   C186      1.0  0.16517  0.44937  0.51023  1.0000
  H   H187      1.0  0.13054  0.59797  0.61709  1.0000
  H   H188      1.0  0.13796  0.56794  0.63260  1.0000
  C   C187      1.0  0.29666  0.46843  0.81113  1.0000
  H   H189      1.0  0.26383  0.49032  0.71796  1.0000
  H   H190      1.0  0.18955  0.50316  0.55639  1.0000
  H   H191      1.0  0.42108  0.65769  0.81495  1.0000
  C   C188      1.0  0.26802  0.43523  0.82024  1.0000
  C   C189      1.0  0.29358  0.49653  0.75674  1.0000
  N   N16       1.0  0.05880  0.65622  0.86850  1.0000
  H   H192      1.0  0.27808  0.41858  0.80909  1.0000
  C   C190      1.0  0.15457  0.51475  0.53702  1.0000
  N   N17       1.0  0.27683  0.45638  0.79824  1.0000
  C   C191      1.0  0.30525  0.48874  0.79074  1.0000
  C   C192      1.0  0.00471  0.34712  0.93727  1.0000
  H   H193      1.0  0.09009  0.61361  0.62761  1.0000
  C   C193      1.0  0.06368  0.63353  0.85207  1.0000
  H   H194      1.0  0.29947  0.51276  0.74145  1.0000
  S   S65       1.0  0.49555  0.34168  0.91845  1.0000
  S   S66       1.0  0.00322  0.63977  0.81809  1.0000
  H   H195      1.0  0.14730  0.45620  0.56882  1.0000
  C   C194      1.0  0.04817  0.65891  0.90647  1.0000
  H   H196      1.0  0.37506  0.65662  0.97769  1.0000
  Fe  Fe34      1.0  0.00456  0.37303  0.74287  1.0000
  C   C195      1.0  0.14524  0.45519  0.53638  1.0000
  C   C196      1.0  0.45464  0.44406  0.94284  1.0000
  H   H197      1.0  0.47225  0.45200  0.93309  1.0000
  C   C197      1.0  0.42831  0.46502  0.99521  1.0000
  Fe  Fe35      1.0  0.49679  0.82350  0.22972  1.0000
  H   H198      1.0  0.13366  0.93686  0.32955  1.0000
  C   C198      1.0  0.07047  0.66853  0.29722  1.0000
  H   H199      1.0  0.27613  0.98331  0.27188  1.0000
  C   C199      1.0  0.47044  0.78087  0.30536  1.0000
  H   H200      1.0  0.46036  0.78147  0.27800  1.0000
  H   H201      1.0  0.46629  0.79894  0.40305  1.0000
  Fe  Fe36      1.0  0.01690  0.84910  0.46208  1.0000
  S   S67       1.0  0.04167  0.87825  0.43526  1.0000
  S   S68       1.0  0.02491  0.80921  0.47162  1.0000
  S   S69       1.0  0.36456  0.99938  0.13715  1.0000
  H   H202      1.0  0.09677  0.94756  0.44048  1.0000
  S   S70       1.0  0.32659  0.97951  0.05032  1.0000
  C   C200      1.0  0.10174  0.92422  0.49069  1.0000
  H   H203      1.0  0.41387  0.88389  0.16988  1.0000
  S   S71       1.0  0.46725  0.85219  0.37378  1.0000
  Fe  Fe37      1.0  0.48428  0.87787  0.22906  1.0000
  S   S72       1.0  0.46938  0.90768  0.19045  1.0000
  S   S73       1.0  0.46468  0.84598  0.25492  1.0000
  Fe  Fe38      1.0  0.34891  0.98478  0.19480  1.0000
  S   S74       1.0  0.36646  0.95690  0.23380  1.0000
  S   S75       1.0  0.31197  0.97924  0.17038  1.0000
  N   N18       1.0  0.39133  0.90379  0.13072  1.0000
  C   C201      1.0  0.48029  0.84713  0.42121  1.0000
  C   C202      1.0  0.06948  0.70512  0.20344  1.0000
  H   H204      1.0  0.00786  0.77500  0.26192  1.0000
  C   C203      1.0  0.46591  0.85121  0.45704  1.0000
  C   C204      1.0  0.24812  0.98256  0.31995  1.0000
  H   H205      1.0  0.44760  0.85837  0.45532  1.0000
  C   C205      1.0  0.44166  0.92256  0.20460  1.0000
  C   C206      1.0  0.43248  0.94034  0.17939  1.0000
  C   C207      1.0  0.40954  0.95125  0.18815  1.0000
  C   C208      1.0  0.39580  0.94464  0.22255  1.0000
  C   C209      1.0  0.40514  0.92712  0.24803  1.0000
  C   C210      1.0  0.42797  0.91605  0.23906  1.0000
  H   H206      1.0  0.44295  0.94529  0.15250  1.0000
  H   H207      1.0  0.40235  0.96436  0.16788  1.0000
  H   H208      1.0  0.39456  0.92189  0.27464  1.0000
  H   H209      1.0  0.43489  0.90232  0.25860  1.0000
  H   H210      1.0  0.12919  0.89112  0.43253  1.0000
  C   C211      1.0  0.06393  0.89621  0.45862  1.0000
  C   C212      1.0  0.07208  0.91735  0.43953  1.0000
  C   C213      1.0  0.09066  0.93144  0.45566  1.0000
  S   S76       1.0  0.21316  0.98081  0.38194  1.0000
  H   H211      1.0  0.06397  0.92285  0.41199  1.0000
  C   C214      1.0  0.26193  0.99910  0.43512  1.0000
  H   H212      1.0  0.05268  0.67754  0.35514  1.0000
  C   C215      1.0  0.07458  0.88936  0.49425  1.0000
  C   C216      1.0  0.26096  0.99302  0.28704  1.0000
  C   C217      1.0  0.49363  0.77006  0.30357  1.0000
  C   C218      1.0  0.49499  0.77270  0.15367  1.0000
  H   H213      1.0  0.27835  0.96366  0.44200  1.0000
  H   H214      1.0  0.05357  0.71557  0.19295  1.0000
  H   H215      1.0  0.07225  0.68910  0.18247  1.0000
  N   N19       1.0  0.46081  0.79099  0.34078  1.0000
  C   C219      1.0  0.48996  0.73889  0.10499  1.0000
  H   H216      1.0  0.36945  0.94070  0.05976  1.0000
  N   N20       1.0  0.16065  0.91311  0.42705  1.0000
  C   C220      1.0  0.13914  0.90423  0.41460  1.0000
  C   C221      1.0  0.17305  0.92974  0.40448  1.0000
  C   C222      1.0  0.12909  0.91262  0.37940  1.0000
  C   C223      1.0  0.16362  0.93840  0.36896  1.0000
  C   C224      1.0  0.14139  0.92991  0.35659  1.0000
  H   H217      1.0  0.17335  0.95193  0.35158  1.0000
  H   H218      1.0  0.47077  0.74282  0.16319  1.0000
  H   H219      1.0  0.43084  0.80978  0.37203  1.0000
  C   C225      1.0  0.39037  0.91598  0.09527  1.0000
  S   S77       1.0  0.02121  0.68128  0.14163  1.0000
  H   H220      1.0  0.18583  0.89076  0.45629  1.0000
  H   H221      1.0  0.37339  0.89659  0.18759  1.0000
  C   C226      1.0  0.04725  0.70551  0.31188  1.0000
  H   H222      1.0  0.42945  0.89610  0.12697  1.0000
  H   H223      1.0  0.33540  0.94434  0.11083  1.0000
  C   C227      1.0  0.17104  0.90422  0.46399  1.0000
  H   H224      1.0  0.17818  0.91962  0.48196  1.0000
  Fe  Fe39      1.0  0.48617  0.85211  0.31069  1.0000
  C   C228      1.0  0.47373  0.79062  0.37505  1.0000
  C   C229      1.0  0.37028  0.93081  0.08768  1.0000
  C   C230      1.0  0.41214  0.88762  0.13728  1.0000
  H   H225      1.0  0.48140  0.72201  0.09711  1.0000
  H   H226      1.0  0.43706  0.81844  0.32111  1.0000
  H   H227      1.0  0.33771  0.92276  0.17569  1.0000
  C   C231      1.0  0.47489  0.84588  0.49515  1.0000
  H   H228      1.0  0.42302  0.78951  0.33121  1.0000
  S   S78       1.0  0.18612  0.97672  0.48828  1.0000
  H   H229      1.0  0.25365  0.96481  0.32984  1.0000
  S   S79       1.0  0.14373  0.98978  0.42635  1.0000
  C   C232      1.0  0.37254  0.90584  0.15913  1.0000
  Fe  Fe40      1.0  0.14529  0.97432  0.48809  1.0000
  S   S80       1.0  0.99969  0.72881  0.22324  1.0000
  H   H230      1.0  0.41020  0.87007  0.12064  1.0000
  C   C233      1.0  0.35109  0.93296  0.11648  1.0000
  H   H231      1.0  0.40522  0.91432  0.07270  1.0000
  Fe  Fe41      1.0  0.18406  0.99528  0.42857  1.0000
  C   C234      1.0  0.35223  0.92056  0.15255  1.0000
  C   C235      1.0  0.43667  0.80263  0.34136  1.0000
  H   H232      1.0  0.08579  0.71660  0.20123  1.0000
  N   N21       1.0  0.06506  0.69756  0.24520  1.0000
  C   C236      1.0  0.22824  0.99483  0.33999  1.0000
  H   H233      1.0  0.04496  0.72986  0.26252  1.0000
  H   H234      1.0  0.11162  0.90607  0.37046  1.0000
  C   C237      1.0  0.05640  0.68327  0.32440  1.0000
  C   C238      1.0  0.49825  0.83592  0.49787  1.0000
  C   C239      1.0  0.05201  0.71251  0.27203  1.0000
  H   H235      1.0  0.15701  0.89570  0.48401  1.0000
  H   H236      1.0  0.19020  0.93668  0.41412  1.0000
  C   C240      1.0  0.49708  0.78022  0.37426  1.0000
  H   H237      1.0  0.03637  0.71725  0.33273  1.0000
  H   H238      1.0  0.00192  0.79051  0.33297  1.0000
  C   C241      1.0  0.27151  0.98020  0.45733  1.0000
  H   H239      1.0  0.26166  0.99703  0.40251  1.0000
  C   C242      1.0  0.07484  0.67613  0.25760  1.0000
  C   C243      1.0  0.00059  0.76317  0.28494  1.0000
  H   H240      1.0  0.00338  0.69244  0.03807  1.0000
  S   S81       1.0  0.48721  0.78639  0.20212  1.0000
  C   C244      1.0  0.48398  0.75077  0.14254  1.0000
  Fe  Fe42      1.0  0.32699  0.99718  0.11380  1.0000
  C   C245      1.0  0.27204  0.98279  0.49927  1.0000
  C   C246      1.0  0.40043  0.67928  0.94548  1.0000
  S   S82       1.0  0.46425  0.70238  0.97292  1.0000
  C   C247      1.0  0.47423  0.80171  0.86384  1.0000
  H   H241      1.0  0.33575  0.96305  0.96792  1.0000
  S   S83       1.0  0.01708  0.69117  0.77340  1.0000
  Fe  Fe43      1.0  0.00142  0.81388  0.52902  1.0000
  H   H242      1.0  0.49377  0.82621  0.82491  1.0000
  C   C248      1.0  0.00137  0.74583  0.67314  1.0000
  C   C249      1.0  0.47480  0.76945  0.77524  1.0000
  C   C250      1.0  0.01069  0.76549  0.65098  1.0000
  H   H243      1.0  0.24380  0.95741  0.75580  1.0000
  H   H244      1.0  0.40275  0.69149  0.97116  1.0000
  S   S84       1.0  0.12709  0.93961  0.50986  1.0000
  C   C251      1.0  0.24887  0.96320  0.78576  1.0000
  C   C252      1.0  0.25909  0.94610  0.81089  1.0000
  Fe  Fe44      1.0  0.45506  0.85456  0.67001  1.0000
  S   S85       1.0  0.41507  0.86482  0.67311  1.0000
  S   S86       1.0  0.47022  0.81730  0.65132  1.0000
  C   C253      1.0  0.44796  0.95895  0.68650  1.0000
  C   C254      1.0  0.49489  0.81366  0.84960  1.0000
  H   H245      1.0  0.27933  0.96828  0.51702  1.0000
  H   H246      1.0  0.04500  0.67689  0.92001  1.0000
  H   H247      1.0  0.42620  0.69739  0.90673  1.0000
  N   N22       1.0  0.42635  0.97150  0.68546  1.0000
  H   H248      1.0  0.26183  0.92738  0.80045  1.0000
  S   S87       1.0  0.38622  0.96187  0.77162  1.0000
  S   S88       1.0  0.31424  0.97691  0.78695  1.0000
  C   C255      1.0  0.40611  0.89065  0.70301  1.0000
  C   C256      1.0  0.38299  0.90129  0.69930  1.0000
  C   C257      1.0  0.37629  0.92297  0.72075  1.0000
  C   C258      1.0  0.39264  0.93384  0.74637  1.0000
  C   C259      1.0  0.41542  0.92284  0.75087  1.0000
  C   C260      1.0  0.42218  0.90142  0.72914  1.0000
  H   H249      1.0  0.37044  0.89297  0.67920  1.0000
  H   H250      1.0  0.35864  0.93133  0.71721  1.0000
  H   H251      1.0  0.42810  0.93112  0.77076  1.0000
  H   H252      1.0  0.43994  0.89342  0.73237  1.0000
  H   H253      1.0  0.46862  0.92685  0.66624  1.0000
  C   C261      1.0  0.45180  0.93719  0.66422  1.0000
  H   H254      1.0  0.46215  0.96538  0.70542  1.0000
  N   N23       1.0  0.49831  0.77927  0.90932  1.0000
  C   C262      1.0  0.42681  0.66952  0.84026  1.0000
  H   H255      1.0  0.46308  0.77954  0.75608  1.0000
  H   H256      1.0  0.08375  0.68412  0.85527  1.0000
  Fe  Fe45      1.0  0.30259  0.99677  0.73149  1.0000
  S   S89       1.0  0.48001  0.86023  0.72098  1.0000
  H   H257      1.0  0.32666  0.98049  0.90164  1.0000
  C   C263      1.0  0.41389  0.68230  0.90920  1.0000
  H   H258      1.0  0.39689  0.93422  0.62228  1.0000
  H   H259      1.0  0.23853  0.96090  0.63903  1.0000
  H   H260      1.0  0.46030  0.77460  0.90383  1.0000
  S   S90       1.0  0.00152  0.69733  0.89005  1.0000
  C   C264      1.0  0.32694  0.98073  0.96703  1.0000
  H   H261      1.0  0.02600  0.77529  0.66197  1.0000
  C   C265      1.0  0.25398  0.99488  0.65763  1.0000
  C   C266      1.0  0.23859  0.98033  0.63482  1.0000
  C   C267      1.0  0.46501  0.75171  0.80116  1.0000
  H   H262      1.0  0.43567  0.91095  0.62469  1.0000
  C   C268      1.0  0.40833  0.96312  0.66204  1.0000
  C   C269      1.0  0.25323  0.99444  0.83545  1.0000
  H   H263      1.0  0.42543  0.68869  0.83054  1.0000
  Fe  Fe46      1.0  0.35229  0.98441  0.76397  1.0000
  C   C270      1.0  0.47983  0.73864  0.82689  1.0000
  H   H264      1.0  0.44575  0.74830  0.80152  1.0000
  C   C271      1.0  0.00037  0.77262  0.61493  1.0000
  H   H265      1.0  0.45694  0.80507  0.85044  1.0000
  S   S91       1.0  0.46615  0.71751  0.86065  1.0000
  C   C272      1.0  0.06580  0.67780  0.84597  1.0000
  H   H266      1.0  0.21161  0.97916  0.58921  1.0000
  H   H267      1.0  0.01244  0.71098  0.97146  1.0000
  C   C273      1.0  0.41156  0.94141  0.63940  1.0000
  S   S92       1.0  0.47837  0.87402  0.62455  1.0000
  H   H268      1.0  0.46348  0.84893  0.52232  1.0000
  C   C274      1.0  0.00222  0.69441  0.97294  1.0000
  S   S93       1.0  0.27254  0.98083  0.69361  1.0000
  S   S94       1.0  0.01176  0.79871  0.58986  1.0000
  C   C275      1.0  0.22324  0.99064  0.60651  1.0000
  C   C276      1.0  0.43340  0.92836  0.64068  1.0000
  C   C277      1.0  0.47627  0.78447  0.89391  1.0000
  H   H269      1.0  0.39100  0.97275  0.66184  1.0000
  Fe  Fe47      1.0  0.48240  0.69564  0.91133  1.0000
  H   H270      1.0  0.00948  0.74070  0.70088  1.0000
  Fe  Fe48      1.0  0.49559  0.83771  0.60921  1.0000
  H   H271      1.0  0.06866  0.87308  0.50916  1.0000
  H   H272      1.0  0.27458  0.94054  0.86866  1.0000
  H   H273      1.0  0.05206  0.69272  0.85157  1.0000
  H   H274      1.0  0.42866  0.99177  0.74048  1.0000
  H   H275      1.0  0.00922  0.87835  0.63404  1.0000
  H   H276      1.0  0.10190  0.89739  0.53703  1.0000
  H   H277      1.0  0.22551  0.99596  0.74696  1.0000
  C   C278      1.0  0.26628  0.95348  0.84905  1.0000
  C   C279      1.0  0.32071  0.99346  0.00356  1.0000
  C   C280      1.0  0.32179  0.99059  0.92932  1.0000
  H   H278      1.0  0.06673  0.67391  0.81279  1.0000
  Fe  Fe49      1.0  0.49696  0.82423  0.69982  1.0000
  H   H279      1.0  0.49234  0.76841  0.97009  1.0000
  H   H280      1.0  0.48964  0.74458  0.93207  1.0000
  C   C281      1.0  0.09347  0.90319  0.50995  1.0000
  C   C282      1.0  0.42284  0.99427  0.70913  1.0000
  N   N24       1.0  0.24581  0.98698  0.79837  1.0000
  H   H281      1.0  0.26934  0.98384  0.89076  1.0000
  C   C283      1.0  0.26332  0.97778  0.86148  1.0000
  H   H282      1.0  0.40336  0.99997  0.71203  1.0000
  Fe  Fe50      1.0  0.65426  0.01464  0.11666  1.0000
  H   H283      1.0  0.77377  0.02495  0.33378  1.0000
  H   H284      1.0  0.60372  0.17626  0.25585  1.0000
  C   C284      1.0  0.96559  0.26097  0.43066  1.0000
  S   S95       1.0  0.95615  0.19235  0.46295  1.0000
  C   C285      1.0  0.72805  0.00790  0.27261  1.0000
  Fe  Fe51      1.0  0.96814  0.15432  0.47813  1.0000
  C   C286      1.0  0.90209  0.12096  0.46454  1.0000
  C   C287      1.0  0.95283  0.25998  0.39531  1.0000
  Fe  Fe52      1.0  0.83259  0.03541  0.45886  1.0000
  S   S96       1.0  0.99694  0.15225  0.42761  1.0000
  C   C288      1.0  0.97589  0.31502  0.34231  1.0000
  H   H285      1.0  0.94666  0.27679  0.33882  1.0000
  Fe  Fe53      1.0  0.51728  0.14875  0.24649  1.0000
  H   H286      1.0  0.60071  0.32096  0.03993  1.0000
  S   S97       1.0  0.55079  0.13409  0.21154  1.0000
  S   S98       1.0  0.51718  0.18818  0.26601  1.0000
  Fe  Fe54      1.0  0.62772  0.01602  0.20090  1.0000
  S   S99       1.0  0.59535  0.02933  0.24044  1.0000
  S   S100      1.0  0.65912  0.03665  0.17429  1.0000
  C   C289      1.0  0.50508  0.27225  0.15218  1.0000
  H   H287      1.0  0.53262  0.19072  0.46363  1.0000
  C   C290      1.0  0.56174  0.10422  0.21796  1.0000
  C   C291      1.0  0.58300  0.09637  0.19622  1.0000
  C   C292      1.0  0.59323  0.07328  0.20242  1.0000
  C   C293      1.0  0.58233  0.05794  0.23063  1.0000
  C   C294      1.0  0.56095  0.06570  0.25219  1.0000
  C   C295      1.0  0.55060  0.08875  0.24577  1.0000
  H   H288      1.0  0.59169  0.10826  0.17466  1.0000
  H   H289      1.0  0.60968  0.06745  0.18564  1.0000
  H   H290      1.0  0.55243  0.05387  0.27403  1.0000
  H   H291      1.0  0.53425  0.09469  0.26273  1.0000
  H   H292      1.0  0.54466  0.14386  0.37857  1.0000
  H   H293      1.0  0.54873  0.32342  0.06592  1.0000
  H   H294      1.0  0.97073  0.30858  0.31184  1.0000
  C   C296      1.0  0.95638  0.27794  0.36650  1.0000
  C   C297      1.0  0.98492  0.29738  0.40733  1.0000
  H   H295      1.0  0.50697  0.24664  0.20075  1.0000
  H   H296      1.0  0.89113  0.05196  0.47878  1.0000
  S   S101      1.0  0.79306  0.02931  0.47702  1.0000
  C   C298      1.0  0.87511  0.08593  0.46186  1.0000
  H   H297      1.0  0.59265  0.09727  0.30403  1.0000
  H   H298      1.0  0.99161  0.28056  0.46447  1.0000
  C   C299      1.0  0.92087  0.10629  0.47813  1.0000
  H   H299      1.0  0.81482  0.00583  0.24804  1.0000
  C   C300      1.0  0.98169  0.27980  0.43689  1.0000
  N   N25       1.0  0.97251  0.29615  0.37252  1.0000
  S   S102      1.0  0.94923  0.11831  0.49202  1.0000
  C   C301      1.0  0.56839  0.11831  0.34480  1.0000
  C   C302      1.0  0.89405  0.07114  0.47462  1.0000
  H   H300      1.0  0.86487  0.12249  0.44690  1.0000
  C   C303      1.0  0.87934  0.11085  0.45676  1.0000
  S   S103      1.0  0.84541  0.07464  0.45497  1.0000
  S   S104      1.0  0.64758  0.02897  0.05373  1.0000
  H   H301      1.0  0.58241  0.19529  0.28515  1.0000
  H   H302      1.0  0.57219  0.17688  0.24370  1.0000
  C   C304      1.0  0.58879  0.33193  0.02104  1.0000
  H   H303      1.0  0.55491  0.17811  0.33461  1.0000
  H   H304      1.0  0.96473  0.33144  0.35119  1.0000
  S   S105      1.0  0.83228  0.00828  0.40669  1.0000
  S   S106      1.0  0.84700  0.00873  0.50237  1.0000
  C   C305      1.0  0.98210  0.23930  0.29350  1.0000
  H   H305      1.0  0.90494  0.14018  0.46071  1.0000
  Fe  Fe55      1.0  0.68202  0.00489  0.19427  1.0000
  C   C306      1.0  0.99105  0.25986  0.27344  1.0000
  H   H306      1.0  0.99018  0.07788  0.47650  1.0000
  H   H307      1.0  0.69430  0.00716  0.02577  1.0000
  H   H308      1.0  0.94078  0.24500  0.38977  1.0000
  C   C307      1.0  0.75813  0.01525  0.32392  1.0000
  N   N26       1.0  0.57978  0.15726  0.29592  1.0000
  C   C308      1.0  0.58482  0.17746  0.26890  1.0000
  C   C309      1.0  0.51533  0.18187  0.46723  1.0000
  C   C310      1.0  0.56363  0.16052  0.32826  1.0000
  C   C311      1.0  0.59019  0.13487  0.28727  1.0000
  C   C312      1.0  0.91667  0.08133  0.48306  1.0000
  S   S107      1.0  0.98062  0.20510  0.35270  1.0000
  S   S108      1.0  0.51263  0.18746  0.38497  1.0000
  C   C313      1.0  0.58480  0.11512  0.31170  1.0000
  H   H309      1.0  0.75632  0.03438  0.26787  1.0000
  S   S109      1.0  0.97317  0.32148  0.18421  1.0000
  H   H310      1.0  0.96774  0.22897  0.28049  1.0000
  S   S110      1.0  0.50237  0.30659  0.09294  1.0000
  H   H311      1.0  0.60205  0.13196  0.26049  1.0000
  H   H312      1.0  0.56359  0.10302  0.36341  1.0000
  C   C314      1.0  0.55777  0.14117  0.35329  1.0000
  H   H313      1.0  0.52109  0.28180  0.16074  1.0000
  S   S111      1.0  0.98377  0.32109  0.06614  1.0000
  C   C315      1.0  0.74814  0.02060  0.28653  1.0000
  C   C316      1.0  0.50163  0.17745  0.43304  1.0000
  H   H314      1.0  0.99756  0.31191  0.41225  1.0000
  C   C317      1.0  0.99238  0.33152  0.01692  1.0000
  H   H315      1.0  0.93100  0.06977  0.49359  1.0000
  H   H316      1.0  0.96314  0.24711  0.45318  1.0000
  C   C318      1.0  0.99166  0.23190  0.32999  1.0000
  C   C319      1.0  0.65845  0.01584  0.00684  1.0000
  Fe  Fe56      1.0  0.98705  0.19139  0.41597  1.0000
  H   H317      1.0  0.98359  0.26524  0.24528  1.0000
  S   S112      1.0  0.71844  0.01302  0.22275  1.0000
  S   S113      1.0  0.50148  0.13595  0.30564  1.0000
  H   H318      1.0  0.99531  0.32008  0.33886  1.0000
  S   S114      1.0  0.52282  0.30820  0.98197  1.0000
  C   C320      1.0  0.54597  0.06699  0.67311  1.0000
  H   H319      1.0  0.90056  0.06450  0.58794  1.0000
  C   C321      1.0  0.87192  0.08597  0.56374  1.0000
  C   C322      1.0  0.61970  0.07218  0.90419  1.0000
  C   C323      1.0  0.98113  0.32160  0.98310  1.0000
  H   H320      1.0  0.53852  0.08201  0.65668  1.0000
  C   C324      1.0  0.91806  0.31041  0.75080  1.0000
  H   H321      1.0  0.59849  0.07940  0.95964  1.0000
  Fe  Fe57      1.0  0.67208  0.00885  0.72896  1.0000
  H   H322      1.0  0.57502  0.06001  0.62828  1.0000
  Fe  Fe58      1.0  0.52956  0.14623  0.67605  1.0000
  S   S115      1.0  0.51819  0.18022  0.64471  1.0000
  S   S116      1.0  0.56804  0.13111  0.67194  1.0000
  C   C325      1.0  0.92066  0.30533  0.67827  1.0000
  H   H323      1.0  0.94846  0.23929  0.69532  1.0000
  C   C326      1.0  0.72657  0.02363  0.60898  1.0000
  H   H324      1.0  0.55198  0.30014  0.89647  1.0000
  C   C327      1.0  0.94168  0.24761  0.72470  1.0000
  C   C328      1.0  0.55112  0.22858  0.81152  1.0000
  Fe  Fe59      1.0  0.62801  0.02619  0.78216  1.0000
  S   S117      1.0  0.59892  0.05428  0.80031  1.0000
  S   S118      1.0  0.66778  0.03366  0.78435  1.0000
  C   C329      1.0  0.57767  0.11143  0.70952  1.0000
  C   C330      1.0  0.59875  0.09704  0.70202  1.0000
  C   C331      1.0  0.60573  0.07969  0.72996  1.0000
  C   C332      1.0  0.59183  0.07696  0.76587  1.0000
  C   C333      1.0  0.57127  0.09196  0.77405  1.0000
  C   C334      1.0  0.56413  0.10905  0.74588  1.0000
  H   H325      1.0  0.60940  0.09892  0.67405  1.0000
  H   H326      1.0  0.62170  0.06831  0.72351  1.0000
  H   H327      1.0  0.56054  0.09003  0.80192  1.0000
  H   H328      1.0  0.54809  0.12028  0.75222  1.0000
  C   C335      1.0  0.54738  0.27211  0.80605  1.0000
  Fe  Fe60      1.0  0.80754  0.00093  0.51731  1.0000
  C   C336      1.0  0.84125  0.04870  0.58592  1.0000
  N   N27       1.0  0.54789  0.27489  0.84716  1.0000
  H   H329      1.0  0.97170  0.29022  0.57638  1.0000
  C   C337      1.0  0.64350  0.01668  0.97364  1.0000
  Fe  Fe61      1.0  0.99020  0.32010  0.74696  1.0000
  C   C338      1.0  0.65270  0.01038  0.93434  1.0000
  H   H330      1.0  0.93389  0.27044  0.65572  1.0000
  H   H331      1.0  0.88383  0.10043  0.55396  1.0000
  H   H332      1.0  0.62488  0.02305  0.97818  1.0000
  C   C339      1.0  0.80655  0.07001  0.55770  1.0000
  C   C340      1.0  0.74928  0.01837  0.58906  1.0000
  H   H333      1.0  0.51562  0.09410  0.72022  1.0000
  S   S119      1.0  0.97559  0.24259  0.53895  1.0000
  H   H334      1.0  0.82942  0.03399  0.59470  1.0000
  H   H335      1.0  0.87299  0.03106  0.60845  1.0000
  H   H336      1.0  0.55194  0.21581  0.87244  1.0000
  N   N28       1.0  0.83234  0.06835  0.56639  1.0000
  H   H337      1.0  0.57461  0.01564  0.73342  1.0000
  H   H338      1.0  0.95728  0.24747  0.74484  1.0000
  C   C341      1.0  0.51435  0.07441  0.72646  1.0000
  H   H339      1.0  0.93028  0.27978  0.78380  1.0000
  H   H340      1.0  0.54477  0.28777  0.78740  1.0000
  C   C342      1.0  0.99074  0.27177  0.66747  1.0000
  C   C343      1.0  0.92934  0.28152  0.68262  1.0000
  N   N29       1.0  0.53601  0.06111  0.71009  1.0000
  S   S120      1.0  0.96724  0.32679  0.80492  1.0000
  H   H341      1.0  0.53812  0.03807  0.76079  1.0000
  C   C344      1.0  0.55141  0.23156  0.85344  1.0000
  H   H342      1.0  0.99445  0.21887  0.61019  1.0000
  H   H343      1.0  0.51210  0.07305  0.75981  1.0000
  H   H344      1.0  0.67513  0.06943  0.97096  1.0000
  C   C345      1.0  0.86590  0.04698  0.59398  1.0000
  C   C346      1.0  0.98249  0.25333  0.58831  1.0000
  C   C347      1.0  0.69171  0.00127  0.96125  1.0000
  H   H345      1.0  0.60421  0.07260  0.88506  1.0000
  C   C348      1.0  0.88131  0.06573  0.58264  1.0000
  H   H346      1.0  0.64113  0.01176  0.90899  1.0000
  H   H347      1.0  0.54841  0.25705  0.90357  1.0000
  C   C349      1.0  0.54961  0.25497  0.87087  1.0000
  H   H348      1.0  0.59337  0.02653  0.66671  1.0000
  C   C350      1.0  0.84727  0.08692  0.55558  1.0000
  H   H349      1.0  0.84034  0.10223  0.53924  1.0000
  H   H350      1.0  0.55152  0.21050  0.79765  1.0000
  C   C351      1.0  0.67698  0.00296  0.92788  1.0000
  N   N30       1.0  0.93272  0.27260  0.72020  1.0000
  H   H351      1.0  0.91382  0.32163  0.77770  1.0000
  C   C352      1.0  0.97831  0.27807  0.59876  1.0000
  H   H352      1.0  0.97920  0.30632  0.64542  1.0000
  C   C353      1.0  0.92725  0.28671  0.75405  1.0000
  C   C354      1.0  0.99111  0.23791  0.61763  1.0000
  C   C355      1.0  0.68250  0.00761  0.00058  1.0000
  C   C356      1.0  0.54904  0.24895  0.78761  1.0000
  C   C357      1.0  0.91492  0.31979  0.71266  1.0000
  C   C358      1.0  0.56663  0.05455  0.65681  1.0000
  C   C359      1.0  0.54576  0.04255  0.73123  1.0000
  S   S121      1.0  0.50831  0.15552  0.73383  1.0000
  H   H353      1.0  0.71321  0.03442  0.59410  1.0000
  C   C360      1.0  0.54445  0.29917  0.86594  1.0000
  H   H354      1.0  0.55362  0.31321  0.84750  1.0000
  H   H355      1.0  0.75329  0.02518  0.55921  1.0000
  C   C361      1.0  0.56639  0.02969  0.71580  1.0000
  H   H356      1.0  0.69858  0.05166  0.91376  1.0000
  C   C362      1.0  0.72072  0.01455  0.64754  1.0000
  S   S122      1.0  0.69079  0.01951  0.66883  1.0000
  H   H357      1.0  0.92702  0.23622  0.73767  1.0000
  H   H358      1.0  0.54761  0.24671  0.75517  1.0000
  C   C363      1.0  0.57692  0.03584  0.67841  1.0000
  C   C364      1.0  0.98259  0.28730  0.63792  1.0000
  C   C365      1.0  0.73821  0.00078  0.66657  1.0000
  H   H359      1.0  0.79722  0.08393  0.57796  1.0000
  C   C366      1.0  0.65971  0.07061  0.95184  1.0000
  H   H360      1.0  0.96775  0.30765  0.98743  1.0000
  S   S123      1.0  0.99368  0.16819  0.52479  1.0000
  C   C367      1.0  0.63664  0.07539  0.96994  1.0000
  N   N31       1.0  0.66260  0.06634  0.91101  1.0000
  C   C368      1.0  0.64302  0.06744  0.88712  1.0000
  H   H361      1.0  0.69559  0.07866  0.88390  1.0000
  H   H362      1.0  0.91863  0.31255  0.64843  1.0000
  H   H363      1.0  0.80454  0.07514  0.52571  1.0000
  H   H364      1.0  0.97845  0.32141  0.91799  1.0000
  S   S124      1.0  0.63163  0.00389  0.72451  1.0000
  H   H365      1.0  0.64522  0.06435  0.85467  1.0000
  H   H366      1.0  0.51353  0.24293  0.56586  1.0000
  H   H367      1.0  0.51752  0.17855  0.53206  1.0000
  C   C369      1.0  0.98713  0.32941  0.94359  1.0000
  H   H368      1.0  0.79733  0.05238  0.56209  1.0000
  H   H369      1.0  0.68613  0.04928  0.86542  1.0000
  C   C370      1.0  0.68693  0.06140  0.89263  1.0000
  S   S125      1.0  0.50063  0.12365  0.64938  1.0000
  C   C371      1.0  0.99511  0.24708  0.65693  1.0000
  H   H370      1.0  0.52474  0.30368  0.86921  1.0000
  S   S126      1.0  0.99379  0.28170  0.71864  1.0000
  C   C372      1.0  0.76654  0.00412  0.60771  1.0000
  C   C373      1.0  0.61652  0.07608  0.94590  1.0000
  C   C374      1.0  0.50682  0.17497  0.50609  1.0000
  H   H371      1.0  0.63436  0.07769  0.00258  1.0000
  H   H372      1.0  0.49880  0.24123  0.63799  1.0000
  H   H373      1.0  0.57654  0.31972  0.00463  1.0000
  Fe  Fe62      1.0  0.98410  0.20608  0.50558  1.0000
  C   C375      1.0  0.89642  0.37614  0.14858  1.0000
  N   N32       1.0  0.92198  0.58584  0.13941  1.0000
  C   C376      1.0  0.58191  0.37318  0.04973  1.0000
  H   H374      1.0  0.82903  0.44620  0.41403  1.0000
  C   C377      1.0  0.81337  0.51160  0.50186  1.0000
  H   H375      1.0  0.70251  0.50658  0.10619  1.0000
  C   C378      1.0  0.93510  0.56537  0.14770  1.0000
  Fe  Fe63      1.0  0.83320  0.50249  0.30741  1.0000
  S   S127      1.0  0.86701  0.51529  0.27452  1.0000
  S   S128      1.0  0.84146  0.49152  0.37188  1.0000
  Fe  Fe64      1.0  0.80329  0.50789  0.23118  1.0000
  S   S129      1.0  0.83502  0.52126  0.19379  1.0000
  S   S130      1.0  0.76463  0.50636  0.20867  1.0000
  Fe  Fe65      1.0  0.85651  0.49175  0.22253  1.0000
  S   S131      1.0  0.88714  0.47419  0.18380  1.0000
  Fe  Fe66      1.0  0.84349  0.54374  0.24839  1.0000
  S   S132      1.0  0.85483  0.58286  0.24131  1.0000
  S   S133      1.0  0.82425  0.47634  0.25658  1.0000
  S   S134      1.0  0.81009  0.53294  0.28472  1.0000
  Fe  Fe67      1.0  0.96847  0.36083  0.20316  1.0000
  S   S135      1.0  0.93284  0.37357  0.23371  1.0000
  N   N33       1.0  0.92994  0.37473  0.08327  1.0000
  Fe  Fe68      1.0  0.98302  0.63707  0.20648  1.0000
  S   S136      1.0  0.96725  0.60501  0.23909  1.0000
  H   H376      1.0  0.91162  0.55577  0.36212  1.0000
  H   H377      1.0  0.87651  0.52989  0.38088  1.0000
  C   C379      1.0  0.89322  0.56246  0.35884  1.0000
  C   C380      1.0  0.83081  0.50159  0.42105  1.0000
  C   C381      1.0  0.84541  0.49700  0.45382  1.0000
  C   C382      1.0  0.80762  0.51184  0.42879  1.0000
  H   H378      1.0  0.86334  0.48897  0.44823  1.0000
  H   H379      1.0  0.79600  0.51516  0.40399  1.0000
  C   C383      1.0  0.88612  0.58902  0.24033  1.0000
  C   C384      1.0  0.89411  0.61246  0.23152  1.0000
  C   C385      1.0  0.91902  0.61769  0.23071  1.0000
  C   C386      1.0  0.93593  0.59956  0.23948  1.0000
  C   C387      1.0  0.92789  0.57629  0.24882  1.0000
  C   C388      1.0  0.90314  0.57096  0.24871  1.0000
  H   H380      1.0  0.88104  0.62657  0.22509  1.0000
  H   H381      1.0  0.92509  0.63577  0.22377  1.0000
  H   H382      1.0  0.94089  0.56218  0.25562  1.0000
  H   H383      1.0  0.89733  0.55288  0.25535  1.0000
  C   C389      1.0  0.90072  0.44735  0.20082  1.0000
  C   C390      1.0  0.88921  0.43346  0.23056  1.0000
  C   C391      1.0  0.89963  0.41118  0.24137  1.0000
  C   C392      1.0  0.92171  0.40281  0.22285  1.0000
  C   C393      1.0  0.93357  0.41707  0.19398  1.0000
  C   C394      1.0  0.92300  0.43918  0.18277  1.0000
  H   H384      1.0  0.87201  0.43962  0.24457  1.0000
  H   H385      1.0  0.89035  0.40022  0.26369  1.0000
  H   H386      1.0  0.95061  0.41086  0.17966  1.0000
  H   H387      1.0  0.93202  0.44988  0.15982  1.0000
  H   H388      1.0  0.95035  0.61075  0.14990  1.0000
  H   H389      1.0  0.94024  0.33962  0.10324  1.0000
  C   C395      1.0  0.54064  0.35866  0.09283  1.0000
  C   C396      1.0  0.89721  0.58513  0.13844  1.0000
  H   H390      1.0  0.59604  0.51993  0.03838  1.0000
  C   C397      1.0  0.79892  0.51664  0.46902  1.0000
  C   C398      1.0  0.88909  0.58542  0.34330  1.0000
  H   H391      1.0  0.91719  0.41064  0.07155  1.0000
  H   H392      1.0  0.88393  0.37700  0.17490  1.0000
  C   C399      1.0  0.73799  0.49945  0.07825  1.0000
  C   C400      1.0  0.76287  0.49686  0.08554  1.0000
  C   C401      1.0  0.77137  0.49932  0.12499  1.0000
  C   C402      1.0  0.75505  0.50414  0.15793  1.0000
  C   C403      1.0  0.73017  0.50678  0.15064  1.0000
  C   C404      1.0  0.72168  0.50460  0.11110  1.0000
  H   H393      1.0  0.77570  0.49279  0.06058  1.0000
  H   H394      1.0  0.79052  0.49714  0.13002  1.0000
  H   H395      1.0  0.71735  0.51047  0.17582  1.0000
  C   C405      1.0  0.92338  0.54355  0.15603  1.0000
  C   C406      1.0  0.88492  0.56366  0.14681  1.0000
  C   C407      1.0  0.89813  0.54276  0.15565  1.0000
  N   N34       1.0  0.57494  0.55060  0.02139  1.0000
  H   H396      1.0  0.93368  0.52738  0.16333  1.0000
  H   H397      1.0  0.88882  0.52605  0.16271  1.0000
  N   N35       1.0  0.84606  0.57907  0.34842  1.0000
  C   C408      1.0  0.86524  0.59344  0.33813  1.0000
  C   C409      1.0  0.84995  0.55654  0.36373  1.0000
  S   S137      1.0  0.98603  0.37462  0.14606  1.0000
  H   H398      1.0  0.94644  0.35656  0.03150  1.0000
  H   H399      1.0  0.90426  0.59661  0.33392  1.0000
  C   C410      1.0  0.82133  0.58768  0.34133  1.0000
  H   H400      1.0  0.86219  0.61085  0.32435  1.0000
  H   H401      1.0  0.83482  0.54489  0.37119  1.0000
  H   H402      1.0  0.54078  0.61171  0.04428  1.0000
  H   H403      1.0  0.57409  0.40898  0.07560  1.0000
  H   H404      1.0  0.95471  0.56599  0.14867  1.0000
  H   H405      1.0  0.80737  0.57587  0.35557  1.0000
  H   H406      1.0  0.81829  0.60640  0.35398  1.0000
  H   H407      1.0  0.81857  0.58776  0.30828  1.0000
  H   H408      1.0  0.79973  0.45883  0.42697  1.0000
  H   H409      1.0  0.88673  0.60135  0.13218  1.0000
  H   H410      1.0  0.94156  0.60813  0.09811  1.0000
  C   C411      1.0  0.57165  0.58905  0.05738  1.0000
  N   N36       1.0  0.81848  0.44513  0.47687  1.0000
  C   C412      1.0  0.89832  0.39588  0.12311  1.0000
  C   C413      1.0  0.94791  0.37384  0.04924  1.0000
  C   C414      1.0  0.87355  0.54794  0.36930  1.0000
  H   H411      1.0  0.53693  0.39583  0.11429  1.0000
  C   C415      1.0  0.55014  0.59435  0.03852  1.0000
  C   C416      1.0  0.55441  0.34218  0.06805  1.0000
  H   H412      1.0  0.88722  0.41215  0.12952  1.0000
  C   C417      1.0  0.54767  0.38283  0.09560  1.0000
  H   H413      1.0  0.60129  0.56348  0.06151  1.0000
  H   H414      1.0  0.86522  0.56338  0.14751  1.0000
  S   S138      1.0  0.50088  0.66089  0.00764  1.0000
  C   C418      1.0  0.93473  0.60839  0.13023  1.0000
  S   S139      1.0  0.65393  0.51180  0.01988  1.0000
  C   C419      1.0  0.56851  0.39018  0.07409  1.0000
  H   H415      1.0  0.78377  0.45997  0.49657  1.0000
  H   H416      1.0  0.80430  0.42619  0.42690  1.0000
  H   H417      1.0  0.78068  0.52388  0.47479  1.0000
  H   H418      1.0  0.92272  0.62467  0.13577  1.0000
  C   C420      1.0  0.81256  0.44390  0.43418  1.0000
  N   N37       1.0  0.57455  0.34963  0.04646  1.0000
  H   H419      1.0  0.94549  0.38903  0.02827  1.0000
  H   H420      1.0  0.91102  0.34087  0.16218  1.0000
  S   S140      1.0  0.97570  0.64921  0.06027  1.0000
  S   S141      1.0  0.72842  0.49539  0.02774  1.0000
  C   C421      1.0  0.54125  0.57767  0.01079  1.0000
  H   H421      1.0  0.96654  0.37462  0.06063  1.0000
  C   C422      1.0  0.58401  0.56704  0.04813  1.0000
  C   C423      1.0  0.91544  0.39496  0.09057  1.0000
  C   C424      1.0  0.92833  0.35539  0.10837  1.0000
  H   H422      1.0  0.52444  0.35266  0.10938  1.0000
  H   H423      1.0  0.57915  0.60226  0.07795  1.0000
  Fe  Fe69      1.0  0.99024  0.65840  0.12216  1.0000
  H   H424      1.0  0.59787  0.37916  0.03260  1.0000
  C   C425      1.0  0.91162  0.35583  0.14142  1.0000
  Fe  Fe70      1.0  0.99370  0.33550  0.12881  1.0000
  C   C426      1.0  0.84080  0.43723  0.48814  1.0000
  H   H425      1.0  0.85443  0.43085  0.46552  1.0000
  C   C427      1.0  0.83687  0.50214  0.49392  1.0000
  C   C428      1.0  0.98355  0.66272  0.01329  1.0000
  H   H426      1.0  0.55896  0.44509  0.00824  1.0000
  C   C429      1.0  0.58881  0.52818  0.01097  1.0000
  Fe  Fe71      1.0  0.67912  0.50184  0.90924  1.0000
  S   S142      1.0  0.69313  0.53051  0.95072  1.0000
  S   S143      1.0  0.69318  0.49506  0.84388  1.0000
  Fe  Fe72      1.0  0.65382  0.53828  0.96920  1.0000
  H   H427      1.0  0.72266  0.45182  0.88705  1.0000
  S   S144      1.0  0.63972  0.51191  0.92385  1.0000
  S   S145      1.0  0.60571  0.46568  0.99200  1.0000
  C   C430      1.0  0.77868  0.46891  0.85281  1.0000
  Fe  Fe73      1.0  0.52402  0.34730  0.96404  1.0000
  Fe  Fe74      1.0  0.81799  0.50972  0.70312  1.0000
  S   S146      1.0  0.85814  0.50065  0.70628  1.0000
  S   S147      1.0  0.79822  0.51752  0.76488  1.0000
  Fe  Fe75      1.0  0.82114  0.50995  0.60984  1.0000
  S   S148      1.0  0.86074  0.50108  0.60724  1.0000
  S   S149      1.0  0.80069  0.51547  0.55205  1.0000
  Fe  Fe76      1.0  0.85234  0.47422  0.65534  1.0000
  S   S150      1.0  0.87366  0.43927  0.64163  1.0000
  Fe  Fe77      1.0  0.86370  0.52821  0.65817  1.0000
  S   S151      1.0  0.89659  0.55195  0.64927  1.0000
  S   S152      1.0  0.81187  0.48090  0.65500  1.0000
  S   S153      1.0  0.82430  0.53942  0.65788  1.0000
  H   H428      1.0  0.98220  0.43216  0.66705  1.0000
  S   S154      1.0  0.97464  0.35199  0.71520  1.0000
  Fe  Fe78      1.0  0.95404  0.36022  0.77388  1.0000
  S   S155      1.0  0.91529  0.37453  0.77937  1.0000
  C   C431      1.0  0.88634  0.62631  0.70085  1.0000
  C   C432      1.0  0.60706  0.41968  0.95411  1.0000
  Fe  Fe79      1.0  0.96987  0.64010  0.78145  1.0000
  S   S156      1.0  0.94086  0.61218  0.79263  1.0000
  C   C433      1.0  0.90970  0.56709  0.69002  1.0000
  C   C434      1.0  0.89978  0.56579  0.72945  1.0000
  C   C435      1.0  0.90999  0.57919  0.76088  1.0000
  C   C436      1.0  0.93001  0.59406  0.75302  1.0000
  C   C437      1.0  0.94020  0.59500  0.71369  1.0000
  C   C438      1.0  0.93011  0.58147  0.68231  1.0000
  H   H429      1.0  0.88404  0.55478  0.73564  1.0000
  H   H430      1.0  0.90207  0.57839  0.79131  1.0000
  H   H431      1.0  0.95564  0.60634  0.70739  1.0000
  H   H432      1.0  0.93788  0.58245  0.65183  1.0000
  C   C439      1.0  0.90453  0.39321  0.74127  1.0000
  C   C440      1.0  0.88491  0.40933  0.75036  1.0000
  C   C441      1.0  0.87572  0.42415  0.72036  1.0000
  C   C442      1.0  0.88568  0.42236  0.68081  1.0000
  C   C443      1.0  0.90529  0.40625  0.67173  1.0000
  C   C444      1.0  0.91489  0.39195  0.70194  1.0000
  H   H433      1.0  0.87677  0.41034  0.78072  1.0000
  H   H434      1.0  0.86050  0.43641  0.72758  1.0000
  H   H435      1.0  0.91307  0.40482  0.64117  1.0000
  H   H436      1.0  0.93002  0.37966  0.69455  1.0000
  C   C445      1.0  0.88764  0.63598  0.73998  1.0000
  N   N38       1.0  0.91783  0.65300  0.67779  1.0000
  C   C446      1.0  0.90176  0.63499  0.66994  1.0000
  H   H437      1.0  0.83342  0.44666  0.58971  1.0000
  H   H438      1.0  0.76127  0.51434  0.96168  1.0000
  C   C447      1.0  0.92615  0.46216  0.72330  1.0000
  H   H439      1.0  0.91305  0.50351  0.69069  1.0000
  C   C448      1.0  0.59354  0.43717  0.97726  1.0000
  C   C449      1.0  0.97552  0.65198  0.97742  1.0000
  H   H440      1.0  0.96868  0.41760  0.73430  1.0000
  C   C450      1.0  0.59682  0.39704  0.94447  1.0000
  C   C451      1.0  0.61120  0.58927  0.96476  1.0000
  H   H441      1.0  0.95935  0.46567  0.63615  1.0000
  C   C452      1.0  0.56783  0.61094  0.93855  1.0000
  C   C453      1.0  0.58163  0.62313  0.96674  1.0000
  C   C454      1.0  0.60329  0.61239  0.97954  1.0000
  C   C455      1.0  0.56960  0.43174  0.99029  1.0000
  C   C456      1.0  0.98089  0.66229  0.93953  1.0000
  C   C457      1.0  0.72186  0.50287  0.82135  1.0000
  C   C458      1.0  0.73823  0.51736  0.84161  1.0000
  C   C459      1.0  0.76115  0.52230  0.82317  1.0000
  C   C460      1.0  0.76813  0.51266  0.78451  1.0000
  C   C461      1.0  0.75160  0.49849  0.76402  1.0000
  C   C462      1.0  0.72857  0.49374  0.78229  1.0000
  H   H442      1.0  0.73341  0.52452  0.87163  1.0000
  H   H443      1.0  0.77377  0.53331  0.83927  1.0000
  H   H444      1.0  0.75665  0.49096  0.73429  1.0000
  H   H445      1.0  0.71604  0.48259  0.76625  1.0000
  Fe  Fe80      1.0  0.64118  0.48462  0.97340  1.0000
  N   N39       1.0  0.64999  0.59459  0.87885  1.0000
  C   C463      1.0  0.63194  0.58636  0.85532  1.0000
  C   C464      1.0  0.67091  0.58115  0.88191  1.0000
  C   C465      1.0  0.63444  0.56390  0.83464  1.0000
  C   C466      1.0  0.67415  0.55883  0.86108  1.0000
  C   C467      1.0  0.65574  0.55012  0.83751  1.0000
  C   C468      1.0  0.64759  0.61852  0.89922  1.0000
  H   H446      1.0  0.61534  0.59700  0.85288  1.0000
  H   H447      1.0  0.68515  0.58760  0.90075  1.0000
  H   H448      1.0  0.61997  0.55723  0.81651  1.0000
  H   H449      1.0  0.69079  0.54821  0.86330  1.0000
  H   H450      1.0  0.65802  0.53266  0.82164  1.0000
  H   H451      1.0  0.65793  0.63214  0.88165  1.0000
  H   H452      1.0  0.62827  0.62469  0.90284  1.0000
  H   H453      1.0  0.65454  0.61777  0.93019  1.0000
  C   C469      1.0  0.95901  0.43254  0.72105  1.0000
  C   C470      1.0  0.93870  0.44328  0.74137  1.0000
  H   H454      1.0  0.80199  0.49218  0.88554  1.0000
  S   S157      1.0  0.99000  0.64781  0.72293  1.0000
  H   H455      1.0  0.87424  0.61143  0.69483  1.0000
  C   C471      1.0  0.92027  0.48988  0.66766  1.0000
  H   H456      1.0  0.86430  0.43183  0.53799  1.0000
  N   N40       1.0  0.93394  0.47039  0.68637  1.0000
  S   S158      1.0  0.67950  0.47224  0.95510  1.0000
  Fe  Fe81      1.0  0.51611  0.65561  0.94367  1.0000
  H   H457      1.0  0.97453  0.65381  0.91228  1.0000
  C   C472      1.0  0.74045  0.45996  0.88705  1.0000
  C   C473      1.0  0.95361  0.45966  0.66594  1.0000
  C   C474      1.0  0.57290  0.39162  0.95753  1.0000
  H   H458      1.0  0.60756  0.38362  0.92683  1.0000
  C   C475      1.0  0.74727  0.47385  0.92041  1.0000
  C   C476      1.0  0.55928  0.40920  0.98034  1.0000
  H   H459      1.0  0.61391  0.62204  0.00121  1.0000
  H   H460      1.0  0.90117  0.62671  0.63998  1.0000
  C   C477      1.0  0.82914  0.44604  0.55809  1.0000
  C   C478      1.0  0.57599  0.58799  0.92329  1.0000
  S   S159      1.0  0.54034  0.62326  0.92132  1.0000
  H   H461      1.0  0.54732  0.54322  0.98000  1.0000
  C   C479      1.0  0.59742  0.57709  0.93657  1.0000
  H   H462      1.0  0.96494  0.63564  0.97895  1.0000
  C   C480      1.0  0.78485  0.48283  0.88659  1.0000
  H   H463      1.0  0.90487  0.48207  0.65159  1.0000
  H   H464      1.0  0.60336  0.55939  0.92469  1.0000
  H   H465      1.0  0.56546  0.57847  0.90135  1.0000
  H   H466      1.0  0.57566  0.64085  0.97854  1.0000
  C   C481      1.0  0.77545  0.49999  0.95499  1.0000
  H   H467      1.0  0.90570  0.66147  0.77820  1.0000
  C   C482      1.0  0.75627  0.45752  0.85305  1.0000
  H   H468      1.0  0.90993  0.46994  0.73871  1.0000
  H   H469      1.0  0.62548  0.42352  0.94391  1.0000
  C   C483      1.0  0.96653  0.44069  0.68308  1.0000
  H   H470      1.0  0.73483  0.47584  0.94665  1.0000
  H   H471      1.0  0.93180  0.50003  0.64571  1.0000
  S   S160      1.0  0.56151  0.36218  0.94672  1.0000
  H   H472      1.0  0.93232  0.43649  0.77040  1.0000
  S   S161      1.0  0.63877  0.57678  0.98140  1.0000
  N   N41       1.0  0.76915  0.48519  0.91976  1.0000
  H   H473      1.0  0.75082  0.44755  0.82642  1.0000
  H   H474      1.0  0.77634  0.48843  0.98197  1.0000
  H   H475      1.0  0.79074  0.46789  0.82593  1.0000
  C   C484      1.0  0.84650  0.43769  0.52890  1.0000
  C   C485      1.0  0.91893  0.66284  0.71592  1.0000
  H   H476      1.0  0.79302  0.46117  0.56876  1.0000
  C   C486      1.0  0.80639  0.45387  0.54639  1.0000
  H   H477      1.0  0.87663  0.62863  0.76461  1.0000
  H   H478      1.0  0.84821  0.49812  0.51874  1.0000
  S   S162      1.0  0.98258  0.38366  0.79909  1.0000
  H   H479      1.0  0.79316  0.50905  0.95034  1.0000
  Fe  Fe82      1.0  0.99773  0.34990  0.82615  1.0000
  C   C487      1.0  0.93432  0.66184  0.64564  1.0000
  H   H480      1.0  0.54091  0.40530  0.99073  1.0000
  H   H481      1.0  0.93205  0.65223  0.61626  1.0000
  C   C488      1.0  0.90399  0.65439  0.74763  1.0000
  H   H482      1.0  0.60006  0.34109  0.99742  1.0000
  Fe  Fe83      1.0  0.69214  0.50162  0.99789  1.0000
  H   H483      1.0  0.60432  0.53225  0.98986  1.0000
  H   H484      1.0  0.57756  0.51418  0.99646  1.0000
  H   H485      1.0  0.90822  0.33832  0.70992  1.0000
  H   H486      1.0  0.95348  0.65921  0.65399  1.0000
  H   H487      1.0  0.52509  0.58215  0.99472  1.0000
  C   C489      1.0  0.55397  0.55575  0.00248  1.0000
  C   C490      1.0  0.80129  0.45321  0.50542  1.0000
  N   N42       1.0  0.80648  0.96222  0.31744  1.0000
  H   H488      1.0  0.83320  0.98945  0.30879  1.0000
  S   S163      1.0  0.98132  0.76745  0.40574  1.0000
  C   C491      1.0  0.57987  0.96885  0.27051  1.0000
  H   H489      1.0  0.81845  0.93241  0.35164  1.0000
  C   C492      1.0  0.81720  0.95256  0.35359  1.0000
  S   S164      1.0  0.76120  0.98771  0.39348  1.0000
  C   C493      1.0  0.93203  0.85609  0.36544  1.0000
  Fe  Fe84      1.0  0.96319  0.84516  0.48746  1.0000
  H   H490      1.0  0.95278  0.85656  0.30869  1.0000
  H   H491      1.0  0.58624  0.97920  0.20905  1.0000
  S   S165      1.0  0.80636  0.97087  0.47026  1.0000
  C   C494      1.0  0.55218  0.93590  0.28069  1.0000
  Fe  Fe85      1.0  0.84450  0.98091  0.45176  1.0000
  S   S166      1.0  0.87496  0.95510  0.42720  1.0000
  Fe  Fe86      1.0  0.53241  0.86106  0.26011  1.0000
  S   S167      1.0  0.57001  0.87380  0.27337  1.0000
  S   S168      1.0  0.51678  0.82737  0.28772  1.0000
  H   H492      1.0  0.57040  0.95406  0.32863  1.0000
  H   H493      1.0  0.66722  0.94594  0.07389  1.0000
  C   C495      1.0  0.50730  0.74867  0.07814  1.0000
  H   H494      1.0  0.52082  0.79941  0.13462  1.0000
  H   H495      1.0  0.91698  0.81261  0.45747  1.0000
  H   H496      1.0  0.92876  0.87561  0.36704  1.0000
  Fe  Fe87      1.0  0.64621  0.96800  0.16266  1.0000
  S   S169      1.0  0.63302  0.93111  0.14352  1.0000
  S   S170      1.0  0.67958  0.98464  0.13401  1.0000
  C   C496      1.0  0.92318  0.84148  0.39658  1.0000
  H   H497      1.0  0.51516  0.83439  0.39676  1.0000
  H   H498      1.0  0.57667  0.95036  0.15333  1.0000
  H   H499      1.0  0.90074  0.79461  0.42142  1.0000
  H   H500      1.0  0.53077  0.82421  0.46368  1.0000
  C   C497      1.0  0.58735  0.88941  0.23669  1.0000
  C   C498      1.0  0.60501  0.90562  0.24935  1.0000
  C   C499      1.0  0.61871  0.91889  0.22102  1.0000
  C   C500      1.0  0.61550  0.91531  0.17974  1.0000
  C   C501      1.0  0.59811  0.89883  0.16698  1.0000
  C   C502      1.0  0.58372  0.88625  0.19542  1.0000
  H   H501      1.0  0.60792  0.90807  0.28124  1.0000
  H   H502      1.0  0.63220  0.93140  0.23110  1.0000
  H   H503      1.0  0.59565  0.89588  0.13505  1.0000
  H   H504      1.0  0.57028  0.87365  0.18541  1.0000
  C   C503      1.0  0.89070  0.89860  0.50052  1.0000
  C   C504      1.0  0.87919  0.91914  0.48456  1.0000
  H   H505      1.0  0.80576  0.95810  0.38080  1.0000
  C   C505      1.0  0.78541  0.95260  0.30449  1.0000
  C   C506      1.0  0.99716  0.68390  0.01078  1.0000
  S   S171      1.0  0.96698  0.80522  0.49938  1.0000
  C   C507      1.0  0.92370  0.90111  0.45038  1.0000
  C   C508      1.0  0.91194  0.92132  0.43389  1.0000
  C   C509      1.0  0.88963  0.93048  0.45082  1.0000
  C   C510      1.0  0.98180  0.73296  0.34440  1.0000
  H   H506      1.0  0.91289  0.84992  0.42202  1.0000
  S   S172      1.0  0.51639  0.73411  0.03090  1.0000
  C   C511      1.0  0.94941  0.82028  0.33112  1.0000
  S   S173      1.0  0.65052  0.98545  0.22391  1.0000
  C   C512      1.0  0.77474  0.96140  0.27008  1.0000
  H   H507      1.0  0.53178  0.77836  0.06887  1.0000
  H   H508      1.0  0.97427  0.72119  0.36728  1.0000
  H   H509      1.0  0.83589  0.95926  0.35764  1.0000
  C   C513      1.0  0.56768  0.95310  0.29644  1.0000
  C   C514      1.0  0.98764  0.75698  0.35511  1.0000
  C   C515      1.0  0.51208  0.78265  0.12657  1.0000
  C   C516      1.0  0.51267  0.83192  0.46203  1.0000
  C   C517      1.0  0.94018  0.80623  0.36270  1.0000
  C   C518      1.0  0.66152  0.94775  0.04316  1.0000
  C   C519      1.0  0.57663  0.96691  0.22897  1.0000
  H   H510      1.0  0.62479  0.95787  0.06179  1.0000
  H   H511      1.0  0.53752  0.92076  0.22699  1.0000
  C   C520      1.0  0.54926  0.93454  0.23899  1.0000
  C   C521      1.0  0.94545  0.84540  0.33272  1.0000
  H   H512      1.0  0.92024  0.93001  0.40791  1.0000
  N   N43       1.0  0.56184  0.94961  0.21366  1.0000
  C   C522      1.0  0.80674  0.99051  0.26325  1.0000
  H   H513      1.0  0.94095  0.89446  0.43723  1.0000
  H   H514      1.0  0.94327  0.78670  0.36118  1.0000
  C   C523      1.0  0.55891  0.94790  0.16997  1.0000
  C   C524      1.0  0.50387  0.83768  0.42398  1.0000
  S   S174      1.0  0.51522  0.85524  0.20050  1.0000
  H   H515      1.0  0.59189  0.98246  0.28228  1.0000
  C   C525      1.0  0.78557  0.98039  0.24927  1.0000
  C   C526      1.0  0.91871  0.80193  0.42848  1.0000
  C   C527      1.0  0.91296  0.88941  0.48348  1.0000
  H   H516      1.0  0.77640  0.93843  0.32136  1.0000
  C   C528      1.0  0.81698  0.98120  0.29771  1.0000
  H   H517      1.0  0.71976  0.97064  0.35268  1.0000
  H   H518      1.0  0.69671  0.93859  0.01555  1.0000
  S   S175      1.0  0.98326  0.84166  0.42703  1.0000
  H   H519      1.0  0.86199  0.92585  0.49779  1.0000
  H   H520      1.0  0.93152  0.78650  0.43328  1.0000
  C   C529      1.0  0.72770  0.98475  0.33446  1.0000
  H   H521      1.0  0.54306  0.92313  0.30041  1.0000
  H   H522      1.0  0.75765  0.95425  0.26050  1.0000
  N   N44       1.0  0.92784  0.81696  0.39539  1.0000
  C   C530      1.0  0.71766  0.99017  0.29718  1.0000
  Fe  Fe88      1.0  0.98984  0.80228  0.44116  1.0000
  H   H523      1.0  0.70228  0.98018  0.28694  1.0000
  H   H524      1.0  0.98087  0.70549  0.29658  1.0000
  H   H525      1.0  0.95975  0.81167  0.30583  1.0000
  H   H526      1.0  0.77690  0.98795  0.22343  1.0000
  H   H527      1.0  0.55234  0.92970  0.16069  1.0000
  C   C531      1.0  0.51825  0.77064  0.08921  1.0000
  C   C532      1.0  0.98547  0.72400  0.30431  1.0000
  H   H528      1.0  0.54579  0.96206  0.16097  1.0000
  H   H529      1.0  0.74794  0.99790  0.49428  1.0000
  S   S176      1.0  0.92588  0.86259  0.50329  1.0000
  C   C533      1.0  0.99469  0.73915  0.27424  1.0000
  H   H530      1.0  0.52531  0.76214  0.33692  1.0000
  S   S177      1.0  0.62099  0.99687  0.14247  1.0000
  C   C534      1.0  0.63757  0.95432  0.03630  1.0000
  C   C535      1.0  0.99725  0.77203  0.32519  1.0000
  H   H531      1.0  0.50746  0.78062  0.40131  1.0000
  H   H532      1.0  0.74929  0.96691  0.47517  1.0000
  C   C536      1.0  0.67797  0.94342  0.01042  1.0000
  C   C537      1.0  0.74816  0.99701  0.34788  1.0000
  S   S178      1.0  0.96587  0.66900  0.17679  1.0000
  C   C538      1.0  0.50707  0.76991  0.33822  1.0000
  S   S179      1.0  0.50288  0.88600  0.28641  1.0000
  Fe  Fe89      1.0  0.99814  0.68968  0.19880  1.0000
  H   H533      1.0  0.72244  0.98484  0.47000  1.0000
  C   C539      1.0  0.73735  0.98109  0.49059  1.0000
  H   H534      1.0  0.50133  0.76250  0.27511  1.0000
  Fe  Fe90      1.0  0.79409  0.99995  0.42831  1.0000
  S   S180      1.0  0.52019  0.69586  0.93363  1.0000
  H   H535      1.0  0.97250  0.76479  0.57342  1.0000
  N   N45       1.0  0.96116  0.84228  0.61964  1.0000
  H   H536      1.0  0.52223  0.87698  0.55606  1.0000
  S   S181      1.0  0.96755  0.70948  0.68803  1.0000
  S   S182      1.0  0.99619  0.85436  0.52173  1.0000
  H   H537      1.0  0.51642  0.73332  0.84522  1.0000
  H   H538      1.0  0.54042  0.90166  0.53779  1.0000
  Fe  Fe91      1.0  0.98303  0.68742  0.73915  1.0000
  H   H539      1.0  0.53377  0.76439  0.79944  1.0000
  S   S183      1.0  0.52010  0.91503  0.67842  1.0000
  S   S184      1.0  0.52371  0.84200  0.65622  1.0000
  Fe  Fe92      1.0  0.63642  0.97203  0.76450  1.0000
  S   S185      1.0  0.62089  0.93441  0.75728  1.0000
  S   S186      1.0  0.67705  0.97532  0.76557  1.0000
  C   C540      1.0  0.54722  0.92046  0.70315  1.0000
  C   C541      1.0  0.55689  0.94390  0.70279  1.0000
  C   C542      1.0  0.57925  0.94855  0.71999  1.0000
  C   C543      1.0  0.59211  0.92973  0.73752  1.0000
  C   C544      1.0  0.58232  0.90634  0.73817  1.0000
  C   C545      1.0  0.55990  0.90170  0.72115  1.0000
  H   H540      1.0  0.54717  0.95846  0.68882  1.0000
  H   H541      1.0  0.58669  0.96658  0.71928  1.0000
  H   H542      1.0  0.59219  0.89171  0.75173  1.0000
  H   H543      1.0  0.55261  0.88358  0.72150  1.0000
  C   C546      1.0  0.74276  0.95943  0.55333  1.0000
  C   C547      1.0  0.69690  0.97400  0.58333  1.0000
  C   C548      1.0  0.98335  0.84941  0.63196  1.0000
  C   C549      1.0  0.51452  0.76089  0.79977  1.0000
  H   H544      1.0  0.88216  0.88968  0.52605  1.0000
  C   C550      1.0  0.56345  0.85917  0.57874  1.0000
  H   H545      1.0  0.93171  0.67706  0.72207  1.0000
  C   C551      1.0  0.76103  0.99571  0.64680  1.0000
  C   C552      1.0  0.50472  0.74326  0.82587  1.0000
  H   H546      1.0  0.53347  0.81723  0.85410  1.0000
  C   C553      1.0  0.73466  0.95240  0.59188  1.0000
  Fe  Fe93      1.0  0.66918  0.99961  0.82082  1.0000
  C   C554      1.0  0.97095  0.74039  0.62377  1.0000
  C   C555      1.0  0.98057  0.75972  0.60119  1.0000
  C   C556      1.0  0.58725  0.88916  0.63171  1.0000
  H   H547      1.0  0.95541  0.73084  0.61313  1.0000
  S   S187      1.0  0.51284  0.79783  0.74508  1.0000
  C   C557      1.0  0.59501  0.86502  0.62591  1.0000
  C   C558      1.0  0.56725  0.89768  0.61135  1.0000
  H   H548      1.0  0.92948  0.85211  0.58874  1.0000
  H   H549      1.0  0.53610  0.78706  0.90819  1.0000
  H   H550      1.0  0.52306  0.90440  0.58567  1.0000
  H   H551      1.0  0.56096  0.91631  0.61679  1.0000
  H   H552      1.0  0.51892  0.75484  0.94473  1.0000
  H   H553      1.0  0.69432  0.99233  0.52723  1.0000
  H   H554      1.0  0.96406  0.80787  0.64814  1.0000
  C   C559      1.0  0.58317  0.84993  0.59902  1.0000
  C   C560      1.0  0.67009  0.94542  0.97106  1.0000
  C   C561      1.0  0.98125  0.73328  0.65987  1.0000
  C   C562      1.0  0.63825  0.95244  0.92312  1.0000
  H   H555      1.0  0.61008  0.85803  0.64237  1.0000
  H   H556      1.0  0.93391  0.81682  0.63572  1.0000
  H   H557      1.0  0.95593  0.80682  0.59628  1.0000
  H   H558      1.0  0.94279  0.89386  0.57561  1.0000
  Fe  Fe94      1.0  0.50187  0.70130  0.99600  1.0000
  S   S188      1.0  0.50998  0.82735  0.54485  1.0000
  C   C563      1.0  0.95410  0.88174  0.59244  1.0000
  H   H559      1.0  0.93110  0.68162  0.64163  1.0000
  H   H560      1.0  0.59628  0.90109  0.65261  1.0000
  H   H561      1.0  0.55441  0.84731  0.55786  1.0000
  N   N46       1.0  0.72809  0.97305  0.53014  1.0000
  C   C564      1.0  0.95332  0.81725  0.62532  1.0000
  H   H562      1.0  0.70547  0.95544  0.63748  1.0000
  H   H563      1.0  0.68301  0.94216  0.94571  1.0000
  H   H564      1.0  0.73403  0.99373  0.69624  1.0000
  C   C565      1.0  0.71158  0.95976  0.60690  1.0000
  H   H565      1.0  0.63137  0.93438  0.91395  1.0000
  C   C566      1.0  0.51861  0.79122  0.89607  1.0000
  C   C567      1.0  0.53429  0.89192  0.56523  1.0000
  N   N47       1.0  0.64651  0.95177  0.96456  1.0000
  C   C568      1.0  0.49964  0.77428  0.77453  1.0000
  S   S189      1.0  0.96036  0.67935  0.79575  1.0000
  H   H566      1.0  0.65327  0.95734  0.90136  1.0000
  N   N48       1.0  0.55531  0.88257  0.58595  1.0000
  C   C569      1.0  0.63029  0.95616  0.99655  1.0000
  H   H567      1.0  0.77431  0.98479  0.66163  1.0000
  C   C570      1.0  0.51724  0.80847  0.86583  1.0000
  H   H568      1.0  0.76118  0.95462  0.54266  1.0000
  S   S190      1.0  0.68973  0.99610  0.87872  1.0000
  C   C571      1.0  0.99137  0.87300  0.62508  1.0000
  H   H569      1.0  0.62363  0.96638  0.92044  1.0000
  H   H570      1.0  0.61160  0.96119  0.99152  1.0000
  C   C572      1.0  0.94667  0.85802  0.59983  1.0000
  Fe  Fe95      1.0  0.50461  0.87716  0.67407  1.0000
  S   S191      1.0  0.79479  0.99550  0.58294  1.0000
  H   H571      1.0  0.99527  0.83666  0.64631  1.0000
  H   H572      1.0  0.71052  0.99554  0.95658  1.0000
  H   H573      1.0  0.58894  0.83109  0.59425  1.0000
  H   H574      1.0  0.74665  0.94228  0.61068  1.0000
  C   C573      1.0  0.97659  0.88926  0.60523  1.0000
  S   S192      1.0  0.62920  0.99379  0.82203  1.0000
  Fe  Fe96      1.0  0.99513  0.67948  0.82872  1.0000
  C   C574      1.0  0.99406  0.68373  0.93712  1.0000
  C   C575      1.0  0.70552  0.98060  0.54481  1.0000
  H   H575      1.0  0.98286  0.90738  0.59869  1.0000
  H   H576      1.0  0.67945  0.98084  0.59571  1.0000
  C   C576      1.0  0.49989  0.76097  0.94055  1.0000
