data_image0
_chemical_formula_structural       SFeS2CS2H2SFeSCHSHCHS3H2FeSCFeS2HC2HNH3C6H4CHSH4CHCSCHC10H6FeSCH2CH2SFeHC7H6CNSH3CHC2HCHC3NCSFeHC2HC2H2C2H2CH2CFeC2HCHCSHC2NCHSCHC2H2NHCHCH4CHCHC3H2CSHC2H2CHCSCNFe2HCHCH8CSC2NSHFeS2CSFeHSCH2SHSCHSCFeSFe2SCH2CHSCFeS2H2SC8H4SC2H3Fe2C2H2SHSCH2CHCSH3CHC6H4C2H3CHCHSHCFeC6H7CHNC3H2CNHCHCHCH2NFeCNH2SH2C3H2C2SCN2SC4HCHCSHCHFeCHC2HC3H2CHC4HSCH6S2CHCHCHC5H2FeH2SCH2CH2CHC2SH4CHCHSFeH2FeSHSCS2CSNFeS2C2FeS2FeHCHCS2CSHFeHSFeSCFe2S2FeSH2SH2FeS2FeC2H2C2H2C6H4C2H5FeC6H4C5H4NHCS2CH2C4HC6H7CHSHNHC2HSCNCHCHC2SHCH3C2FeCH2CNH3SCNCHC2HC3H3C4HSH3SCH2FeHFeHCHCH3C2NCH2CSHFeC2HC3SCHCHCSNCSHFeS3HFeSCS2C2FeSCHSCSCHFeSHSFeS2H2SCH2FeSFe2HS2HSCFeS2HSNCH3CHCNCHFeHC6H3NC3SCHC2H2C6H5C2H2SNCH3CH2C6H4C4HC2SH2CH2C2FeHCHCHC2HCFeSCHCHNHC2H3NC3HC2HC2H5CHNSH2CH4CFeCHCHCHC2HCH2CHNH2SC4HC2FeHCH2FeH2FeCHC4HC2S2HFeC2H2CHCNFeHCFeCHCHCHSH3C2S2CHCFeS2HSHFeSH2CSH2SH2CHNFeSHSCSCH2SFe2H3SCFeCHC6H7NFeHCHCSCHCHC3HFeH2C6H5C3HSCHSC6H2CNC6H4NC6H10C2SH5CHNC2HC2SCHC2SHCFeH3C2SCHC2SHC3HNHCH5NH2FeCHC3H4C4S3HCFeH3CHCH3C2S2NH2SC3H2SHC3HCFeHC5HCHC4H2CSFeC2H2SCSCSCS2FeSFeS2FeHSH2CS2CSHFeNCSHC5SCNFeHNHC6H4FeCHCHFeHC7H5SFeCHCHCH2SC2SC7H5C3NH3C2FeHS2C2HS2HCH2NC6H11S2CH3C2HFeCHCSC2H2CFeH4FeCN2C6H9FeCHC2H2C2HC2SHNCSH3FeHCSH2CH3CHC2S2CHFeH2CH2CHCHC2HSHS3CHFeSCHFeHC2HFeHSH2FeS2Fe2NSFeSC2S2FeSH2FeSFeH2CHSCFeSCHCH3CHFeC6H7CHCHCNCHC2S2H2C7H4C2Fe2H4CSC2HC3HCH3C6H2CN2C6H8CSCH2SCS2HSHCHCH2C2FeC2HC2NC4HCH2CH4C3SH2S2C2HSC6H2C3HCH2NSH2C2HCH2CH2CHSHC2SCH3CFeHSFeHC3S2FeH2CH2CHC3S2C3HFeSHFeSHSCHCHCSHSFeSCHSHFeSFeCHSH2CFeSFeSHS2HFe2SCHCHC2FeS2C9H4C2H2C4H3SC2HSC2HC7H5CFeH3C2HNHCHC2H2NCSC6H4C2HCH2NC6H3C2H5CSHSCH3CHFeC3H3CHFeH2C2SHCH3CHC2SHCNCNHFe2H2CSCH4CHNCNCH3CSHC2SHSFeC3Fe2SH2SHFe2SHFeHSFeSH2S2HSFeS2H2SC2HSCFeSH2CSC3SH3FeHFeC6H6CHC2HSHC10H4C2HCFeHC4SHCH3NC6H6CHS2C3SC3H5C2HCHCH4C3NFeCHNC6H5C2NH3C2H2NH4C2SC2NCH3N2H2C4SCHC7SCH2CHCSHCH3CH2CH3FeSH3NC2H2CH3CH2SH3C3HCSCHFeHSFeSH2SFeS2H2SCFeSCH2S2H4CFeHSNSCS3HCSCFeHC6H4C2H3FeHSCH6CSFeH2C6H4CHC2HCHSCHSFeC9H4CHCHCSH6CHFeC3SH2SCSCNHC2HCFeC2NC6H6NC6H9SCH3C3FeCHNFeC2SFeHNCHC2SCH2CS2CFeCSFeS2FeSFeHSFeS2CNSFeS2H2CHSCFeSHFeS4H2FeSHC2SC3FeSHCHFeSH3NFeCHSHNC2H2C6H4C2SCFeC2NC6H2NHC4H9C2HSC6H4C3H2FeH2CHCHFe2HC2H6CSCHCFeHCFeCH2CH2SH2NC2HCH3CSC3HSCHCHCH2CH2CSH5CHCSH2CHC6FeHCH2CHCHCSCS2C2HC3HSFeCSCHCSCHCSCHSCHCH2CSC2HCHNSHCH2CHFeS2FeS2HFe2SFeCFeS2H4SFeSHCHCSFeS2HNFeS2Fe2S3CH2CSHC9H6CHCSC3HC4H2SHNCHC4HCHFeC2SHC2H3C7H4C3SHCHCH2CH3CNSC2HCH2CHSCSNC2SCH2C2H2NSC2HC2H2CHSHC2H3CFeHCH6CH3CSH2FeH3FeHC3H2CNHCFeH3C2SCSH4CFeHC2H3C2HC2HCSC2H2C3SCFeS2CHCHSCHCFeSHFeS2HCHSHS2CFeSHCSHSFeCNCHC11H5CFeH2CS2CHC6H4SHSC2H3CSC2HSCH2CNC4H3C6H5SCH2FeH2NC6H2CHCH3C2NHFeSHCH2FeH2C3NH4NH2CH2CHSHC2HCSC2H4SH2SCH2NH2CH2C2FeCSCHC2H2NCSHCFeC4FeCSH2CSCS3FeSHFeSNCS2H2SH3S2HFeHCFeC6H6CNH2S2CFeC6H5C3HCHC6H4C2HC2HCH2NHSCFeHC2NC3FeHCSCHCH3CHC3HCHSH2C2H4C3FeC2H4SCHC3H2SHSCHSCSC3NH2C4H2NC2FeHC2NHCFeH3CH5CH2CH5SC3HCFeHSFeSHSC2FeHSH2SC2HCH2CFeCFeHSHCS2FeSCSHSHCFeCSN2SFeHSHCFeHSH2SC8H5CS2H2CS2HSCSHC5H2CHC6H5CHNC2SH3FeCN2CSCFeCHSC7H4CH2FeC4HSCH2CH3CHCHNFeHCHS2CH3C2SHCHC2HCNC6H4NCH2CH2C2H2SCSC5H3C2HCHS2HCFeH4FeNFeSH4CSHCHCHCH2C2H2CHSHFeSFeS2H2FeHSC2HS2CSHFeSCSH2SH2FeSNH2CSH8SCSFeHSHSC2HNC6H5C7HC2HC2SC3HSH2CHFeC6H4FeHC2HCFeSC11H4CFeCNCH2C3SCHCHC2HC2H3SFeS2FeH3CH2NC4HCH2C3H3CHFeSFeCHNH2NSNHSCHC2NCHCH2FeHC2HSCH3SCFeHC3H4FeSH2CHCH2CS2NC2FeC3H4
_chemical_formula_sum              "S480 Fe240 C1440 H1440 N120"
_cell_length_a       62.6272
_cell_length_b       62.7573
_cell_length_c       62.6988
_cell_angle_alpha    87.5136
_cell_angle_beta     86.6774
_cell_angle_gamma    86.977

_space_group_name_H-M_alt    "P 1"
_space_group_IT_number       1

loop_
  _space_group_symop_operation_xyz
  'x, y, z'

loop_
  _atom_site_type_symbol
  _atom_site_label
  _atom_site_symmetry_multiplicity
  _atom_site_fract_x
  _atom_site_fract_y
  _atom_site_fract_z
  _atom_site_occupancy
  S   S1        1.0  0.34564  0.18473  0.48668  1.0000
  Fe  Fe1       1.0  0.38024  0.19264  0.48814  1.0000
  S   S2        1.0  0.39813  0.20605  0.45807  1.0000
  S   S3        1.0  0.49285  0.17078  0.34474  1.0000
  C   C1        1.0  0.18503  0.03645  0.36711  1.0000
  S   S4        1.0  0.47985  0.16151  0.40913  1.0000
  S   S5        1.0  0.34755  0.12168  0.49299  1.0000
  H   H1        1.0  0.05239  0.21288  0.37494  1.0000
  H   H2        1.0  0.33586  0.13635  0.09562  1.0000
  S   S6        1.0  0.30064  0.02578  0.10606  1.0000
  Fe  Fe2       1.0  0.33325  0.12489  0.02817  1.0000
  S   S7        1.0  0.34235  0.10700  0.05901  1.0000
  C   C2        1.0  0.40075  0.18656  0.01484  1.0000
  H   H3        1.0  0.02870  0.19867  0.20873  1.0000
  S   S8        1.0  0.33914  0.16003  0.02543  1.0000
  H   H4        1.0  0.21677  0.03800  0.41789  1.0000
  C   C3        1.0  0.00950  0.06259  0.30453  1.0000
  H   H5        1.0  0.39435  0.12121  0.47871  1.0000
  S   S9        1.0  0.13508  0.04782  0.33404  1.0000
  S   S10       1.0  0.38937  0.16149  0.50459  1.0000
  S   S11       1.0  0.03792  0.15559  0.31476  1.0000
  H   H6        1.0  0.36703  0.14782  0.46047  1.0000
  H   H7        1.0  0.02255  0.05665  0.29318  1.0000
  Fe  Fe3       1.0  0.03098  0.12147  0.30931  1.0000
  S   S12       1.0  0.05281  0.09528  0.29432  1.0000
  C   C4        1.0  0.16164  0.22742  0.02730  1.0000
  Fe  Fe4       1.0  0.01957  0.15097  0.34657  1.0000
  S   S13       1.0  0.49492  0.03509  0.29622  1.0000
  S   S14       1.0  0.30093  0.12949  0.01454  1.0000
  H   H8        1.0  0.48580  0.23812  0.13083  1.0000
  C   C5        1.0  0.47987  0.24528  0.11611  1.0000
  C   C6        1.0  0.50127  0.17138  0.28607  1.0000
  H   H9        1.0  0.32348  0.25538  0.50135  1.0000
  N   N1        1.0  0.39509  0.13233  0.44621  1.0000
  H   H10       1.0  0.03132  0.20428  0.31264  1.0000
  H   H11       1.0  0.05327  0.17682  0.41340  1.0000
  H   H12       1.0  0.41142  0.20476  0.04030  1.0000
  C   C7        1.0  0.11210  0.06073  0.32290  1.0000
  C   C8        1.0  0.10137  0.07787  0.33347  1.0000
  C   C9        1.0  0.08326  0.08872  0.32493  1.0000
  C   C10       1.0  0.07590  0.08271  0.30553  1.0000
  C   C11       1.0  0.08657  0.06551  0.29503  1.0000
  C   C12       1.0  0.10447  0.05449  0.30371  1.0000
  H   H13       1.0  0.10715  0.08287  0.34829  1.0000
  H   H14       1.0  0.07515  0.10184  0.33325  1.0000
  H   H15       1.0  0.08098  0.06070  0.28004  1.0000
  H   H16       1.0  0.11259  0.04140  0.29536  1.0000
  C   C13       1.0  0.41061  0.13283  0.42990  1.0000
  H   H17       1.0  0.50547  0.15754  0.29698  1.0000
  S   S15       1.0  0.28647  0.19255  0.02202  1.0000
  H   H18       1.0  0.03922  0.19988  0.44285  1.0000
  H   H19       1.0  0.49032  0.18243  0.29549  1.0000
  H   H20       1.0  0.19224  0.24581  0.07774  1.0000
  H   H21       1.0  0.04833  0.05144  0.31844  1.0000
  C   C14       1.0  0.02349  0.17743  0.39769  1.0000
  H   H22       1.0  0.19138  0.23601  0.03906  1.0000
  C   C15       1.0  0.50558  0.06003  0.30149  1.0000
  S   S16       1.0  0.03487  0.16220  0.37617  1.0000
  C   C16       1.0  0.49890  0.25533  0.28240  1.0000
  H   H23       1.0  0.06744  0.19585  0.31967  1.0000
  C   C17       1.0  0.06485  0.19731  0.33725  1.0000
  C   C18       1.0  0.04287  0.05476  0.35221  1.0000
  C   C19       1.0  0.49565  0.07245  0.31782  1.0000
  C   C20       1.0  0.13937  0.22880  0.03032  1.0000
  C   C21       1.0  0.31301  0.04775  0.09257  1.0000
  C   C22       1.0  0.30389  0.05730  0.07427  1.0000
  C   C23       1.0  0.31303  0.07505  0.06336  1.0000
  C   C24       1.0  0.33127  0.08356  0.07084  1.0000
  C   C25       1.0  0.34034  0.07402  0.08914  1.0000
  C   C26       1.0  0.33137  0.05614  0.09988  1.0000
  H   H24       1.0  0.28966  0.05095  0.06852  1.0000
  H   H25       1.0  0.30581  0.08232  0.04938  1.0000
  H   H26       1.0  0.35442  0.08051  0.09509  1.0000
  H   H27       1.0  0.33854  0.04897  0.11394  1.0000
  H   H28       1.0  0.17609  0.03591  0.35286  1.0000
  H   H29       1.0  0.14419  0.04360  0.40407  1.0000
  Fe  Fe5       1.0  0.50687  0.01072  0.27144  1.0000
  S   S17       1.0  0.45343  0.21847  0.02738  1.0000
  C   C27       1.0  0.37877  0.16517  0.43237  1.0000
  H   H30       1.0  0.06550  0.18097  0.34488  1.0000
  H   H31       1.0  0.39490  0.17948  0.40449  1.0000
  C   C28       1.0  0.23662  0.23971  0.49058  1.0000
  H   H32       1.0  0.14392  0.03020  0.37938  1.0000
  H   H33       1.0  0.48170  0.06671  0.32683  1.0000
  S   S18       1.0  0.01828  0.24052  0.19063  1.0000
  Fe  Fe6       1.0  0.48622  0.22955  0.01478  1.0000
  H   H34       1.0  0.47185  0.23333  0.06504  1.0000
  C   C29       1.0  0.39513  0.11477  0.46241  1.0000
  C   C30       1.0  0.42192  0.19440  0.44560  1.0000
  C   C31       1.0  0.43035  0.20369  0.42629  1.0000
  C   C32       1.0  0.44836  0.19416  0.41511  1.0000
  C   C33       1.0  0.45815  0.17519  0.42318  1.0000
  C   C34       1.0  0.44994  0.16609  0.44267  1.0000
  C   C35       1.0  0.43195  0.17561  0.45383  1.0000
  H   H35       1.0  0.42273  0.21823  0.41979  1.0000
  H   H36       1.0  0.45446  0.20135  0.40014  1.0000
  H   H37       1.0  0.45739  0.15142  0.44907  1.0000
  H   H38       1.0  0.42570  0.16829  0.46866  1.0000
  H   H39       1.0  0.38504  0.18434  0.02248  1.0000
  H   H40       1.0  0.33935  0.03211  0.23157  1.0000
  C   C36       1.0  0.27938  0.11636  0.08134  1.0000
  N   N2        1.0  0.30595  0.14267  0.08106  1.0000
  S   S19       1.0  0.50417  0.01493  0.23576  1.0000
  H   H41       1.0  0.36675  0.17817  0.43405  1.0000
  H   H42       1.0  0.42341  0.12054  0.42900  1.0000
  H   H43       1.0  0.26630  0.15937  0.04892  1.0000
  C   C37       1.0  0.41574  0.19821  0.02488  1.0000
  H   H44       1.0  0.03263  0.05989  0.38508  1.0000
  C   C38       1.0  0.21881  0.03356  0.38390  1.0000
  C   C39       1.0  0.20728  0.03283  0.36558  1.0000
  H   H45       1.0  0.44848  0.01253  0.21155  1.0000
  C   C40       1.0  0.02781  0.05980  0.36874  1.0000
  H   H46       1.0  0.14639  0.05865  0.37882  1.0000
  C   C41       1.0  0.37924  0.14813  0.44748  1.0000
  C   C42       1.0  0.25724  0.23122  0.48513  1.0000
  C   C43       1.0  0.29442  0.15562  0.06735  1.0000
  N   N3        1.0  0.04414  0.20817  0.34301  1.0000
  C   C44       1.0  0.39458  0.16589  0.41577  1.0000
  S   S20       1.0  0.32288  0.01615  0.16610  1.0000
  Fe  Fe7       1.0  0.30781  0.16432  0.00916  1.0000
  H   H47       1.0  0.33985  0.08023  0.47818  1.0000
  C   C45       1.0  0.04030  0.21535  0.36323  1.0000
  C   C46       1.0  0.25613  0.22618  0.02365  1.0000
  H   H48       1.0  0.30031  0.17090  0.06153  1.0000
  C   C47       1.0  0.32785  0.08359  0.49084  1.0000
  C   C48       1.0  0.47936  0.23317  0.09801  1.0000
  H   H49       1.0  0.11253  0.24091  0.05022  1.0000
  H   H50       1.0  0.30770  0.11302  0.09909  1.0000
  C   C49       1.0  0.01409  0.22928  0.21714  1.0000
  C   C50       1.0  0.14279  0.24798  0.06239  1.0000
  H   H51       1.0  0.50219  0.21042  0.26819  1.0000
  H   H52       1.0  0.48471  0.21644  0.09852  1.0000
  C   C51       1.0  0.27119  0.24335  0.47208  1.0000
  H   H53       1.0  0.49571  0.10160  0.33517  1.0000
  H   H54       1.0  0.40974  0.10402  0.46084  1.0000
  C   C52       1.0  0.02044  0.20768  0.22132  1.0000
  Fe  Fe8       1.0  0.50048  0.17175  0.37944  1.0000
  C   C53       1.0  0.32781  0.10306  0.50124  1.0000
  C   C54       1.0  0.31247  0.06837  0.49666  1.0000
  H   H55       1.0  0.02109  0.18093  0.24442  1.0000
  C   C55       1.0  0.17410  0.23657  0.04194  1.0000
  H   H56       1.0  0.16927  0.21991  0.01333  1.0000
  C   C56       1.0  0.29848  0.12342  0.08837  1.0000
  S   S21       1.0  0.03948  0.22818  0.50055  1.0000
  H   H57       1.0  0.32534  0.01468  0.21596  1.0000
  C   C57       1.0  0.47211  0.24285  0.07906  1.0000
  C   C58       1.0  0.02847  0.21019  0.32862  1.0000
  N   N4        1.0  0.16464  0.24648  0.05933  1.0000
  C   C59       1.0  0.41058  0.14959  0.41443  1.0000
  H   H58       1.0  0.23598  0.03007  0.38305  1.0000
  S   S22       1.0  0.18668  0.01168  0.31570  1.0000
  C   C60       1.0  0.03672  0.18276  0.41387  1.0000
  H   H59       1.0  0.32301  0.16247  0.09995  1.0000
  C   C61       1.0  0.02880  0.19584  0.43062  1.0000
  C   C62       1.0  0.32618  0.14979  0.08823  1.0000
  H   H60       1.0  0.38083  0.10520  0.46115  1.0000
  H   H61       1.0  0.27400  0.10072  0.08659  1.0000
  N   N5        1.0  0.17451  0.04024  0.38638  1.0000
  H   H62       1.0  0.05952  0.05094  0.35549  1.0000
  C   C63       1.0  0.18571  0.04128  0.40440  1.0000
  H   H63       1.0  0.07818  0.20625  0.34280  1.0000
  C   C64       1.0  0.20802  0.03801  0.40342  1.0000
  H   H64       1.0  0.31275  0.05352  0.48850  1.0000
  H   H65       1.0  0.22606  0.23040  0.50118  1.0000
  H   H66       1.0  0.25302  0.12394  0.06121  1.0000
  H   H67       1.0  0.17744  0.04406  0.41977  1.0000
  C   C65       1.0  0.01614  0.19754  0.24158  1.0000
  H   H68       1.0  0.28749  0.23725  0.46842  1.0000
  C   C66       1.0  0.27511  0.14919  0.06019  1.0000
  H   H69       1.0  0.33621  0.15596  0.07433  1.0000
  C   C67       1.0  0.02045  0.22512  0.36942  1.0000
  C   C68       1.0  0.26768  0.12934  0.06709  1.0000
  C   C69       1.0  0.41958  0.01054  0.19447  1.0000
  H   H70       1.0  0.19709  0.25625  0.49335  1.0000
  H   H71       1.0  0.42338  0.15041  0.40203  1.0000
  C   C70       1.0  0.12984  0.23922  0.04794  1.0000
  S   S23       1.0  0.49912  0.22544  0.31594  1.0000
  H   H72       1.0  0.50129  0.02633  0.17289  1.0000
  C   C71       1.0  0.43604  0.20183  0.01494  1.0000
  C   C72       1.0  0.50356  0.09228  0.32260  1.0000
  H   H73       1.0  0.38174  0.02189  0.22961  1.0000
  H   H74       1.0  0.41702  0.02768  0.19247  1.0000
  C   C73       1.0  0.03647  0.05515  0.33119  1.0000
  H   H75       1.0  0.21544  0.02882  0.35042  1.0000
  C   C74       1.0  0.15112  0.04338  0.38738  1.0000
  S   S24       1.0  0.01518  0.11612  0.34194  1.0000
  C   C75       1.0  0.34149  0.01988  0.21926  1.0000
  N   N6        1.0  0.01573  0.06069  0.32672  1.0000
  Fe  Fe9       1.0  0.15097  0.01657  0.32224  1.0000
  Fe  Fe10      1.0  0.35442  0.15440  0.50544  1.0000
  H   H76       1.0  0.26491  0.23123  0.03674  1.0000
  C   C76       1.0  0.23773  0.23842  0.01745  1.0000
  H   H77       1.0  0.23256  0.25271  0.02574  1.0000
  C   C77       1.0  0.17806  0.25644  0.07409  1.0000
  H   H78       1.0  0.49273  0.16544  0.27267  1.0000
  H   H79       1.0  0.13521  0.25640  0.07581  1.0000
  H   H80       1.0  0.48237  0.25143  0.28137  1.0000
  H   H81       1.0  0.34854  0.02722  0.20417  1.0000
  H   H82       1.0  0.26271  0.21567  0.49160  1.0000
  H   H83       1.0  0.12955  0.22227  0.01876  1.0000
  H   H84       1.0  0.01736  0.23033  0.38565  1.0000
  H   H85       1.0  0.09243  0.25692  0.50040  1.0000
  C   C78       1.0  0.26339  0.20760  0.01298  1.0000
  S   S25       1.0  0.38218  0.00891  0.17384  1.0000
  C   C79       1.0  0.50512  0.00926  0.17342  1.0000
  C   C80       1.0  0.41027  0.15864  0.62888  1.0000
  N   N7        1.0  0.06760  0.22978  0.56346  1.0000
  S   S26       1.0  0.48421  0.19876  0.68181  1.0000
  H   H86       1.0  0.34161  0.06652  0.83626  1.0000
  Fe  Fe11      1.0  0.48539  0.20338  0.64584  1.0000
  S   S27       1.0  0.45782  0.21754  0.62659  1.0000
  S   S28       1.0  0.35083  0.11796  0.99678  1.0000
  C   C81       1.0  0.50214  0.11247  0.69711  1.0000
  S   S29       1.0  0.48731  0.13688  0.69200  1.0000
  Fe  Fe12      1.0  0.38197  0.17841  0.53536  1.0000
  H   H87       1.0  0.47389  0.09523  0.70614  1.0000
  S   S30       1.0  0.40560  0.16840  0.56115  1.0000
  C   C82       1.0  0.03381  0.07052  0.73801  1.0000
  H   H88       1.0  0.43341  0.22207  0.93895  1.0000
  H   H89       1.0  0.05733  0.20948  0.58986  1.0000
  S   S31       1.0  0.19094  0.01563  0.71337  1.0000
  H   H90       1.0  0.07555  0.19650  0.55928  1.0000
  S   S32       1.0  0.34747  0.16910  0.53733  1.0000
  C   C83       1.0  0.38815  0.22273  0.97135  1.0000
  H   H91       1.0  0.31741  0.05086  0.98393  1.0000
  S   S33       1.0  0.32370  0.15989  0.97626  1.0000
  C   C84       1.0  0.50168  0.24053  0.59517  1.0000
  Fe  Fe13      1.0  0.31890  0.12461  0.98255  1.0000
  S   S34       1.0  0.30394  0.10093  0.96171  1.0000
  Fe  Fe14      1.0  0.35460  0.15354  0.99314  1.0000
  Fe  Fe15      1.0  0.33353  0.02261  0.86587  1.0000
  S   S35       1.0  0.34439  0.05278  0.88020  1.0000
  C   C85       1.0  0.02751  0.20314  0.76878  1.0000
  H   H92       1.0  0.22442  0.20832  0.97701  1.0000
  H   H93       1.0  0.45504  0.11195  0.63771  1.0000
  C   C86       1.0  0.31215  0.10713  0.51759  1.0000
  H   H94       1.0  0.27988  0.01990  0.74779  1.0000
  S   S36       1.0  0.04196  0.16320  0.69158  1.0000
  C   C87       1.0  0.21113  0.04414  0.59209  1.0000
  Fe  Fe16      1.0  0.03908  0.12743  0.69410  1.0000
  S   S37       1.0  0.06197  0.10145  0.68010  1.0000
  S   S38       1.0  0.13423  0.04358  0.72556  1.0000
  H   H95       1.0  0.03760  0.16397  0.58758  1.0000
  H   H96       1.0  0.37631  0.05851  0.94656  1.0000
  S   S39       1.0  0.33529  0.01842  0.83025  1.0000
  C   C88       1.0  0.32894  0.07735  0.82937  1.0000
  C   C89       1.0  0.24454  0.01393  0.78522  1.0000
  C   C90       1.0  0.08322  0.08676  0.69246  1.0000
  C   C91       1.0  0.08870  0.09051  0.71322  1.0000
  C   C92       1.0  0.10486  0.07755  0.72283  1.0000
  C   C93       1.0  0.11554  0.06061  0.71191  1.0000
  C   C94       1.0  0.11032  0.05711  0.69100  1.0000
  C   C95       1.0  0.09427  0.07016  0.68134  1.0000
  H   H97       1.0  0.08040  0.10327  0.72193  1.0000
  H   H98       1.0  0.10887  0.08045  0.73897  1.0000
  H   H99       1.0  0.11845  0.04419  0.68239  1.0000
  H   H100      1.0  0.09020  0.06721  0.66523  1.0000
  S   S40       1.0  0.20213  0.24629  0.99260  1.0000
  C   C96       1.0  0.23490  0.04841  0.56149  1.0000
  C   C97       1.0  0.01802  0.19258  0.58114  1.0000
  H   H101      1.0  0.32755  0.07336  0.81243  1.0000
  H   H102      1.0  0.22447  0.04728  0.62275  1.0000
  H   H103      1.0  0.39824  0.15795  0.61714  1.0000
  Fe  Fe17      1.0  0.34045  0.20022  0.51849  1.0000
  Fe  Fe18      1.0  0.15490  0.01535  0.71272  1.0000
  C   C98       1.0  0.04129  0.21175  0.78283  1.0000
  C   C99       1.0  0.03383  0.22767  0.79718  1.0000
  H   H104      1.0  0.32785  0.01339  0.91239  1.0000
  H   H105      1.0  0.05791  0.20607  0.78257  1.0000
  S   S41       1.0  0.03821  0.18366  0.75045  1.0000
  H   H106      1.0  0.04605  0.04741  0.69125  1.0000
  S   S42       1.0  0.38651  0.16647  0.97987  1.0000
  C   C100      1.0  0.19784  0.03994  0.55649  1.0000
  H   H107      1.0  0.26748  0.05513  0.56716  1.0000
  H   H108      1.0  0.01983  0.22617  0.92040  1.0000
  C   C101      1.0  0.45101  0.24540  0.96752  1.0000
  H   H109      1.0  0.42987  0.19292  0.66250  1.0000
  C   C102      1.0  0.29674  0.09194  0.52337  1.0000
  S   S43       1.0  0.30857  0.21862  0.52794  1.0000
  H   H110      1.0  0.02053  0.08113  0.68945  1.0000
  H   H111      1.0  0.42404  0.12736  0.62279  1.0000
  H   H112      1.0  0.09558  0.21461  0.54906  1.0000
  C   C103      1.0  0.42254  0.22617  0.95240  1.0000
  H   H113      1.0  0.45517  0.16180  0.66809  1.0000
  C   C104      1.0  0.31519  0.08837  0.93856  1.0000
  C   C105      1.0  0.30422  0.07188  0.93019  1.0000
  C   C106      1.0  0.31298  0.06070  0.91244  1.0000
  C   C107      1.0  0.33265  0.06621  0.90262  1.0000
  C   C108      1.0  0.34337  0.08303  0.91065  1.0000
  C   C109      1.0  0.33479  0.09396  0.92864  1.0000
  H   H114      1.0  0.28900  0.06752  0.93773  1.0000
  H   H115      1.0  0.30443  0.04796  0.90631  1.0000
  H   H116      1.0  0.35855  0.08749  0.90310  1.0000
  H   H117      1.0  0.34334  0.10667  0.93485  1.0000
  C   C110      1.0  0.42638  0.18154  0.98497  1.0000
  C   C111      1.0  0.41568  0.24246  0.98576  1.0000
  H   H118      1.0  0.43055  0.17523  0.96941  1.0000
  H   H119      1.0  0.45704  0.19548  0.98729  1.0000
  H   H120      1.0  0.02210  0.08164  0.74547  1.0000
  C   C112      1.0  0.47623  0.08232  0.76389  1.0000
  H   H121      1.0  0.24461  0.03113  0.78575  1.0000
  C   C113      1.0  0.24788  0.05202  0.59655  1.0000
  H   H122      1.0  0.25626  0.06700  0.87645  1.0000
  S   S44       1.0  0.02460  0.12764  0.72773  1.0000
  H   H123      1.0  0.19948  0.04904  0.54091  1.0000
  C   C114      1.0  0.06602  0.04783  0.74034  1.0000
  Fe  Fe19      1.0  0.01789  0.22149  0.53007  1.0000
  C   C115      1.0  0.44468  0.20430  0.60693  1.0000
  C   C116      1.0  0.42747  0.21498  0.59680  1.0000
  C   C117      1.0  0.41585  0.20461  0.58200  1.0000
  C   C118      1.0  0.42133  0.18337  0.57721  1.0000
  C   C119      1.0  0.43894  0.17293  0.58689  1.0000
  C   C120      1.0  0.45056  0.18329  0.60164  1.0000
  H   H124      1.0  0.42279  0.23125  0.60071  1.0000
  H   H125      1.0  0.40230  0.21283  0.57475  1.0000
  H   H126      1.0  0.44329  0.15650  0.58330  1.0000
  H   H127      1.0  0.46367  0.17479  0.60929  1.0000
  H   H128      1.0  0.33408  0.09401  0.82951  1.0000
  H   H129      1.0  0.28469  0.09535  0.53598  1.0000
  H   H130      1.0  0.45455  0.11786  0.66566  1.0000
  C   C121      1.0  0.29404  0.06139  0.83564  1.0000
  H   H131      1.0  0.48208  0.21077  0.57720  1.0000
  N   N8        1.0  0.30865  0.07497  0.84194  1.0000
  C   C122      1.0  0.30493  0.08556  0.86052  1.0000
  C   C123      1.0  0.28596  0.08305  0.87310  1.0000
  C   C124      1.0  0.02001  0.17412  0.61633  1.0000
  H   H132      1.0  0.31692  0.09559  0.86603  1.0000
  H   H133      1.0  0.28324  0.09128  0.88797  1.0000
  C   C125      1.0  0.06787  0.25020  0.55494  1.0000
  N   N9        1.0  0.33828  0.02285  0.94193  1.0000
  H   H134      1.0  0.31187  0.12199  0.52574  1.0000
  C   C126      1.0  0.25181  0.20135  0.99607  1.0000
  H   H135      1.0  0.29715  0.05258  0.82118  1.0000
  C   C127      1.0  0.40586  0.17842  0.99465  1.0000
  H   H136      1.0  0.03853  0.23864  0.60970  1.0000
  C   C128      1.0  0.27568  0.24961  0.52897  1.0000
  H   H137      1.0  0.23800  0.04850  0.54430  1.0000
  H   H138      1.0  0.26352  0.04747  0.84283  1.0000
  N   N10       1.0  0.03217  0.06511  0.71727  1.0000
  Fe  Fe20      1.0  0.50861  0.25766  0.97931  1.0000
  C   C129      1.0  0.04698  0.05115  0.70789  1.0000
  N   N11       1.0  0.42909  0.23816  0.96831  1.0000
  H   H139      1.0  0.45962  0.24302  0.95172  1.0000
  H   H140      1.0  0.39707  0.20798  0.94159  1.0000
  S   S45       1.0  0.50646  0.22212  0.98507  1.0000
  H   H141      1.0  0.26733  0.23817  0.53933  1.0000
  H   H142      1.0  0.04470  0.23407  0.80777  1.0000
  C   C130      1.0  0.34779  0.05607  0.96724  1.0000
  C   C131      1.0  0.06401  0.04217  0.71932  1.0000
  C   C132      1.0  0.44251  0.16077  0.65712  1.0000
  H   H143      1.0  0.40108  0.19098  0.63705  1.0000
  H   H144      1.0  0.07615  0.03165  0.71164  1.0000
  C   C133      1.0  0.32883  0.04554  0.97133  1.0000
  C   C134      1.0  0.44141  0.19311  0.99505  1.0000
  S   S46       1.0  0.37462  0.21044  0.51878  1.0000
  C   C135      1.0  0.35679  0.03328  0.93764  1.0000
  N   N12       1.0  0.21492  0.04463  0.57036  1.0000
  N   N13       1.0  0.44103  0.14275  0.64589  1.0000
  S   S47       1.0  0.46877  0.01273  0.79106  1.0000
  C   C136      1.0  0.42805  0.17829  0.65429  1.0000
  C   C137      1.0  0.45662  0.12478  0.64908  1.0000
  C   C138      1.0  0.40198  0.21830  0.95368  1.0000
  C   C139      1.0  0.47990  0.10302  0.75597  1.0000
  H   H145      1.0  0.47322  0.13032  0.64677  1.0000
  C   C140      1.0  0.25165  0.05221  0.57440  1.0000
  H   H146      1.0  0.25979  0.04198  0.72085  1.0000
  C   C141      1.0  0.50097  0.10931  0.75239  1.0000
  S   S48       1.0  0.02722  0.19448  0.55380  1.0000
  H   H147      1.0  0.50369  0.12522  0.74562  1.0000
  C   C142      1.0  0.27494  0.05843  0.84786  1.0000
  H   H148      1.0  0.46002  0.07700  0.76638  1.0000
  Fe  Fe21      1.0  0.02488  0.16376  0.72451  1.0000
  C   C143      1.0  0.27091  0.06935  0.86671  1.0000
  H   H149      1.0  0.07116  0.21209  0.53535  1.0000
  C   C144      1.0  0.29677  0.07247  0.51297  1.0000
  C   C145      1.0  0.32428  0.02887  0.95843  1.0000
  H   H150      1.0  0.48807  0.25268  0.71705  1.0000
  C   C146      1.0  0.02626  0.17577  0.59435  1.0000
  C   C147      1.0  0.05086  0.06212  0.74979  1.0000
  C   C148      1.0  0.22610  0.23210  0.00060  1.0000
  H   H151      1.0  0.35111  0.06949  0.97670  1.0000
  H   H152      1.0  0.19870  0.02263  0.55331  1.0000
  C   C149      1.0  0.41186  0.17719  0.64004  1.0000
  H   H153      1.0  0.23859  0.02411  0.69502  1.0000
  C   C150      1.0  0.49355  0.06827  0.76828  1.0000
  C   C151      1.0  0.01235  0.23515  0.79782  1.0000
  C   C152      1.0  0.42511  0.14147  0.63198  1.0000
  C   C153      1.0  0.50252  0.07529  0.71090  1.0000
  H   H154      1.0  0.46659  0.11397  0.75204  1.0000
  S   S49       1.0  0.27674  0.05410  0.52101  1.0000
  C   C154      1.0  0.05761  0.22567  0.58309  1.0000
  H   H155      1.0  0.46023  0.23641  0.97987  1.0000
  H   H156      1.0  0.26081  0.05473  0.60675  1.0000
  H   H157      1.0  0.02649  0.16110  0.62628  1.0000
  H   H158      1.0  0.02928  0.24843  0.75150  1.0000
  H   H159      1.0  0.18177  0.04430  0.56394  1.0000
  H   H160      1.0  0.19552  0.04036  0.59922  1.0000
  S   S50       1.0  0.27728  0.01390  0.81296  1.0000
  S   S51       1.0  0.50002  0.17085  0.64021  1.0000
  C   C155      1.0  0.22748  0.04803  0.60550  1.0000
  H   H161      1.0  0.48437  0.24203  0.59761  1.0000
  C   C156      1.0  0.49851  0.20497  0.58123  1.0000
  H   H162      1.0  0.49394  0.06165  0.71717  1.0000
  C   C157      1.0  0.23326  0.21345  0.99004  1.0000
  H   H163      1.0  0.30924  0.02117  0.96139  1.0000
  C   C158      1.0  0.36190  0.04991  0.95032  1.0000
  C   C159      1.0  0.25946  0.02471  0.72121  1.0000
  C   C160      1.0  0.07811  0.21239  0.55125  1.0000
  C   C161      1.0  0.27080  0.01235  0.73623  1.0000
  C   C162      1.0  0.49120  0.09437  0.70463  1.0000
  H   H164      1.0  0.49081  0.05206  0.77421  1.0000
  H   H165      1.0  0.43344  0.02590  0.81947  1.0000
  Fe  Fe22      1.0  0.50138  0.16678  0.67582  1.0000
  H   H166      1.0  0.07566  0.25345  0.53935  1.0000
  H   H167      1.0  0.07974  0.04169  0.74898  1.0000
  S   S52       1.0  0.30117  0.00907  0.87037  1.0000
  C   C163      1.0  0.04700  0.24216  0.59445  1.0000
  H   H168      1.0  0.25704  0.18711  0.98770  1.0000
  H   H169      1.0  0.42130  0.25104  0.99884  1.0000
  C   C164      1.0  0.24751  0.01473  0.70680  1.0000
  H   H170      1.0  0.05251  0.06696  0.76599  1.0000
  H   H171      1.0  0.21908  0.01480  0.76308  1.0000
  C   C165      1.0  0.29671  0.24425  0.52096  1.0000
  H   H172      1.0  0.05554  0.25084  0.76042  1.0000
  C   C166      1.0  0.01283  0.24115  0.92623  1.0000
  C   C167      1.0  0.01432  0.07392  0.70495  1.0000
  S   S53       1.0  0.01348  0.25567  0.53888  1.0000
  H   H173      1.0  0.36737  0.02919  0.92393  1.0000
  H   H174      1.0  0.38468  0.23762  0.00173  1.0000
  H   H175      1.0  0.04187  0.25770  0.92029  1.0000
  H   H176      1.0  0.37257  0.21581  0.97300  1.0000
  C   C168      1.0  0.39499  0.23491  0.98751  1.0000
  H   H177      1.0  0.49725  0.19346  0.59516  1.0000
  C   C169      1.0  0.42917  0.01143  0.81236  1.0000
  H   H178      1.0  0.39841  0.01051  0.83000  1.0000
  S   S54       1.0  0.23372  0.01586  0.51182  1.0000
  Fe  Fe23      1.0  0.26918  0.02058  0.51116  1.0000
  H   H179      1.0  0.50585  0.19644  0.56725  1.0000
  H   H180      1.0  0.07799  0.45202  0.23079  1.0000
  Fe  Fe24      1.0  0.19985  0.36293  0.49578  1.0000
  S   S55       1.0  0.19376  0.39560  0.47898  1.0000
  H   H181      1.0  0.18456  0.41920  0.03003  1.0000
  S   S56       1.0  0.38164  0.50134  0.17207  1.0000
  C   C170      1.0  0.06097  0.43492  0.19824  1.0000
  S   S57       1.0  0.20546  0.32917  0.48492  1.0000
  S   S58       1.0  0.23353  0.48703  0.37244  1.0000
  C   C171      1.0  0.29992  0.50219  0.26827  1.0000
  S   S59       1.0  0.20265  0.47091  0.33534  1.0000
  N   N14       1.0  0.43732  0.49890  0.22251  1.0000
  Fe  Fe25      1.0  0.20904  0.46235  0.37000  1.0000
  S   S60       1.0  0.21346  0.42766  0.38199  1.0000
  S   S61       1.0  0.16009  0.29231  0.50682  1.0000
  C   C172      1.0  0.29973  0.50335  0.11165  1.0000
  C   C173      1.0  0.02047  0.38556  0.22195  1.0000
  Fe  Fe26      1.0  0.38279  0.46912  0.18977  1.0000
  S   S62       1.0  0.49821  0.31430  0.20733  1.0000
  S   S63       1.0  0.41015  0.44667  0.17693  1.0000
  Fe  Fe27      1.0  0.34365  0.48197  0.22007  1.0000
  H   H182      1.0  0.29973  0.46490  0.20505  1.0000
  C   C174      1.0  0.01728  0.40791  0.22317  1.0000
  H   H183      1.0  0.24263  0.47796  0.25655  1.0000
  C   C175      1.0  0.42790  0.49449  0.24410  1.0000
  S   S64       1.0  0.34724  0.46540  0.18857  1.0000
  S   S65       1.0  0.37946  0.48275  0.22240  1.0000
  C   C176      1.0  0.19766  0.41156  0.02071  1.0000
  S   S66       1.0  0.46425  0.36765  0.21868  1.0000
  H   H184      1.0  0.25174  0.37267  0.06175  1.0000
  Fe  Fe28      1.0  0.28770  0.48387  0.02888  1.0000
  H   H185      1.0  0.43959  0.49709  0.25626  1.0000
  S   S67       1.0  0.31316  0.47693  0.05342  1.0000
  Fe  Fe29      1.0  0.49521  0.35046  0.20589  1.0000
  S   S68       1.0  0.21671  0.45014  0.02182  1.0000
  C   C177      1.0  0.08912  0.49462  0.30738  1.0000
  Fe  Fe30      1.0  0.22556  0.49712  0.33857  1.0000
  Fe  Fe31      1.0  0.15665  0.30333  0.03400  1.0000
  S   S69       1.0  0.14406  0.30091  0.06886  1.0000
  S   S70       1.0  0.19257  0.29951  0.02774  1.0000
  Fe  Fe32      1.0  0.02936  0.30123  0.13533  1.0000
  S   S71       1.0  0.04543  0.30169  0.10158  1.0000
  H   H186      1.0  0.28995  0.44980  0.27695  1.0000
  H   H187      1.0  0.29934  0.43252  0.06013  1.0000
  S   S72       1.0  0.04025  0.29697  0.16902  1.0000
  H   H188      1.0  0.47107  0.28691  0.31894  1.0000
  H   H189      1.0  0.41349  0.50535  0.24700  1.0000
  Fe  Fe33      1.0  0.04463  0.48131  0.26634  1.0000
  S   S73       1.0  0.04297  0.48890  0.23106  1.0000
  S   S74       1.0  0.07716  0.46713  0.27678  1.0000
  Fe  Fe34      1.0  0.34577  0.49840  0.17316  1.0000
  C   C178      1.0  0.26716  0.44528  0.06671  1.0000
  C   C179      1.0  0.07185  0.43597  0.23504  1.0000
  H   H190      1.0  0.12117  0.45568  0.28449  1.0000
  H   H191      1.0  0.16236  0.41828  0.33433  1.0000
  C   C180      1.0  0.12465  0.49271  0.32227  1.0000
  C   C181      1.0  0.29697  0.27908  0.50218  1.0000
  H   H192      1.0  0.14480  0.45254  0.34567  1.0000
  H   H193      1.0  0.26622  0.46053  0.22863  1.0000
  C   C182      1.0  0.11656  0.30138  0.07768  1.0000
  C   C183      1.0  0.10027  0.30230  0.06329  1.0000
  C   C184      1.0  0.07864  0.30235  0.07094  1.0000
  C   C185      1.0  0.07302  0.30149  0.09302  1.0000
  C   C186      1.0  0.08932  0.30042  0.10742  1.0000
  C   C187      1.0  0.11098  0.30033  0.09976  1.0000
  H   H194      1.0  0.10431  0.30309  0.04627  1.0000
  H   H195      1.0  0.06617  0.30319  0.05965  1.0000
  H   H196      1.0  0.08526  0.29971  0.12443  1.0000
  H   H197      1.0  0.12345  0.29958  0.11104  1.0000
  C   C188      1.0  0.28241  0.42939  0.06059  1.0000
  C   C189      1.0  0.14926  0.43131  0.40395  1.0000
  H   H198      1.0  0.45870  0.34283  0.26721  1.0000
  H   H199      1.0  0.45423  0.26206  0.04680  1.0000
  H   H200      1.0  0.02690  0.37632  0.23530  1.0000
  H   H201      1.0  0.23340  0.45377  0.07093  1.0000
  H   H202      1.0  0.17121  0.40731  0.39074  1.0000
  Fe  Fe35      1.0  0.17691  0.49398  0.34853  1.0000
  C   C190      1.0  0.42527  0.42516  0.18925  1.0000
  C   C191      1.0  0.44300  0.41577  0.17766  1.0000
  C   C192      1.0  0.45530  0.39842  0.18650  1.0000
  C   C193      1.0  0.44989  0.39011  0.20706  1.0000
  C   C194      1.0  0.43228  0.39965  0.21874  1.0000
  C   C195      1.0  0.42010  0.41713  0.20997  1.0000
  H   H203      1.0  0.44714  0.42180  0.16161  1.0000
  H   H204      1.0  0.46873  0.39127  0.17728  1.0000
  H   H205      1.0  0.42788  0.39333  0.23462  1.0000
  H   H206      1.0  0.40646  0.42407  0.21906  1.0000
  C   C196      1.0  0.27066  0.49771  0.29583  1.0000
  C   C197      1.0  0.33430  0.48450  0.11284  1.0000
  C   C198      1.0  0.33225  0.47808  0.09178  1.0000
  C   C199      1.0  0.31403  0.48431  0.08046  1.0000
  C   C200      1.0  0.13590  0.44926  0.39950  1.0000
  H   H207      1.0  0.07744  0.39388  0.23045  1.0000
  H   H208      1.0  0.34859  0.47982  0.12115  1.0000
  H   H209      1.0  0.34505  0.46840  0.08412  1.0000
  H   H210      1.0  0.48449  0.35232  0.25962  1.0000
  N   N15       1.0  0.06872  0.42422  0.21587  1.0000
  H   H211      1.0  0.07010  0.37361  0.19886  1.0000
  C   C201      1.0  0.20885  0.26879  0.48991  1.0000
  S   S75       1.0  0.01596  0.46083  0.26710  1.0000
  S   S76       1.0  0.18178  0.48335  0.38266  1.0000
  C   C202      1.0  0.19663  0.38992  0.01567  1.0000
  H   H212      1.0  0.45568  0.30958  0.28967  1.0000
  H   H213      1.0  0.46208  0.29307  0.09480  1.0000
  C   C203      1.0  0.09523  0.47781  0.29403  1.0000
  C   C204      1.0  0.11622  0.46863  0.29479  1.0000
  C   C205      1.0  0.13092  0.47615  0.30864  1.0000
  C   C206      1.0  0.01595  0.37511  0.20343  1.0000
  H   H214      1.0  0.14704  0.46910  0.30875  1.0000
  C   C207      1.0  0.20002  0.40409  0.45201  1.0000
  C   C208      1.0  0.20853  0.39003  0.43663  1.0000
  C   C209      1.0  0.21286  0.39755  0.41534  1.0000
  C   C210      1.0  0.20892  0.41918  0.40924  1.0000
  C   C211      1.0  0.20045  0.43323  0.42464  1.0000
  C   C212      1.0  0.19597  0.42570  0.44586  1.0000
  H   H215      1.0  0.21169  0.37337  0.44110  1.0000
  H   H216      1.0  0.21935  0.38652  0.40355  1.0000
  H   H217      1.0  0.19727  0.44989  0.42019  1.0000
  H   H218      1.0  0.18938  0.43672  0.45761  1.0000
  H   H219      1.0  0.05660  0.39287  0.16659  1.0000
  H   H220      1.0  0.23029  0.38494  0.04689  1.0000
  H   H221      1.0  0.08370  0.42758  0.24539  1.0000
  C   C213      1.0  0.43536  0.48493  0.20665  1.0000
  H   H222      1.0  0.27544  0.27367  0.45529  1.0000
  S   S77       1.0  0.25394  0.49689  0.03532  1.0000
  H   H223      1.0  0.02111  0.41572  0.23740  1.0000
  N   N16       1.0  0.15868  0.42847  0.36643  1.0000
  H   H224      1.0  0.05643  0.43815  0.24455  1.0000
  C   C214      1.0  0.44343  0.48961  0.18580  1.0000
  C   C215      1.0  0.27568  0.40967  0.05467  1.0000
  H   H225      1.0  0.12407  0.47094  0.37462  1.0000
  S   S78       1.0  0.02236  0.34724  0.20212  1.0000
  C   C216      1.0  0.46640  0.27610  0.09575  1.0000
  N   N17       1.0  0.46554  0.26401  0.07821  1.0000
  C   C217      1.0  0.10369  0.50189  0.32149  1.0000
  H   H226      1.0  0.30312  0.48986  0.19076  1.0000
  C   C218      1.0  0.28851  0.46690  0.27866  1.0000
  H   H227      1.0  0.28083  0.47433  0.18548  1.0000
  C   C219      1.0  0.14585  0.44624  0.36196  1.0000
  C   C220      1.0  0.27300  0.47560  0.29360  1.0000
  S   S79       1.0  0.31982  0.46825  0.24578  1.0000
  H   H228      1.0  0.15124  0.42554  0.42034  1.0000
  C   C221      1.0  0.16054  0.42101  0.38711  1.0000
  H   H229      1.0  0.49790  0.27893  0.25610  1.0000
  H   H230      1.0  0.28762  0.39746  0.04973  1.0000
  H   H231      1.0  0.47114  0.28387  0.05053  1.0000
  C   C222      1.0  0.06049  0.40175  0.18021  1.0000
  C   C223      1.0  0.23929  0.42135  0.06112  1.0000
  Fe  Fe36      1.0  0.01347  0.27436  0.17539  1.0000
  C   C224      1.0  0.30191  0.48011  0.26569  1.0000
  H   H232      1.0  0.26265  0.46520  0.30316  1.0000
  H   H233      1.0  0.47652  0.32792  0.24906  1.0000
  C   C225      1.0  0.47569  0.33759  0.26353  1.0000
  N   N18       1.0  0.25434  0.40590  0.05492  1.0000
  H   H234      1.0  0.28355  0.50185  0.08215  1.0000
  H   H235      1.0  0.30538  0.29046  0.49179  1.0000
  H   H236      1.0  0.05009  0.43238  0.16645  1.0000
  S   S80       1.0  0.26351  0.30941  0.50204  1.0000
  C   C226      1.0  0.17144  0.41819  0.34904  1.0000
  N   N19       1.0  0.27755  0.48982  0.21501  1.0000
  C   C227      1.0  0.06816  0.39093  0.19834  1.0000
  H   H237      1.0  0.44371  0.28463  0.06131  1.0000
  C   C228      1.0  0.47331  0.26688  0.11504  1.0000
  C   C229      1.0  0.26520  0.47781  0.22910  1.0000
  H   H238      1.0  0.42727  0.47018  0.20994  1.0000
  C   C230      1.0  0.29091  0.47922  0.19822  1.0000
  C   C231      1.0  0.47224  0.31113  0.29328  1.0000
  C   C232      1.0  0.24545  0.44131  0.06690  1.0000
  H   H239      1.0  0.17611  0.40132  0.35349  1.0000
  H   H240      1.0  0.27218  0.46075  0.07101  1.0000
  H   H241      1.0  0.18640  0.42677  0.34550  1.0000
  C   C233      1.0  0.05689  0.42389  0.18010  1.0000
  C   C234      1.0  0.25177  0.48755  0.24485  1.0000
  C   C235      1.0  0.48079  0.29836  0.30990  1.0000
  C   C236      1.0  0.13411  0.45677  0.37837  1.0000
  H   H242      1.0  0.05721  0.45201  0.19838  1.0000
  S   S81       1.0  0.14193  0.50209  0.34111  1.0000
  H   H243      1.0  0.12719  0.45749  0.41242  1.0000
  H   H244      1.0  0.23898  0.28804  0.46556  1.0000
  H   H245      1.0  0.07305  0.50183  0.30706  1.0000
  S   S82       1.0  0.15330  0.33259  0.01219  1.0000
  C   C237      1.0  0.50767  0.27091  0.26798  1.0000
  H   H246      1.0  0.01031  0.29621  0.06846  1.0000
  H   H247      1.0  0.20991  0.27792  0.50456  1.0000
  Fe  Fe37      1.0  0.01318  0.47046  0.23255  1.0000
  H   H248      1.0  0.20215  0.27977  0.47729  1.0000
  Fe  Fe38      1.0  0.01506  0.32305  0.17736  1.0000
  H   H249      1.0  0.44147  0.47862  0.17322  1.0000
  C   C238      1.0  0.07213  0.40248  0.21618  1.0000
  H   H250      1.0  0.42289  0.47776  0.24632  1.0000
  C   C239      1.0  0.45829  0.27413  0.05822  1.0000
  H   H251      1.0  0.47433  0.27659  0.12884  1.0000
  H   H252      1.0  0.18287  0.38105  0.02118  1.0000
  H   H253      1.0  0.22233  0.41860  0.06096  1.0000
  C   C240      1.0  0.29763  0.49683  0.09062  1.0000
  C   C241      1.0  0.24779  0.38492  0.04909  1.0000
  N   N20       1.0  0.48471  0.32507  0.28145  1.0000
  C   C242      1.0  0.31813  0.49737  0.12286  1.0000
  H   H254      1.0  0.13205  0.25892  0.49920  1.0000
  H   H255      1.0  0.25599  0.38027  0.03366  1.0000
  C   C243      1.0  0.50225  0.29981  0.31423  1.0000
  S   S83       1.0  0.14944  0.28041  0.00909  1.0000
  H   H256      1.0  0.16906  0.26005  0.08944  1.0000
  Fe  Fe39      1.0  0.24490  0.47125  0.01345  1.0000
  C   C244      1.0  0.21554  0.42332  0.01395  1.0000
  C   C245      1.0  0.30731  0.25918  0.50756  1.0000
  H   H257      1.0  0.18353  0.27180  0.06682  1.0000
  C   C246      1.0  0.12197  0.27278  0.50346  1.0000
  C   C247      1.0  0.09945  0.27157  0.50419  1.0000
  C   C248      1.0  0.00943  0.42006  0.20583  1.0000
  S   S84       1.0  0.27832  0.45707  0.00903  1.0000
  C   C249      1.0  0.24375  0.27178  0.47054  1.0000
  H   H258      1.0  0.50689  0.32457  0.08037  1.0000
  C   C250      1.0  0.50584  0.32638  0.28541  1.0000
  H   H259      1.0  0.50823  0.32526  0.11996  1.0000
  C   C251      1.0  0.26443  0.26374  0.46468  1.0000
  S   S85       1.0  0.32095  0.50803  0.14837  1.0000
  N   N21       1.0  0.23006  0.25967  0.48311  1.0000
  C   C252      1.0  0.13154  0.29180  0.50797  1.0000
  S   S86       1.0  0.03312  0.32153  0.87584  1.0000
  H   H260      1.0  0.38352  0.41265  0.85497  1.0000
  Fe  Fe40      1.0  0.18582  0.48659  0.67423  1.0000
  S   S87       1.0  0.21785  0.46789  0.67200  1.0000
  S   S88       1.0  0.16231  0.47800  0.70224  1.0000
  S   S89       1.0  0.23219  0.50254  0.63408  1.0000
  H   H261      1.0  0.18440  0.37249  0.96693  1.0000
  Fe  Fe41      1.0  0.21490  0.47169  0.63613  1.0000
  S   S90       1.0  0.22534  0.45058  0.60803  1.0000
  C   C253      1.0  0.16509  0.43783  0.58805  1.0000
  S   S91       1.0  0.18196  0.48800  0.63864  1.0000
  S   S92       1.0  0.20692  0.31429  0.53610  1.0000
  C   C254      1.0  0.17734  0.33235  0.92329  1.0000
  C   C255      1.0  0.18081  0.41480  0.53493  1.0000
  Fe  Fe42      1.0  0.20140  0.34928  0.54290  1.0000
  S   S93       1.0  0.19804  0.36075  0.57704  1.0000
  C   C256      1.0  0.27497  0.50535  0.70954  1.0000
  H   H262      1.0  0.36924  0.48222  0.91345  1.0000
  S   S94       1.0  0.48363  0.40072  0.82706  1.0000
  C   C257      1.0  0.03134  0.37377  0.80851  1.0000
  S   S95       1.0  0.34042  0.47514  0.82119  1.0000
  C   C258      1.0  0.01017  0.41120  0.79153  1.0000
  H   H263      1.0  0.22948  0.46330  0.76780  1.0000
  Fe  Fe43      1.0  0.37510  0.46877  0.81104  1.0000
  S   S96       1.0  0.38802  0.43423  0.81139  1.0000
  H   H264      1.0  0.24445  0.38400  0.98761  1.0000
  S   S97       1.0  0.37254  0.48756  0.77997  1.0000
  Fe  Fe44      1.0  0.28148  0.47996  0.98043  1.0000
  S   S98       1.0  0.24732  0.49279  0.98377  1.0000
  S   S99       1.0  0.29374  0.46708  0.94823  1.0000
  H   H265      1.0  0.18357  0.46354  0.74262  1.0000
  H   H266      1.0  0.02085  0.46234  0.81910  1.0000
  S   S100      1.0  0.18343  0.30592  0.97687  1.0000
  C   C259      1.0  0.26523  0.26938  0.52334  1.0000
  H   H267      1.0  0.21053  0.45867  0.53132  1.0000
  H   H268      1.0  0.24619  0.42202  0.99655  1.0000
  Fe  Fe45      1.0  0.14830  0.30932  0.98656  1.0000
  S   S101      1.0  0.12221  0.32057  0.96388  1.0000
  Fe  Fe46      1.0  0.18850  0.32730  0.00400  1.0000
  Fe  Fe47      1.0  0.04754  0.28848  0.87210  1.0000
  H   H269      1.0  0.38580  0.45388  0.85324  1.0000
  S   S102      1.0  0.07450  0.27437  0.89238  1.0000
  S   S103      1.0  0.30898  0.48753  0.77215  1.0000
  H   H270      1.0  0.38655  0.48454  0.87688  1.0000
  S   S104      1.0  0.04882  0.29110  0.83597  1.0000
  C   C260      1.0  0.15968  0.34382  0.93256  1.0000
  Fe  Fe48      1.0  0.03431  0.49350  0.73476  1.0000
  S   S105      1.0  0.03821  0.48361  0.76943  1.0000
  S   S106      1.0  0.49704  0.33496  0.82327  1.0000
  H   H271      1.0  0.47524  0.29440  0.80711  1.0000
  S   S107      1.0  0.49578  0.27412  0.94898  1.0000
  N   N22       1.0  0.45420  0.44717  0.77778  1.0000
  C   C261      1.0  0.14369  0.36940  0.95832  1.0000
  H   H272      1.0  0.06011  0.38733  0.79456  1.0000
  H   H273      1.0  0.35070  0.44951  0.92587  1.0000
  H   H274      1.0  0.21162  0.32663  0.92304  1.0000
  C   C262      1.0  0.29760  0.49428  0.74704  1.0000
  H   H275      1.0  0.12898  0.36802  0.94945  1.0000
  C   C263      1.0  0.35887  0.45036  0.91011  1.0000
  N   N23       1.0  0.21322  0.47850  0.74177  1.0000
  C   C264      1.0  0.04315  0.43749  0.82964  1.0000
  H   H276      1.0  0.47648  0.28119  0.74223  1.0000
  Fe  Fe49      1.0  0.03359  0.26276  0.50864  1.0000
  H   H277      1.0  0.49570  0.26060  0.78593  1.0000
  C   C265      1.0  0.10943  0.30725  0.94400  1.0000
  C   C266      1.0  0.11384  0.28565  0.94002  1.0000
  C   C267      1.0  0.10312  0.27590  0.92409  1.0000
  C   C268      1.0  0.08797  0.28758  0.91190  1.0000
  C   C269      1.0  0.08377  0.30924  0.91576  1.0000
  C   C270      1.0  0.09437  0.31895  0.93175  1.0000
  H   H278      1.0  0.12542  0.27643  0.94924  1.0000
  H   H279      1.0  0.07240  0.31856  0.90638  1.0000
  H   H280      1.0  0.09085  0.33567  0.93464  1.0000
  N   N24       1.0  0.17577  0.43475  0.56689  1.0000
  C   C271      1.0  0.47022  0.45548  0.78828  1.0000
  C   C272      1.0  0.18233  0.36157  0.95433  1.0000
  C   C273      1.0  0.02521  0.25908  0.92612  1.0000
  S   S108      1.0  0.01575  0.27288  0.87429  1.0000
  C   C274      1.0  0.27267  0.48542  0.72011  1.0000
  H   H281      1.0  0.26169  0.48899  0.89661  1.0000
  C   C275      1.0  0.20037  0.35053  0.94525  1.0000
  C   C276      1.0  0.30737  0.48083  0.92673  1.0000
  H   H282      1.0  0.26206  0.47430  0.71413  1.0000
  H   H283      1.0  0.16058  0.40573  0.56226  1.0000
  C   C277      1.0  0.45655  0.40904  0.82384  1.0000
  C   C278      1.0  0.44961  0.42986  0.82935  1.0000
  C   C279      1.0  0.42871  0.43790  0.82552  1.0000
  C   C280      1.0  0.41442  0.42494  0.81658  1.0000
  C   C281      1.0  0.42110  0.40387  0.81175  1.0000
  C   C282      1.0  0.44216  0.39598  0.81516  1.0000
  H   H284      1.0  0.46064  0.43999  0.83622  1.0000
  H   H285      1.0  0.42374  0.45410  0.82941  1.0000
  H   H286      1.0  0.41006  0.39370  0.80496  1.0000
  H   H287      1.0  0.44730  0.37990  0.81093  1.0000
  H   H288      1.0  0.46303  0.42629  0.75270  1.0000
  C   C283      1.0  0.23129  0.39163  0.99685  1.0000
  C   C284      1.0  0.49339  0.27733  0.73913  1.0000
  H   H289      1.0  0.21613  0.35290  0.95085  1.0000
  H   H290      1.0  0.30319  0.45606  0.90477  1.0000
  S   S109      1.0  0.04556  0.35147  0.82020  1.0000
  N   N25       1.0  0.50173  0.27406  0.81552  1.0000
  C   C285      1.0  0.28384  0.48000  0.73873  1.0000
  H   H291      1.0  0.36023  0.40294  0.86952  1.0000
  H   H292      1.0  0.03874  0.27597  0.59430  1.0000
  H   H293      1.0  0.20255  0.42747  0.51031  1.0000
  C   C286      1.0  0.44946  0.48886  0.79138  1.0000
  H   H294      1.0  0.14379  0.34070  0.92780  1.0000
  H   H295      1.0  0.17514  0.44678  0.59832  1.0000
  C   C287      1.0  0.21818  0.42509  0.60038  1.0000
  C   C288      1.0  0.22522  0.41827  0.57995  1.0000
  C   C289      1.0  0.21892  0.39885  0.57245  1.0000
  C   C290      1.0  0.20600  0.38562  0.58559  1.0000
  C   C291      1.0  0.19938  0.39217  0.60623  1.0000
  C   C292      1.0  0.20527  0.41188  0.61355  1.0000
  H   H296      1.0  0.23530  0.42833  0.56968  1.0000
  H   H297      1.0  0.22408  0.39414  0.55650  1.0000
  H   H298      1.0  0.18950  0.38200  0.61659  1.0000
  H   H299      1.0  0.19983  0.41683  0.62935  1.0000
  C   C293      1.0  0.13410  0.48389  0.70377  1.0000
  C   C294      1.0  0.12199  0.47805  0.72256  1.0000
  C   C295      1.0  0.09957  0.48220  0.72434  1.0000
  C   C296      1.0  0.08898  0.49221  0.70727  1.0000
  H   H300      1.0  0.08565  0.32230  0.51825  1.0000
  C   C297      1.0  0.12353  0.49411  0.68682  1.0000
  C   C298      1.0  0.19497  0.42965  0.52616  1.0000
  S   S110      1.0  0.49900  0.30819  0.76828  1.0000
  H   H301      1.0  0.24576  0.36162  0.56897  1.0000
  H   H302      1.0  0.47636  0.28848  0.83537  1.0000
  C   C299      1.0  0.21355  0.37979  0.00382  1.0000
  H   H303      1.0  0.32165  0.47468  0.87364  1.0000
  H   H304      1.0  0.44165  0.41739  0.77112  1.0000
  C   C300      1.0  0.19937  0.44715  0.53789  1.0000
  C   C301      1.0  0.50845  0.28863  0.74942  1.0000
  Fe  Fe50      1.0  0.33821  0.49571  0.79072  1.0000
  H   H305      1.0  0.16232  0.42223  0.59658  1.0000
  C   C302      1.0  0.46802  0.47637  0.79540  1.0000
  H   H306      1.0  0.14951  0.44687  0.58642  1.0000
  C   C303      1.0  0.18946  0.44955  0.55831  1.0000
  H   H307      1.0  0.04149  0.42024  0.77978  1.0000
  C   C304      1.0  0.08615  0.28939  0.50958  1.0000
  C   C305      1.0  0.02754  0.40771  0.84929  1.0000
  H   H308      1.0  0.14054  0.36217  0.97463  1.0000
  C   C306      1.0  0.35825  0.43353  0.89626  1.0000
  Fe  Fe51      1.0  0.03187  0.32346  0.84007  1.0000
  S   S111      1.0  0.21380  0.35233  0.99777  1.0000
  C   C307      1.0  0.37828  0.45280  0.86926  1.0000
  H   H309      1.0  0.14649  0.38662  0.95955  1.0000
  C   C308      1.0  0.23234  0.41322  0.00192  1.0000
  H   H310      1.0  0.06123  0.40940  0.84089  1.0000
  N   N26       1.0  0.03499  0.27863  0.76438  1.0000
  H   H311      1.0  0.44747  0.50517  0.79665  1.0000
  C   C309      1.0  0.45704  0.42555  0.76972  1.0000
  C   C310      1.0  0.43593  0.45929  0.77382  1.0000
  H   H312      1.0  0.48462  0.44577  0.79162  1.0000
  H   H313      1.0  0.41899  0.49002  0.77717  1.0000
  H   H314      1.0  0.48044  0.29781  0.91235  1.0000
  N   N27       1.0  0.25980  0.30890  0.56826  1.0000
  C   C311      1.0  0.24820  0.32732  0.57310  1.0000
  C   C312      1.0  0.27823  0.30961  0.55545  1.0000
  C   C313      1.0  0.25504  0.34710  0.56508  1.0000
  H   H315      1.0  0.46863  0.41547  0.77907  1.0000
  C   C314      1.0  0.27355  0.34796  0.55166  1.0000
  C   C315      1.0  0.25190  0.28836  0.57645  1.0000
  H   H316      1.0  0.23341  0.32684  0.58303  1.0000
  C   C316      1.0  0.32852  0.50188  0.89135  1.0000
  C   C317      1.0  0.28526  0.32910  0.54679  1.0000
  H   H317      1.0  0.28740  0.29504  0.55140  1.0000
  H   H318      1.0  0.01637  0.32920  0.79482  1.0000
  H   H319      1.0  0.23678  0.28532  0.56891  1.0000
  H   H320      1.0  0.26362  0.27485  0.57292  1.0000
  H   H321      1.0  0.24881  0.28854  0.59408  1.0000
  C   C318      1.0  0.04327  0.31086  0.78086  1.0000
  H   H322      1.0  0.17505  0.32053  0.91162  1.0000
  N   N28       1.0  0.36804  0.43485  0.87618  1.0000
  S   S112      1.0  0.17423  0.35393  0.52095  1.0000
  H   H323      1.0  0.24897  0.27305  0.52930  1.0000
  H   H324      1.0  0.20200  0.45647  0.72070  1.0000
  C   C319      1.0  0.21049  0.49667  0.72920  1.0000
  H   H325      1.0  0.17740  0.40114  0.52588  1.0000
  H   H326      1.0  0.19931  0.49729  0.71659  1.0000
  H   H327      1.0  0.09047  0.47735  0.73876  1.0000
  H   H328      1.0  0.42313  0.45270  0.76562  1.0000
  C   C320      1.0  0.36929  0.46873  0.90317  1.0000
  Fe  Fe52      1.0  0.35122  0.50398  0.83654  1.0000
  C   C321      1.0  0.04289  0.38946  0.79683  1.0000
  H   H329      1.0  0.01924  0.31210  0.93053  1.0000
  C   C322      1.0  0.32015  0.48195  0.88903  1.0000
  H   H330      1.0  0.48061  0.48281  0.80399  1.0000
  C   C323      1.0  0.03238  0.40813  0.78842  1.0000
  H   H331      1.0  0.12525  0.32436  0.51681  1.0000
  C   C324      1.0  0.47935  0.28168  0.81933  1.0000
  C   C325      1.0  0.01365  0.28272  0.76941  1.0000
  H   H332      1.0  0.31424  0.50803  0.94441  1.0000
  C   C326      1.0  0.04555  0.41756  0.84025  1.0000
  H   H333      1.0  0.05772  0.28325  0.55887  1.0000
  H   H334      1.0  0.29939  0.32946  0.53594  1.0000
  C   C327      1.0  0.36714  0.41735  0.86155  1.0000
  H   H335      1.0  0.35727  0.42262  0.84790  1.0000
  N   N29       1.0  0.16233  0.35822  0.94787  1.0000
  H   H336      1.0  0.28161  0.46470  0.74694  1.0000
  H   H337      1.0  0.12996  0.47005  0.73573  1.0000
  S   S113      1.0  0.38628  0.49595  0.82887  1.0000
  C   C328      1.0  0.02934  0.29700  0.93168  1.0000
  C   C329      1.0  0.37898  0.47004  0.88259  1.0000
  C   C330      1.0  0.43336  0.48032  0.78048  1.0000
  C   C331      1.0  0.23896  0.49541  0.76153  1.0000
  H   H338      1.0  0.25421  0.50214  0.93300  1.0000
  C   C332      1.0  0.04975  0.29242  0.76995  1.0000
  C   C333      1.0  0.49991  0.26109  0.72480  1.0000
  Fe  Fe53      1.0  0.50260  0.37013  0.81762  1.0000
  H   H339      1.0  0.25063  0.49451  0.77375  1.0000
  C   C334      1.0  0.49766  0.29586  0.90988  1.0000
  H   H340      1.0  0.19324  0.46299  0.56751  1.0000
  H   H341      1.0  0.10659  0.25916  0.92120  1.0000
  Fe  Fe54      1.0  0.18165  0.31994  0.51184  1.0000
  H   H342      1.0  0.20647  0.44539  0.74700  1.0000
  H   H343      1.0  0.05498  0.32169  0.78552  1.0000
  Fe  Fe55      1.0  0.01587  0.27819  0.83832  1.0000
  C   C335      1.0  0.31581  0.50072  0.92905  1.0000
  H   H344      1.0  0.27865  0.36317  0.54483  1.0000
  C   C336      1.0  0.02265  0.44721  0.82804  1.0000
  C   C337      1.0  0.22713  0.47772  0.75789  1.0000
  C   C338      1.0  0.30969  0.47145  0.90669  1.0000
  C   C339      1.0  0.19782  0.33577  0.92970  1.0000
  H   H345      1.0  0.34970  0.41953  0.90165  1.0000
  C   C340      1.0  0.17127  0.41759  0.55543  1.0000
  C   C341      1.0  0.20077  0.46001  0.73799  1.0000
  S   S114      1.0  0.06073  0.49768  0.70830  1.0000
  S   S115      1.0  0.22658  0.35970  0.51843  1.0000
  H   H346      1.0  0.05698  0.44503  0.82205  1.0000
  Fe  Fe56      1.0  0.18528  0.27849  0.00130  1.0000
  C   C342      1.0  0.05772  0.26715  0.56599  1.0000
  C   C343      1.0  0.50781  0.30447  0.89100  1.0000
  H   H347      1.0  0.06667  0.28912  0.76610  1.0000
  H   H348      1.0  0.02918  0.39185  0.85688  1.0000
  C   C344      1.0  0.27584  0.28426  0.50986  1.0000
  H   H349      1.0  0.45101  0.26273  0.97052  1.0000
  C   C345      1.0  0.02156  0.31509  0.78612  1.0000
  N   N30       1.0  0.01627  0.27827  0.93257  1.0000
  Fe  Fe57      1.0  0.23018  0.32503  0.50979  1.0000
  H   H350      1.0  0.04034  0.29695  0.91717  1.0000
  C   C346      1.0  0.04224  0.25977  0.75240  1.0000
  Fe  Fe58      1.0  0.23245  0.50004  0.67008  1.0000
  C   C347      1.0  0.10113  0.49819  0.68858  1.0000
  H   H351      1.0  0.03901  0.29693  0.94598  1.0000
  C   C348      1.0  0.04708  0.26304  0.58580  1.0000
  H   H352      1.0  0.46852  0.26838  0.81818  1.0000
  C   C349      1.0  0.11823  0.30961  0.51331  1.0000
  H   H353      1.0  0.04776  0.26461  0.73585  1.0000
  S   S116      1.0  0.05759  0.28885  0.51126  1.0000
  H   H354      1.0  0.09313  0.50592  0.67526  1.0000
  H   H355      1.0  0.49841  0.31300  0.87913  1.0000
  H   H356      1.0  0.13256  0.49872  0.67227  1.0000
  C   C350      1.0  0.09572  0.30838  0.51411  1.0000
  C   C351      1.0  0.26631  0.50477  0.90029  1.0000
  S   S117      1.0  0.29391  0.50541  0.99972  1.0000
  S   S118      1.0  0.48678  0.26483  0.00808  1.0000
  C   C352      1.0  0.50751  0.26329  0.79740  1.0000
  H   H357      1.0  0.50611  0.27087  0.60884  1.0000
  C   C353      1.0  0.00907  0.37660  0.81118  1.0000
  Fe  Fe59      1.0  0.21252  0.63335  0.47558  1.0000
  S   S119      1.0  0.21483  0.62100  0.44167  1.0000
  S   S120      1.0  0.20172  0.66747  0.48218  1.0000
  H   H358      1.0  0.01052  0.71695  0.08600  1.0000
  S   S121      1.0  0.20180  0.52592  0.41481  1.0000
  H   H359      1.0  0.44819  0.52899  0.23058  1.0000
  Fe  Fe60      1.0  0.49015  0.62394  0.19414  1.0000
  S   S122      1.0  0.46518  0.60465  0.17904  1.0000
  H   H360      1.0  0.14439  0.67706  0.48302  1.0000
  H   H361      1.0  0.04215  0.61081  0.24126  1.0000
  C   C354      1.0  0.25742  0.58206  0.45527  1.0000
  S   S123      1.0  0.49041  0.65993  0.18983  1.0000
  H   H362      1.0  0.24798  0.52405  0.44164  1.0000
  H   H363      1.0  0.29419  0.56483  0.09388  1.0000
  S   S124      1.0  0.39582  0.54050  0.21907  1.0000
  H   H364      1.0  0.09861  0.51473  0.33189  1.0000
  H   H365      1.0  0.49447  0.64250  0.14509  1.0000
  C   C355      1.0  0.26267  0.57534  0.43455  1.0000
  H   H366      1.0  0.22780  0.58484  0.49196  1.0000
  N   N31       1.0  0.49263  0.63807  0.11199  1.0000
  Fe  Fe61      1.0  0.03491  0.67919  0.13478  1.0000
  S   S125      1.0  0.06176  0.66664  0.11144  1.0000
  H   H367      1.0  0.05375  0.64669  0.22805  1.0000
  S   S126      1.0  0.03243  0.67170  0.17039  1.0000
  C   C356      1.0  0.02045  0.60502  0.19076  1.0000
  S   S127      1.0  0.18367  0.68825  0.02676  1.0000
  C   C357      1.0  0.11331  0.69400  0.48407  1.0000
  H   H368      1.0  0.46971  0.63202  0.13818  1.0000
  H   H369      1.0  0.23935  0.53658  0.47819  1.0000
  S   S128      1.0  0.12790  0.71353  0.04679  1.0000
  Fe  Fe62      1.0  0.20557  0.50892  0.38312  1.0000
  Fe  Fe63      1.0  0.02174  0.51757  0.24016  1.0000
  H   H370      1.0  0.20194  0.71652  0.49353  1.0000
  H   H371      1.0  0.13956  0.73894  0.47473  1.0000
  H   H372      1.0  0.46306  0.53786  0.19412  1.0000
  S   S129      1.0  0.07466  0.71679  0.48473  1.0000
  C   C358      1.0  0.01189  0.71413  0.42173  1.0000
  Fe  Fe64      1.0  0.14969  0.69900  0.02007  1.0000
  C   C359      1.0  0.45569  0.52271  0.19754  1.0000
  H   H373      1.0  0.41563  0.74318  0.44192  1.0000
  C   C360      1.0  0.07739  0.68118  0.09186  1.0000
  C   C361      1.0  0.08275  0.70216  0.09479  1.0000
  C   C362      1.0  0.09768  0.71207  0.08039  1.0000
  C   C363      1.0  0.10734  0.70120  0.06288  1.0000
  C   C364      1.0  0.10119  0.68057  0.05938  1.0000
  C   C365      1.0  0.08632  0.67063  0.07383  1.0000
  H   H374      1.0  0.07609  0.71047  0.10861  1.0000
  H   H375      1.0  0.10224  0.72807  0.08317  1.0000
  H   H376      1.0  0.10831  0.67210  0.04586  1.0000
  H   H377      1.0  0.08222  0.65443  0.07137  1.0000
  H   H378      1.0  0.32225  0.75162  0.44344  1.0000
  H   H379      1.0  0.15625  0.52223  0.40470  1.0000
  H   H380      1.0  0.17189  0.61279  0.39712  1.0000
  N   N32       1.0  0.35423  0.74588  0.45339  1.0000
  Fe  Fe65      1.0  0.50434  0.72510  0.03439  1.0000
  H   H381      1.0  0.03214  0.69833  0.09151  1.0000
  C   C366      1.0  0.26308  0.72589  0.03138  1.0000
  H   H382      1.0  0.34323  0.53086  0.10233  1.0000
  C   C367      1.0  0.26376  0.52184  0.23175  1.0000
  S   S130      1.0  0.24993  0.50991  0.31274  1.0000
  C   C368      1.0  0.02090  0.70375  0.07908  1.0000
  H   H383      1.0  0.49707  0.65786  0.29234  1.0000
  C   C369      1.0  0.03688  0.64385  0.23085  1.0000
  H   H384      1.0  0.17444  0.59565  0.36189  1.0000
  C   C370      1.0  0.24351  0.57578  0.49213  1.0000
  C   C371      1.0  0.02139  0.66013  0.22653  1.0000
  C   C372      1.0  0.16851  0.58692  0.37614  1.0000
  H   H385      1.0  0.24982  0.71534  0.03210  1.0000
  Fe  Fe66      1.0  0.37686  0.51483  0.20472  1.0000
  H   H386      1.0  0.13163  0.53205  0.39282  1.0000
  H   H387      1.0  0.03668  0.66055  0.47239  1.0000
  C   C373      1.0  0.44597  0.58691  0.19057  1.0000
  C   C374      1.0  0.44175  0.58449  0.21267  1.0000
  C   C375      1.0  0.42607  0.57054  0.22100  1.0000
  C   C376      1.0  0.41463  0.55857  0.20743  1.0000
  C   C377      1.0  0.41901  0.56080  0.18533  1.0000
  C   C378      1.0  0.43449  0.57498  0.17698  1.0000
  H   H388      1.0  0.45032  0.59362  0.22334  1.0000
  H   H389      1.0  0.42278  0.56903  0.23811  1.0000
  H   H390      1.0  0.41040  0.55170  0.17468  1.0000
  H   H391      1.0  0.43757  0.57674  0.15986  1.0000
  H   H392      1.0  0.47552  0.70096  0.10951  1.0000
  C   C379      1.0  0.14935  0.53254  0.39168  1.0000
  C   C380      1.0  0.15955  0.58509  0.41409  1.0000
  C   C381      1.0  0.49254  0.69688  0.10790  1.0000
  H   H393      1.0  0.14882  0.55490  0.42672  1.0000
  S   S131      1.0  0.24564  0.70163  0.49906  1.0000
  C   C382      1.0  0.30047  0.55558  0.08048  1.0000
  H   H394      1.0  0.49354  0.61504  0.13795  1.0000
  S   S132      1.0  0.19912  0.52097  0.34975  1.0000
  C   C383      1.0  0.33214  0.54518  0.10047  1.0000
  C   C384      1.0  0.38918  0.73145  0.46190  1.0000
  C   C385      1.0  0.36693  0.73268  0.46583  1.0000
  C   C386      1.0  0.25109  0.50970  0.24617  1.0000
  C   C387      1.0  0.26183  0.74417  0.04337  1.0000
  C   C388      1.0  0.47729  0.64757  0.09954  1.0000
  H   H395      1.0  0.47693  0.70595  0.28484  1.0000
  H   H396      1.0  0.50011  0.63783  0.27314  1.0000
  C   C389      1.0  0.28857  0.55533  0.06226  1.0000
  N   N33       1.0  0.15572  0.55455  0.39303  1.0000
  C   C390      1.0  0.21058  0.59467  0.43430  1.0000
  C   C391      1.0  0.21586  0.58886  0.41313  1.0000
  C   C392      1.0  0.21318  0.56793  0.40674  1.0000
  C   C393      1.0  0.20514  0.55262  0.42153  1.0000
  C   C394      1.0  0.19962  0.55852  0.44261  1.0000
  C   C395      1.0  0.20232  0.57941  0.44899  1.0000
  H   H397      1.0  0.22225  0.60058  0.40165  1.0000
  H   H398      1.0  0.21747  0.56361  0.39047  1.0000
  H   H399      1.0  0.19331  0.54680  0.45414  1.0000
  H   H400      1.0  0.19798  0.58371  0.46525  1.0000
  N   N34       1.0  0.13897  0.63794  0.07148  1.0000
  C   C396      1.0  0.15164  0.65465  0.06613  1.0000
  C   C397      1.0  0.12616  0.63795  0.08994  1.0000
  C   C398      1.0  0.15120  0.67232  0.07903  1.0000
  C   C399      1.0  0.12537  0.65534  0.10326  1.0000
  C   C400      1.0  0.13785  0.67270  0.09762  1.0000
  C   C401      1.0  0.13951  0.61992  0.05731  1.0000
  H   H401      1.0  0.16179  0.65455  0.05153  1.0000
  H   H402      1.0  0.11593  0.62483  0.09416  1.0000
  H   H403      1.0  0.16043  0.68604  0.07411  1.0000
  H   H404      1.0  0.11437  0.65580  0.11731  1.0000
  H   H405      1.0  0.13662  0.68674  0.10721  1.0000
  H   H406      1.0  0.13809  0.62585  0.04042  1.0000
  H   H407      1.0  0.15503  0.61056  0.05825  1.0000
  H   H408      1.0  0.12621  0.60917  0.06132  1.0000
  H   H409      1.0  0.15880  0.59231  0.42956  1.0000
  H   H410      1.0  0.47061  0.66294  0.06889  1.0000
  C   C402      1.0  0.50366  0.65195  0.07026  1.0000
  C   C403      1.0  0.25129  0.54021  0.44554  1.0000
  S   S133      1.0  0.01875  0.73466  0.47470  1.0000
  H   H411      1.0  0.26377  0.53902  0.23303  1.0000
  H   H412      1.0  0.28737  0.54308  0.03080  1.0000
  H   H413      1.0  0.03032  0.70992  0.06480  1.0000
  H   H414      1.0  0.25561  0.58646  0.49744  1.0000
  H   H415      1.0  0.06032  0.67550  0.46756  1.0000
  C   C404      1.0  0.38532  0.75724  0.43258  1.0000
  H   H416      1.0  0.35990  0.72318  0.47904  1.0000
  N   N35       1.0  0.03241  0.68887  0.45271  1.0000
  C   C405      1.0  0.50160  0.72595  0.29416  1.0000
  C   C406      1.0  0.29650  0.54346  0.04498  1.0000
  H   H417      1.0  0.49189  0.73267  0.30730  1.0000
  C   C407      1.0  0.02457  0.74690  0.23875  1.0000
  C   C408      1.0  0.24633  0.54744  0.46613  1.0000
  S   S134      1.0  0.02420  0.72025  0.20468  1.0000
  C   C409      1.0  0.15399  0.56395  0.41239  1.0000
  H   H418      1.0  0.49393  0.68356  0.14024  1.0000
  C   C410      1.0  0.48257  0.65466  0.07850  1.0000
  C   C411      1.0  0.39838  0.74373  0.44506  1.0000
  S   S135      1.0  0.18368  0.62596  0.02135  1.0000
  H   H419      1.0  0.50806  0.65803  0.05420  1.0000
  C   C412      1.0  0.13089  0.68277  0.49313  1.0000
  Fe  Fe67      1.0  0.01576  0.70449  0.17371  1.0000
  H   H420      1.0  0.26829  0.58664  0.42217  1.0000
  H   H421      1.0  0.26285  0.54901  0.41351  1.0000
  H   H422      1.0  0.04794  0.58468  0.19884  1.0000
  C   C413      1.0  0.49314  0.71076  0.28133  1.0000
  C   C414      1.0  0.21749  0.56858  0.01827  1.0000
  S   S136      1.0  0.24291  0.63546  0.49270  1.0000
  C   C415      1.0  0.27692  0.51158  0.21610  1.0000
  H   H423      1.0  0.21592  0.55270  0.02541  1.0000
  C   C416      1.0  0.01871  0.57076  0.21104  1.0000
  C   C417      1.0  0.17183  0.72818  0.48174  1.0000
  S   S137      1.0  0.49404  0.68177  0.24921  1.0000
  H   H424      1.0  0.32148  0.54543  0.11530  1.0000
  C   C418      1.0  0.25957  0.55426  0.42969  1.0000
  C   C419      1.0  0.15030  0.73345  0.48704  1.0000
  C   C420      1.0  0.20352  0.60578  0.01400  1.0000
  H   H425      1.0  0.02987  0.61716  0.18257  1.0000
  N   N36       1.0  0.24962  0.56809  0.47080  1.0000
  H   H426      1.0  0.02656  0.67565  0.22059  1.0000
  C   C421      1.0  0.16267  0.56579  0.37499  1.0000
  H   H427      1.0  0.11339  0.69682  0.46692  1.0000
  H   H428      1.0  0.28291  0.52799  0.28486  1.0000
  H   H429      1.0  0.45947  0.51271  0.16504  1.0000
  H   H430      1.0  0.27326  0.56423  0.06146  1.0000
  H   H431      1.0  0.24761  0.74787  0.05351  1.0000
  N   N37       1.0  0.29577  0.75439  0.02734  1.0000
  H   H432      1.0  0.16392  0.55837  0.35961  1.0000
  H   H433      1.0  0.34271  0.52337  0.06533  1.0000
  Fe  Fe68      1.0  0.04340  0.73181  0.49946  1.0000
  C   C422      1.0  0.16693  0.59659  0.39585  1.0000
  H   H434      1.0  0.28689  0.52109  0.20507  1.0000
  C   C423      1.0  0.01811  0.74492  0.21776  1.0000
  C   C424      1.0  0.01094  0.68733  0.45051  1.0000
  C   C425      1.0  0.48728  0.63163  0.13432  1.0000
  H   H435      1.0  0.31012  0.51260  0.25856  1.0000
  H   H436      1.0  0.32514  0.73186  0.46471  1.0000
  H   H437      1.0  0.24225  0.56252  0.50442  1.0000
  H   H438      1.0  0.18832  0.58148  0.03398  1.0000
  C   C426      1.0  0.03381  0.71557  0.42401  1.0000
  C   C427      1.0  0.44733  0.51758  0.21819  1.0000
  C   C428      1.0  0.03065  0.58661  0.20004  1.0000
  C   C429      1.0  0.04386  0.70282  0.43976  1.0000
  S   S138      1.0  0.02496  0.51088  0.27562  1.0000
  S   S139      1.0  0.03267  0.54872  0.22363  1.0000
  S   S140      1.0  0.49009  0.71429  0.06722  1.0000
  H   H439      1.0  0.46098  0.65025  0.10600  1.0000
  C   C430      1.0  0.28080  0.72201  0.01731  1.0000
  Fe  Fe69      1.0  0.23089  0.66861  0.50166  1.0000
  H   H440      1.0  0.25896  0.59872  0.45869  1.0000
  H   H441      1.0  0.06066  0.70481  0.44218  1.0000
  H   H442      1.0  0.04275  0.72710  0.41421  1.0000
  C   C431      1.0  0.09579  0.70187  0.49703  1.0000
  H   H443      1.0  0.34162  0.55968  0.09937  1.0000
  C   C432      1.0  0.31616  0.53204  0.04608  1.0000
  H   H444      1.0  0.39920  0.72126  0.47205  1.0000
  H   H445      1.0  0.15529  0.52556  0.37634  1.0000
  H   H446      1.0  0.32230  0.52235  0.03294  1.0000
  C   C433      1.0  0.04261  0.67692  0.47032  1.0000
  C   C434      1.0  0.20184  0.58497  0.02311  1.0000
  S   S141      1.0  0.19342  0.61964  0.50393  1.0000
  S   S142      1.0  0.34073  0.51484  0.20467  1.0000
  N   N38       1.0  0.31967  0.54420  0.08147  1.0000
  H   H447      1.0  0.50757  0.63136  0.30027  1.0000
  H   H448      1.0  0.28714  0.51336  0.11920  1.0000
  S   S143      1.0  0.02096  0.71275  0.13820  1.0000
  C   C435      1.0  0.32766  0.53268  0.06450  1.0000
  C   C436      1.0  0.18523  0.72061  0.49780  1.0000
  C   C437      1.0  0.50751  0.64389  0.28724  1.0000
  H   H449      1.0  0.03264  0.73340  0.24671  1.0000
  H   H450      1.0  0.17810  0.72972  0.46528  1.0000
  S   S144      1.0  0.50250  0.62392  0.22717  1.0000
  H   H451      1.0  0.24142  0.51732  0.25893  1.0000
  C   C438      1.0  0.50291  0.68697  0.12532  1.0000
  C   C439      1.0  0.50399  0.70166  0.08847  1.0000
  C   C440      1.0  0.03039  0.62382  0.23838  1.0000
  H   H452      1.0  0.03896  0.68541  0.48542  1.0000
  C   C441      1.0  0.27332  0.73443  0.50015  1.0000
  Fe  Fe70      1.0  0.50562  0.65962  0.22188  1.0000
  H   H453      1.0  0.25981  0.74453  0.49521  1.0000
  C   C442      1.0  0.27097  0.71227  0.50337  1.0000
  C   C443      1.0  0.29293  0.74372  0.50335  1.0000
  C   C444      1.0  0.28444  0.51088  0.28325  1.0000
  C   C445      1.0  0.50542  0.70165  0.26415  1.0000
  C   C446      1.0  0.29707  0.73656  0.01542  1.0000
  H   H454      1.0  0.49289  0.74457  0.10623  1.0000
  C   C447      1.0  0.33100  0.74734  0.45805  1.0000
  H   H455      1.0  0.03181  0.66200  0.08084  1.0000
  C   C448      1.0  0.14244  0.73111  0.50823  1.0000
  C   C449      1.0  0.45356  0.50868  0.18123  1.0000
  C   C450      1.0  0.50671  0.74711  0.11607  1.0000
  C   C451      1.0  0.01600  0.66561  0.07504  1.0000
  H   H456      1.0  0.50715  0.73394  0.12851  1.0000
  H   H457      1.0  0.00988  0.63238  0.07200  1.0000
  C   C452      1.0  0.31059  0.73095  0.50982  1.0000
  S   S145      1.0  0.21352  0.65655  0.53193  1.0000
  Fe  Fe71      1.0  0.38151  0.51560  0.79863  1.0000
  C   C453      1.0  0.26211  0.51232  0.92086  1.0000
  C   C454      1.0  0.49117  0.72373  0.88054  1.0000
  H   H458      1.0  0.25053  0.59731  0.98465  1.0000
  H   H459      1.0  0.22267  0.62593  0.99286  1.0000
  S   S146      1.0  0.23774  0.59566  0.54163  1.0000
  C   C455      1.0  0.45171  0.74801  0.64112  1.0000
  S   S147      1.0  0.18797  0.54869  0.62018  1.0000
  C   C456      1.0  0.28431  0.53704  0.89021  1.0000
  S   S148      1.0  0.40894  0.53581  0.78498  1.0000
  C   C457      1.0  0.06579  0.73080  0.87394  1.0000
  S   S149      1.0  0.34685  0.52544  0.80703  1.0000
  S   S150      1.0  0.48643  0.66121  0.82429  1.0000
  Fe  Fe72      1.0  0.48566  0.62554  0.82153  1.0000
  S   S151      1.0  0.45500  0.60824  0.83128  1.0000
  Fe  Fe73      1.0  0.15547  0.68838  0.97285  1.0000
  S   S152      1.0  0.14291  0.68979  0.93902  1.0000
  S   S153      1.0  0.18985  0.67644  0.97647  1.0000
  Fe  Fe74      1.0  0.03554  0.67759  0.87252  1.0000
  H   H460      1.0  0.50069  0.65394  0.93762  1.0000
  S   S154      1.0  0.05110  0.67360  0.90477  1.0000
  H   H461      1.0  0.18467  0.69557  0.54351  1.0000
  H   H462      1.0  0.04567  0.75371  0.73267  1.0000
  C   C458      1.0  0.47647  0.73705  0.66718  1.0000
  S   S155      1.0  0.01984  0.71953  0.52511  1.0000
  S   S156      1.0  0.04885  0.67987  0.83830  1.0000
  C   C459      1.0  0.13110  0.67927  0.51530  1.0000
  S   S157      1.0  0.49270  0.68909  0.76967  1.0000
  H   H463      1.0  0.46080  0.74036  0.60851  1.0000
  Fe  Fe75      1.0  0.02443  0.70732  0.83371  1.0000
  N   N39       1.0  0.17730  0.71810  0.51851  1.0000
  C   C460      1.0  0.06855  0.53329  0.75058  1.0000
  S   S158      1.0  0.15970  0.71852  0.99028  1.0000
  H   H464      1.0  0.31077  0.52519  0.74223  1.0000
  C   C461      1.0  0.23663  0.51383  0.74843  1.0000
  C   C462      1.0  0.02381  0.57141  0.82375  1.0000
  C   C463      1.0  0.09587  0.69814  0.51917  1.0000
  C   C464      1.0  0.07094  0.54075  0.77095  1.0000
  C   C465      1.0  0.02446  0.59384  0.82411  1.0000
  S   S159      1.0  0.48474  0.72368  0.00555  1.0000
  C   C466      1.0  0.07328  0.72923  0.91134  1.0000
  N   N40       1.0  0.45744  0.74699  0.66189  1.0000
  Fe  Fe76      1.0  0.25933  0.51714  0.00500  1.0000
  H   H465      1.0  0.47815  0.72936  0.75067  1.0000
  N   N41       1.0  0.26852  0.53193  0.92582  1.0000
  H   H466      1.0  0.01689  0.56614  0.77088  1.0000
  C   C467      1.0  0.11773  0.68338  0.92981  1.0000
  C   C468      1.0  0.10021  0.67895  0.94386  1.0000
  C   C469      1.0  0.08012  0.67560  0.93582  1.0000
  C   C470      1.0  0.07720  0.67672  0.91369  1.0000
  C   C471      1.0  0.09476  0.68097  0.89960  1.0000
  C   C472      1.0  0.11489  0.68425  0.90765  1.0000
  H   H467      1.0  0.10209  0.67831  0.96092  1.0000
  H   H468      1.0  0.06667  0.67229  0.94686  1.0000
  H   H469      1.0  0.09280  0.68183  0.88256  1.0000
  H   H470      1.0  0.12832  0.68768  0.89663  1.0000
  Fe  Fe77      1.0  0.50521  0.66186  0.79240  1.0000
  C   C473      1.0  0.01297  0.75705  0.67960  1.0000
  H   H471      1.0  0.10407  0.72689  0.93790  1.0000
  C   C474      1.0  0.10885  0.73635  0.92313  1.0000
  H   H472      1.0  0.48131  0.73667  0.68350  1.0000
  Fe  Fe78      1.0  0.17795  0.65999  0.00713  1.0000
  H   H473      1.0  0.06786  0.72608  0.92787  1.0000
  C   C475      1.0  0.48456  0.72859  0.63033  1.0000
  C   C476      1.0  0.42271  0.55455  0.79893  1.0000
  C   C477      1.0  0.44070  0.56403  0.78877  1.0000
  C   C478      1.0  0.45147  0.57973  0.79884  1.0000
  C   C479      1.0  0.44418  0.58634  0.81914  1.0000
  C   C480      1.0  0.42649  0.57650  0.82948  1.0000
  C   C481      1.0  0.41585  0.56068  0.81950  1.0000
  H   H474      1.0  0.44623  0.55936  0.77290  1.0000
  H   H475      1.0  0.46505  0.58711  0.79067  1.0000
  H   H476      1.0  0.42070  0.58145  0.84519  1.0000
  H   H477      1.0  0.40207  0.55354  0.82757  1.0000
  H   H478      1.0  0.06074  0.58113  0.72405  1.0000
  S   S160      1.0  0.34124  0.51612  0.86963  1.0000
  Fe  Fe79      1.0  0.19336  0.70572  0.99576  1.0000
  C   C482      1.0  0.06376  0.56970  0.73715  1.0000
  H   H479      1.0  0.08249  0.70405  0.52932  1.0000
  C   C483      1.0  0.50351  0.70491  0.74754  1.0000
  H   H480      1.0  0.48092  0.73405  0.87005  1.0000
  C   C484      1.0  0.06656  0.57665  0.75768  1.0000
  H   H481      1.0  0.50619  0.65023  0.89828  1.0000
  H   H482      1.0  0.14979  0.72053  0.54012  1.0000
  S   S161      1.0  0.15345  0.66669  0.52774  1.0000
  C   C485      1.0  0.27748  0.51725  0.88489  1.0000
  C   C486      1.0  0.01983  0.59613  0.78607  1.0000
  S   S162      1.0  0.22492  0.72329  0.98931  1.0000
  C   C487      1.0  0.02271  0.60630  0.80519  1.0000
  C   C488      1.0  0.22288  0.58184  0.56228  1.0000
  C   C489      1.0  0.23171  0.56271  0.57138  1.0000
  C   C490      1.0  0.22089  0.55193  0.58866  1.0000
  C   C491      1.0  0.20121  0.56033  0.59712  1.0000
  C   C492      1.0  0.19226  0.57928  0.58778  1.0000
  C   C493      1.0  0.20298  0.58995  0.57041  1.0000
  H   H483      1.0  0.24708  0.55629  0.56516  1.0000
  H   H484      1.0  0.22793  0.53735  0.59566  1.0000
  H   H485      1.0  0.17702  0.58587  0.59418  1.0000
  H   H486      1.0  0.19599  0.60465  0.56356  1.0000
  H   H487      1.0  0.29116  0.53485  0.70951  1.0000
  C   C494      1.0  0.02122  0.56122  0.80456  1.0000
  C   C495      1.0  0.47576  0.73686  0.94572  1.0000
  C   C496      1.0  0.08696  0.73577  0.86882  1.0000
  N   N42       1.0  0.48588  0.72809  0.90310  1.0000
  H   H488      1.0  0.45517  0.67126  0.78956  1.0000
  H   H489      1.0  0.06277  0.54217  0.71777  1.0000
  H   H490      1.0  0.24848  0.53484  0.95438  1.0000
  C   C497      1.0  0.47794  0.71250  0.91683  1.0000
  C   C498      1.0  0.48889  0.74796  0.91025  1.0000
  Fe  Fe80      1.0  0.01640  0.51263  0.77634  1.0000
  H   H491      1.0  0.48893  0.70679  0.87700  1.0000
  S   S163      1.0  0.03598  0.73845  0.81715  1.0000
  S   S164      1.0  0.01098  0.65398  0.86546  1.0000
  C   C499      1.0  0.44375  0.75782  0.67828  1.0000
  C   C500      1.0  0.49240  0.72412  0.74137  1.0000
  H   H492      1.0  0.06748  0.55864  0.80829  1.0000
  S   S165      1.0  0.02280  0.53289  0.80454  1.0000
  S   S166      1.0  0.26003  0.51391  0.68693  1.0000
  H   H493      1.0  0.07336  0.52926  0.78413  1.0000
  C   C501      1.0  0.10097  0.73736  0.88524  1.0000
  H   H494      1.0  0.02571  0.56187  0.83837  1.0000
  H   H495      1.0  0.47191  0.74029  0.96235  1.0000
  N   N43       1.0  0.25642  0.56058  0.63152  1.0000
  C   C502      1.0  0.23980  0.55962  0.64663  1.0000
  C   C503      1.0  0.25643  0.57640  0.61577  1.0000
  C   C504      1.0  0.22275  0.57494  0.64640  1.0000
  C   C505      1.0  0.23966  0.59201  0.61510  1.0000
  C   C506      1.0  0.22269  0.59118  0.63049  1.0000
  C   C507      1.0  0.27355  0.54373  0.63123  1.0000
  H   H496      1.0  0.23942  0.54670  0.65869  1.0000
  H   H497      1.0  0.26909  0.57666  0.60322  1.0000
  H   H498      1.0  0.20913  0.57357  0.65780  1.0000
  H   H499      1.0  0.23929  0.60403  0.60211  1.0000
  H   H500      1.0  0.20905  0.60251  0.62952  1.0000
  H   H501      1.0  0.26982  0.53125  0.62016  1.0000
  H   H502      1.0  0.27532  0.53602  0.64741  1.0000
  H   H503      1.0  0.29381  0.54640  0.87859  1.0000
  H   H504      1.0  0.26505  0.55677  0.94845  1.0000
  H   H505      1.0  0.31040  0.73385  0.00386  1.0000
  H   H506      1.0  0.43690  0.75642  0.63680  1.0000
  S   S167      1.0  0.01277  0.70637  0.86855  1.0000
  S   S168      1.0  0.20072  0.51840  0.67395  1.0000
  C   C508      1.0  0.06488  0.54787  0.73361  1.0000
  H   H507      1.0  0.33285  0.52656  0.91335  1.0000
  H   H508      1.0  0.22079  0.52853  0.72150  1.0000
  H   H509      1.0  0.11745  0.74109  0.88115  1.0000
  C   C509      1.0  0.48381  0.75266  0.93164  1.0000
  C   C510      1.0  0.47293  0.71660  0.93836  1.0000
  H   H510      1.0  0.02671  0.60144  0.83893  1.0000
  Fe  Fe81      1.0  0.19955  0.51843  0.63818  1.0000
  C   C511      1.0  0.15621  0.72319  0.52383  1.0000
  H   H511      1.0  0.47605  0.69658  0.91137  1.0000
  C   C512      1.0  0.25442  0.75464  0.98407  1.0000
  S   S169      1.0  0.14325  0.66992  0.00231  1.0000
  C   C513      1.0  0.49023  0.72755  0.65156  1.0000
  C   C514      1.0  0.22111  0.61002  0.99996  1.0000
  H   H512      1.0  0.44616  0.75050  0.69449  1.0000
  H   H513      1.0  0.11345  0.68421  0.54539  1.0000
  C   C515      1.0  0.26460  0.53913  0.94768  1.0000
  Fe  Fe82      1.0  0.49381  0.75720  0.99759  1.0000
  H   H514      1.0  0.05482  0.72936  0.86131  1.0000
  H   H515      1.0  0.46747  0.70397  0.94941  1.0000
  H   H516      1.0  0.06571  0.59366  0.76033  1.0000
  H   H517      1.0  0.06584  0.58564  0.79812  1.0000
  Fe  Fe83      1.0  0.18503  0.65395  0.51194  1.0000
  C   C516      1.0  0.19130  0.71005  0.53532  1.0000
  N   N44       1.0  0.09407  0.73396  0.90617  1.0000
  N   N45       1.0  0.42265  0.62975  0.79129  1.0000
  C   C517      1.0  0.43164  0.64776  0.79740  1.0000
  C   C518      1.0  0.42965  0.62046  0.77263  1.0000
  C   C519      1.0  0.44802  0.65699  0.78466  1.0000
  C   C520      1.0  0.44630  0.62906  0.75970  1.0000
  C   C521      1.0  0.45543  0.64753  0.76574  1.0000
  C   C522      1.0  0.40481  0.62101  0.80447  1.0000
  H   H518      1.0  0.42641  0.65488  0.81239  1.0000
  H   H519      1.0  0.42269  0.60603  0.76788  1.0000
  H   H520      1.0  0.26244  0.74418  0.97254  1.0000
  H   H521      1.0  0.45222  0.62139  0.74520  1.0000
  H   H522      1.0  0.04262  0.72297  0.89951  1.0000
  H   H523      1.0  0.40844  0.62056  0.82166  1.0000
  H   H524      1.0  0.38991  0.63099  0.80213  1.0000
  H   H525      1.0  0.40208  0.60431  0.80047  1.0000
  H   H526      1.0  0.46847  0.65437  0.75598  1.0000
  Fe  Fe84      1.0  0.22312  0.62336  0.52164  1.0000
  C   C523      1.0  0.07395  0.56970  0.79545  1.0000
  H   H527      1.0  0.06938  0.51630  0.74793  1.0000
  C   C524      1.0  0.22229  0.51452  0.73217  1.0000
  C   C525      1.0  0.30035  0.51396  0.73610  1.0000
  H   H528      1.0  0.12559  0.73460  0.51241  1.0000
  H   H529      1.0  0.49534  0.72174  0.61800  1.0000
  C   C526      1.0  0.46520  0.73894  0.62502  1.0000
  C   C527      1.0  0.11345  0.68689  0.52823  1.0000
  H   H530      1.0  0.28922  0.55029  0.62604  1.0000
  C   C528      1.0  0.27970  0.54417  0.91091  1.0000
  C   C529      1.0  0.23689  0.59371  0.99533  1.0000
  S   S170      1.0  0.01409  0.52350  0.74200  1.0000
  H   H531      1.0  0.09141  0.57084  0.79703  1.0000
  N   N46       1.0  0.06999  0.56220  0.77427  1.0000
  C   C530      1.0  0.05888  0.72749  0.89533  1.0000
  S   S171      1.0  0.50201  0.62651  0.78880  1.0000
  H   H532      1.0  0.10930  0.75339  0.92702  1.0000
  H   H533      1.0  0.24650  0.52725  0.75040  1.0000
  H   H534      1.0  0.49098  0.75155  0.71915  1.0000
  Fe  Fe85      1.0  0.02239  0.65851  0.83096  1.0000
  H   H535      1.0  0.28549  0.55936  0.91506  1.0000
  C   C531      1.0  0.23520  0.57291  0.00442  1.0000
  S   S172      1.0  0.25607  0.55329  0.99847  1.0000
  H   H536      1.0  0.50829  0.72666  0.87632  1.0000
  H   H537      1.0  0.19263  0.72245  0.54719  1.0000
  C   C532      1.0  0.28910  0.51943  0.71754  1.0000
  H   H538      1.0  0.32176  0.69869  0.51794  1.0000
  H   H539      1.0  0.20774  0.70556  0.52878  1.0000
  H   H540      1.0  0.28161  0.51126  0.86912  1.0000
  C   C533      1.0  0.32639  0.51114  0.91144  1.0000
  H   H541      1.0  0.12531  0.73017  0.91820  1.0000
  C   C534      1.0  0.01888  0.57375  0.78576  1.0000
  C   C535      1.0  0.49962  0.73674  0.72341  1.0000
  S   S173      1.0  0.02441  0.63445  0.80430  1.0000
  S   S174      1.0  0.33606  0.74157  0.51351  1.0000
  C   C536      1.0  0.02681  0.75345  0.79419  1.0000
  H   H542      1.0  0.09243  0.73823  0.85220  1.0000
  Fe  Fe86      1.0  0.01282  0.75444  0.53220  1.0000
  H   H543      1.0  0.42656  0.75702  0.67509  1.0000
  H   H544      1.0  0.01841  0.60562  0.77135  1.0000
  C   C537      1.0  0.23471  0.74888  0.99415  1.0000
  H   H545      1.0  0.27686  0.53162  0.95813  1.0000
  H   H546      1.0  0.01337  0.75416  0.71383  1.0000
  C   C538      1.0  0.30828  0.70879  0.51295  1.0000
  H   H547      1.0  0.28721  0.68247  0.51236  1.0000
  C   C539      1.0  0.28865  0.69950  0.50979  1.0000
  H   H548      1.0  0.50547  0.72001  0.65591  1.0000
  C   C540      1.0  0.00932  0.74768  0.78316  1.0000
  C   C541      1.0  0.02272  0.75766  0.69908  1.0000
  H   H549      1.0  0.28134  0.70835  0.00722  1.0000
  S   S175      1.0  0.49086  0.79027  0.33923  1.0000
  H   H550      1.0  0.18194  0.94930  0.24904  1.0000
  S   S176      1.0  0.47899  0.77562  0.40397  1.0000
  S   S177      1.0  0.21077  0.97573  0.36042  1.0000
  S   S178      1.0  0.33985  0.80104  0.48566  1.0000
  C   C542      1.0  0.24635  0.94118  0.45613  1.0000
  H   H551      1.0  0.27255  0.96222  0.45197  1.0000
  Fe  Fe87      1.0  0.37527  0.80404  0.47782  1.0000
  S   S179      1.0  0.38783  0.80943  0.44325  1.0000
  C   C543      1.0  0.42635  0.96646  0.19971  1.0000
  H   H552      1.0  0.47214  0.00073  0.17451  1.0000
  Fe  Fe88      1.0  0.01295  0.82308  0.28432  1.0000
  H   H553      1.0  0.37301  0.88587  0.03682  1.0000
  C   C544      1.0  0.40183  0.87949  0.01738  1.0000
  C   C545      1.0  0.33127  0.88754  0.50193  1.0000
  H   H554      1.0  0.39235  0.76729  0.41980  1.0000
  Fe  Fe89      1.0  0.49081  0.98221  0.23746  1.0000
  H   H555      1.0  0.24775  0.99149  0.19450  1.0000
  S   S180      1.0  0.49116  0.97894  0.27335  1.0000
  H   H556      1.0  0.29125  0.98298  0.10133  1.0000
  H   H557      1.0  0.23532  0.98758  0.27363  1.0000
  Fe  Fe90      1.0  0.32685  0.95926  0.14383  1.0000
  S   S181      1.0  0.29575  0.97873  0.14766  1.0000
  S   S182      1.0  0.32581  0.92507  0.13263  1.0000
  Fe  Fe91      1.0  0.30613  0.98729  0.17982  1.0000
  Fe  Fe92      1.0  0.35242  0.99414  0.16224  1.0000
  N   N47       1.0  0.05982  0.81972  0.24065  1.0000
  S   S183      1.0  0.33610  0.96574  0.17720  1.0000
  Fe  Fe93      1.0  0.32398  0.86386  0.01997  1.0000
  S   S184      1.0  0.32699  0.89523  0.03669  1.0000
  C   C546      1.0  0.24516  0.99057  0.21171  1.0000
  C   C547      1.0  0.36217  0.96457  0.23489  1.0000
  S   S185      1.0  0.32076  0.82977  0.03179  1.0000
  S   S186      1.0  0.28983  0.98733  0.21367  1.0000
  Fe  Fe94      1.0  0.18385  0.98224  0.33739  1.0000
  S   S187      1.0  0.17822  0.96049  0.31039  1.0000
  H   H558      1.0  0.07172  0.76657  0.24521  1.0000
  H   H559      1.0  0.47468  0.82562  0.29134  1.0000
  Fe  Fe95      1.0  0.14305  0.96927  0.31698  1.0000
  S   S188      1.0  0.11181  0.95189  0.31602  1.0000
  Fe  Fe96      1.0  0.17933  0.99054  0.28933  1.0000
  H   H560      1.0  0.15264  0.97720  0.24885  1.0000
  H   H561      1.0  0.27662  0.77325  0.04940  1.0000
  C   C548      1.0  0.36796  0.84811  0.05721  1.0000
  H   H562      1.0  0.39717  0.96449  0.18306  1.0000
  S   S189      1.0  0.03965  0.81303  0.30557  1.0000
  C   C549      1.0  0.34855  0.98170  0.22835  1.0000
  Fe  Fe97      1.0  0.04633  0.84797  0.30685  1.0000
  S   S190      1.0  0.08093  0.85821  0.30219  1.0000
  C   C550      1.0  0.49380  0.89115  0.30238  1.0000
  H   H563      1.0  0.23402  0.95398  0.45542  1.0000
  C   C551      1.0  0.40127  0.83882  0.03643  1.0000
  H   H564      1.0  0.24796  0.98482  0.42613  1.0000
  H   H565      1.0  0.32691  0.75960  0.47007  1.0000
  H   H566      1.0  0.35662  0.94846  0.23576  1.0000
  C   C552      1.0  0.49147  0.77842  0.26980  1.0000
  H   H567      1.0  0.10466  0.97421  0.27608  1.0000
  Fe  Fe98      1.0  0.49837  0.78739  0.37413  1.0000
  C   C553      1.0  0.10379  0.92526  0.31418  1.0000
  C   C554      1.0  0.11848  0.90779  0.31214  1.0000
  C   C555      1.0  0.11124  0.88731  0.30874  1.0000
  C   C556      1.0  0.08925  0.88398  0.30782  1.0000
  C   C557      1.0  0.07456  0.90138  0.31038  1.0000
  C   C558      1.0  0.08181  0.92187  0.31341  1.0000
  H   H568      1.0  0.13541  0.91009  0.31289  1.0000
  H   H569      1.0  0.12274  0.87395  0.30693  1.0000
  H   H570      1.0  0.05760  0.89909  0.30978  1.0000
  H   H571      1.0  0.07028  0.93523  0.31507  1.0000
  H   H572      1.0  0.10738  0.93106  0.26884  1.0000
  H   H573      1.0  0.31076  0.89692  0.45926  1.0000
  H   H574      1.0  0.09020  0.81695  0.28370  1.0000
  C   C559      1.0  0.02061  0.76614  0.24966  1.0000
  H   H575      1.0  0.47671  0.88999  0.30134  1.0000
  C   C560      1.0  0.25677  0.90378  0.46073  1.0000
  H   H576      1.0  0.34109  0.91767  0.48763  1.0000
  C   C561      1.0  0.50580  0.87419  0.31210  1.0000
  N   N48       1.0  0.35559  0.00202  0.22664  1.0000
  C   C562      1.0  0.48541  0.81324  0.28449  1.0000
  H   H577      1.0  0.46042  0.79166  0.28053  1.0000
  C   C563      1.0  0.01409  0.77515  0.40042  1.0000
  C   C564      1.0  0.26277  0.98850  0.22454  1.0000
  S   S191      1.0  0.37846  0.82891  0.50198  1.0000
  S   S192      1.0  0.34572  0.98600  0.12848  1.0000
  H   H578      1.0  0.41048  0.81844  0.40294  1.0000
  H   H579      1.0  0.17386  0.91171  0.25914  1.0000
  C   C565      1.0  0.26794  0.94580  0.45412  1.0000
  C   C566      1.0  0.32874  0.91640  0.10598  1.0000
  C   C567      1.0  0.32493  0.89504  0.10202  1.0000
  C   C568      1.0  0.32497  0.88799  0.08094  1.0000
  C   C569      1.0  0.32911  0.90223  0.06360  1.0000
  C   C570      1.0  0.33390  0.92329  0.06760  1.0000
  C   C571      1.0  0.33361  0.93040  0.08864  1.0000
  H   H580      1.0  0.32125  0.88406  0.11536  1.0000
  H   H581      1.0  0.32115  0.87177  0.07817  1.0000
  H   H582      1.0  0.33729  0.93441  0.05430  1.0000
  H   H583      1.0  0.33675  0.94681  0.09143  1.0000
  C   C572      1.0  0.44096  0.97987  0.20789  1.0000
  C   C573      1.0  0.23790  0.98841  0.25641  1.0000
  Fe  Fe99      1.0  0.27914  0.97292  0.50408  1.0000
  Fe  Fe100     1.0  0.01219  0.76806  0.48455  1.0000
  H   H584      1.0  0.27239  0.98580  0.25707  1.0000
  H   H585      1.0  0.03752  0.84622  0.23808  1.0000
  H   H586      1.0  0.29342  0.88045  0.44603  1.0000
  H   H587      1.0  0.29204  0.88132  0.47492  1.0000
  C   C574      1.0  0.21394  0.99031  0.43174  1.0000
  S   S193      1.0  0.14366  0.99800  0.29413  1.0000
  C   C575      1.0  0.19272  0.98628  0.40055  1.0000
  C   C576      1.0  0.21131  0.98101  0.38803  1.0000
  H   H588      1.0  0.44592  0.80561  0.38708  1.0000
  C   C577      1.0  0.23252  0.98495  0.41925  1.0000
  C   C578      1.0  0.32860  0.90964  0.49696  1.0000
  C   C579      1.0  0.08256  0.78998  0.26584  1.0000
  H   H589      1.0  0.30034  0.93297  0.45407  1.0000
  C   C580      1.0  0.24068  0.92006  0.45946  1.0000
  H   H590      1.0  0.48554  0.76340  0.26527  1.0000
  H   H591      1.0  0.09092  0.77834  0.27607  1.0000
  H   H592      1.0  0.40171  0.89541  0.00990  1.0000
  C   C581      1.0  0.45439  0.78678  0.41511  1.0000
  C   C582      1.0  0.44772  0.78066  0.43621  1.0000
  C   C583      1.0  0.42784  0.78828  0.44540  1.0000
  C   C584      1.0  0.41418  0.80177  0.43340  1.0000
  C   C585      1.0  0.42095  0.80807  0.41239  1.0000
  C   C586      1.0  0.44104  0.80081  0.40334  1.0000
  H   H593      1.0  0.35283  0.85732  0.05373  1.0000
  H   H594      1.0  0.42286  0.78330  0.46158  1.0000
  C   C587      1.0  0.06069  0.79860  0.23592  1.0000
  N   N49       1.0  0.27791  0.90844  0.45868  1.0000
  N   N50       1.0  0.28041  0.93319  0.08793  1.0000
  C   C588      1.0  0.28351  0.93540  0.06616  1.0000
  C   C589      1.0  0.28287  0.95008  0.10049  1.0000
  C   C590      1.0  0.28982  0.95478  0.05651  1.0000
  C   C591      1.0  0.28903  0.96969  0.09134  1.0000
  C   C592      1.0  0.29262  0.97201  0.06925  1.0000
  C   C593      1.0  0.27360  0.91291  0.09789  1.0000
  H   H595      1.0  0.28186  0.92193  0.05618  1.0000
  H   H596      1.0  0.28057  0.94827  0.11775  1.0000
  H   H597      1.0  0.29292  0.95624  0.03932  1.0000
  H   H598      1.0  0.49421  0.92257  0.28664  1.0000
  H   H599      1.0  0.29775  0.98713  0.06216  1.0000
  H   H600      1.0  0.27902  0.89925  0.08788  1.0000
  H   H601      1.0  0.28080  0.90987  0.11364  1.0000
  H   H602      1.0  0.25589  0.91336  0.10031  1.0000
  C   C594      1.0  0.49575  0.96475  0.32976  1.0000
  S   S194      1.0  0.02449  0.85303  0.33606  1.0000
  C   C595      1.0  0.40834  0.97500  0.18914  1.0000
  H   H603      1.0  0.42894  0.94931  0.20162  1.0000
  H   H604      1.0  0.06989  0.84310  0.26116  1.0000
  S   S195      1.0  0.02134  0.85778  0.28363  1.0000
  C   C596      1.0  0.40487  0.99712  0.18643  1.0000
  S   S196      1.0  0.49252  0.85122  0.32228  1.0000
  S   S197      1.0  0.03812  0.76636  0.50812  1.0000
  H   H605      1.0  0.03656  0.82776  0.21751  1.0000
  S   S198      1.0  0.38481  0.77655  0.49981  1.0000
  H   H606      1.0  0.34566  0.87871  0.49633  1.0000
  C   C597      1.0  0.01074  0.79531  0.43288  1.0000
  H   H607      1.0  0.39392  0.95523  0.24467  1.0000
  C   C598      1.0  0.43465  0.77433  0.01187  1.0000
  H   H608      1.0  0.37239  0.85167  0.07352  1.0000
  H   H609      1.0  0.36462  0.83089  0.05668  1.0000
  C   C599      1.0  0.16555  0.94506  0.25304  1.0000
  C   C600      1.0  0.14888  0.96081  0.25303  1.0000
  Fe  Fe101     1.0  0.50769  0.82140  0.33874  1.0000
  C   C601      1.0  0.23430  0.78156  0.01402  1.0000
  C   C602      1.0  0.23117  0.98017  0.39759  1.0000
  H   H610      1.0  0.44508  0.76294  0.02024  1.0000
  C   C603      1.0  0.49390  0.97303  0.17574  1.0000
  C   C604      1.0  0.29434  0.89094  0.45972  1.0000
  N   N51       1.0  0.12827  0.95570  0.25856  1.0000
  C   C605      1.0  0.38560  0.87397  0.03259  1.0000
  C   C606      1.0  0.25895  0.98741  0.24693  1.0000
  C   C607      1.0  0.13991  0.91885  0.26400  1.0000
  C   C608      1.0  0.00991  0.81427  0.42004  1.0000
  H   H611      1.0  0.32814  0.76269  0.01948  1.0000
  C   C609      1.0  0.01290  0.77573  0.42293  1.0000
  H   H612      1.0  0.13618  0.90256  0.26870  1.0000
  H   H613      1.0  0.22391  0.91640  0.46114  1.0000
  C   C610      1.0  0.16101  0.92398  0.25868  1.0000
  H   H614      1.0  0.47965  0.95925  0.32940  1.0000
  H   H615      1.0  0.17956  0.99482  0.43181  1.0000
  H   H616      1.0  0.24564  0.97611  0.38804  1.0000
  H   H617      1.0  0.25229  0.88738  0.46343  1.0000
  C   C611      1.0  0.12365  0.93503  0.26396  1.0000
  C   C612      1.0  0.28361  0.92913  0.45534  1.0000
  C   C613      1.0  0.01323  0.79410  0.38756  1.0000
  S   S199      1.0  0.14874  0.98848  0.34560  1.0000
  H   H618      1.0  0.05212  0.79327  0.22273  1.0000
  H   H619      1.0  0.35333  0.76977  0.42808  1.0000
  S   S200      1.0  0.46335  0.96808  0.22098  1.0000
  S   S201      1.0  0.24443  0.96522  0.50480  1.0000
  C   C614      1.0  0.47742  0.79421  0.27840  1.0000
  C   C615      1.0  0.22029  0.99058  0.24359  1.0000
  H   H620      1.0  0.31384  0.77912  0.03869  1.0000
  S   S202      1.0  0.01444  0.79220  0.35927  1.0000
  C   C616      1.0  0.39933  0.79269  0.00884  1.0000
  C   C617      1.0  0.07184  0.78338  0.24857  1.0000
  C   C618      1.0  0.07059  0.82637  0.25734  1.0000
  C   C619      1.0  0.08218  0.81162  0.27012  1.0000
  C   C620      1.0  0.50746  0.81603  0.28228  1.0000
  C   C621      1.0  0.11094  0.97235  0.25926  1.0000
  H   H621      1.0  0.45791  0.76981  0.44545  1.0000
  H   H622      1.0  0.40109  0.82278  0.04363  1.0000
  C   C622      1.0  0.31215  0.77025  0.02398  1.0000
  C   C623      1.0  0.37597  0.00589  0.23160  1.0000
  C   C624      1.0  0.41317  0.77793  0.01944  1.0000
  H   H623      1.0  0.21065  0.99335  0.21107  1.0000
  C   C625      1.0  0.22409  0.99162  0.22119  1.0000
  H   H624      1.0  0.09770  0.96801  0.24953  1.0000
  H   H625      1.0  0.05884  0.84509  0.21718  1.0000
  N   N52       1.0  0.38522  0.85369  0.04151  1.0000
  S   S203      1.0  0.37268  0.79724  0.01974  1.0000
  H   H626      1.0  0.33241  0.97857  0.22441  1.0000
  H   H627      1.0  0.48121  0.96182  0.17721  1.0000
  C   C626      1.0  0.30987  0.92140  0.50380  1.0000
  C   C627      1.0  0.50805  0.81396  0.42884  1.0000
  H   H628      1.0  0.50240  0.78284  0.44314  1.0000
  C   C628      1.0  0.04773  0.83552  0.22760  1.0000
  H   H629      1.0  0.17734  0.98683  0.39348  1.0000
  H   H630      1.0  0.22642  0.79182  0.02582  1.0000
  C   C629      1.0  0.19405  0.99077  0.42229  1.0000
  H   H631      1.0  0.49283  0.81536  0.42128  1.0000
  H   H632      1.0  0.29430  0.76077  0.50092  1.0000
  C   C630      1.0  0.38300  0.96838  0.23998  1.0000
  H   H633      1.0  0.01347  0.76107  0.43259  1.0000
  S   S204      1.0  0.19328  0.99200  0.25457  1.0000
  H   H634      1.0  0.40726  0.76922  0.03365  1.0000
  C   C631      1.0  0.43744  0.00200  0.20529  1.0000
  C   C632      1.0  0.49944  0.98641  0.32647  1.0000
  S   S205      1.0  0.30706  0.94900  0.49626  1.0000
  C   C633      1.0  0.41784  0.84384  0.02142  1.0000
  H   H635      1.0  0.11651  0.98812  0.25311  1.0000
  H   H636      1.0  0.02567  0.76727  0.26577  1.0000
  H   H637      1.0  0.40624  0.99224  0.24199  1.0000
  C   C634      1.0  0.38991  0.98918  0.23854  1.0000
  Fe  Fe102     1.0  0.31509  0.00595  0.13362  1.0000
  H   H638      1.0  0.43025  0.83179  0.01709  1.0000
  S   S206      1.0  0.27533  0.00181  0.48125  1.0000
  Fe  Fe103     1.0  0.24026  0.99495  0.48368  1.0000
  H   H639      1.0  0.01564  0.75997  0.39283  1.0000
  C   C635      1.0  0.50368  0.90965  0.29401  1.0000
  C   C636      1.0  0.48878  0.99492  0.17439  1.0000
  C   C637      1.0  0.41797  0.86425  0.01170  1.0000
  S   S207      1.0  0.26696  0.80967  0.01345  1.0000
  S   S208      1.0  0.21460  0.99755  0.45883  1.0000
  Fe  Fe104     1.0  0.01570  0.81899  0.33329  1.0000
  H   H640      1.0  0.30749  0.78192  0.01105  1.0000
  H   H641      1.0  0.48622  0.99791  0.32363  1.0000
  C   C638      1.0  0.01121  0.81370  0.39750  1.0000
  H   H642      1.0  0.50401  0.76255  0.12403  1.0000
  H   H643      1.0  0.01053  0.82839  0.38783  1.0000
  C   C639      1.0  0.01035  0.78391  0.23963  1.0000
  H   H644      1.0  0.20940  0.75863  0.01686  1.0000
  C   C640      1.0  0.22454  0.76271  0.00894  1.0000
  C   C641      1.0  0.27833  0.75843  0.04101  1.0000
  C   C642      1.0  0.36320  0.75848  0.43728  1.0000
  S   S209      1.0  0.29957  0.86144  0.99516  1.0000
  S   S210      1.0  0.48824  0.79839  0.68263  1.0000
  C   C643      1.0  0.03474  0.80371  0.61652  1.0000
  C   C644      1.0  0.31529  0.87699  0.51409  1.0000
  C   C645      1.0  0.38940  0.85966  0.54775  1.0000
  H   H645      1.0  0.15966  0.93861  0.62793  1.0000
  Fe  Fe105     1.0  0.48122  0.80276  0.64766  1.0000
  S   S211      1.0  0.44683  0.80031  0.63781  1.0000
  H   H646      1.0  0.04719  0.77981  0.56882  1.0000
  Fe  Fe106     1.0  0.38621  0.80115  0.52483  1.0000
  S   S212      1.0  0.41730  0.80390  0.54188  1.0000
  H   H647      1.0  0.17627  0.91995  0.58399  1.0000
  S   S213      1.0  0.35179  0.79774  0.53649  1.0000
  C   C646      1.0  0.29381  0.91081  0.51577  1.0000
  H   H648      1.0  0.44759  0.77492  0.67826  1.0000
  C   C647      1.0  0.04591  0.76756  0.66129  1.0000
  H   H649      1.0  0.26977  0.94998  0.71358  1.0000
  C   C648      1.0  0.02474  0.76191  0.66059  1.0000
  S   S214      1.0  0.32512  0.81623  0.98133  1.0000
  H   H650      1.0  0.02819  0.91882  0.75776  1.0000
  S   S215      1.0  0.37904  0.97185  0.81710  1.0000
  Fe  Fe107     1.0  0.32771  0.85162  0.97332  1.0000
  S   S216      1.0  0.33402  0.86484  0.93923  1.0000
  C   C649      1.0  0.35527  0.84948  0.56373  1.0000
  H   H651      1.0  0.18327  0.99535  0.63130  1.0000
  S   S217      1.0  0.31979  0.96943  0.84085  1.0000
  H   H652      1.0  0.06378  0.79963  0.59659  1.0000
  Fe  Fe108     1.0  0.31944  0.97745  0.87567  1.0000
  S   S218      1.0  0.30798  0.95927  0.90613  1.0000
  Fe  Fe109     1.0  0.35112  0.98627  0.83772  1.0000
  C   C650      1.0  0.04811  0.92769  0.72008  1.0000
  H   H653      1.0  0.25060  0.99201  0.58514  1.0000
  S   S219      1.0  0.19187  0.96628  0.69814  1.0000
  H   H654      1.0  0.30322  0.85547  0.90058  1.0000
  H   H655      1.0  0.50259  0.88314  0.67086  1.0000
  C   C651      1.0  0.21652  0.98867  0.58647  1.0000
  Fe  Fe110     1.0  0.18929  0.98309  0.72936  1.0000
  S   S220      1.0  0.21216  0.96980  0.75480  1.0000
  Fe  Fe111     1.0  0.15585  0.96952  0.69803  1.0000
  S   S221      1.0  0.13725  0.94472  0.68187  1.0000
  H   H656      1.0  0.35620  0.83547  0.59567  1.0000
  S   S222      1.0  0.01412  0.85667  0.72156  1.0000
  S   S223      1.0  0.04970  0.82290  0.69867  1.0000
  H   H657      1.0  0.18470  0.94585  0.57392  1.0000
  Fe  Fe112     1.0  0.03378  0.83112  0.66767  1.0000
  Fe  Fe113     1.0  0.04678  0.85828  0.70431  1.0000
  S   S224      1.0  0.07095  0.87710  0.72086  1.0000
  C   C652      1.0  0.01315  0.77863  0.75797  1.0000
  H   H658      1.0  0.43094  0.84715  0.55302  1.0000
  C   C653      1.0  0.36729  0.85831  0.54648  1.0000
  H   H659      1.0  0.03431  0.89254  0.74766  1.0000
  C   C654      1.0  0.46839  0.94483  0.81675  1.0000
  C   C655      1.0  0.20980  0.94355  0.64409  1.0000
  Fe  Fe114     1.0  0.34744  0.82148  0.00734  1.0000
  S   S225      1.0  0.04769  0.81691  0.63642  1.0000
  S   S226      1.0  0.21545  0.97993  0.56012  1.0000
  C   C656      1.0  0.04692  0.79655  0.59838  1.0000
  C   C657      1.0  0.03755  0.78531  0.58257  1.0000
  C   C658      1.0  0.50751  0.94374  0.81724  1.0000
  C   C659      1.0  0.11889  0.92602  0.69313  1.0000
  C   C660      1.0  0.11548  0.92249  0.71521  1.0000
  C   C661      1.0  0.10108  0.90717  0.72335  1.0000
  C   C662      1.0  0.08969  0.89539  0.70957  1.0000
  C   C663      1.0  0.09294  0.89907  0.68748  1.0000
  C   C664      1.0  0.10753  0.91421  0.67934  1.0000
  H   H660      1.0  0.12414  0.93135  0.72603  1.0000
  H   H661      1.0  0.09875  0.90443  0.74046  1.0000
  H   H662      1.0  0.08429  0.89018  0.67667  1.0000
  H   H663      1.0  0.11006  0.91676  0.66223  1.0000
  C   C665      1.0  0.04100  0.93245  0.68272  1.0000
  C   C666      1.0  0.20991  0.93994  0.60592  1.0000
  H   H664      1.0  0.50798  0.92738  0.81223  1.0000
  H   H665      1.0  0.34705  0.99493  0.92460  1.0000
  C   C667      1.0  0.25849  0.97893  0.79652  1.0000
  C   C668      1.0  0.24379  0.96970  0.78377  1.0000
  C   C669      1.0  0.22948  0.98248  0.77151  1.0000
  C   C670      1.0  0.50682  0.98608  0.82826  1.0000
  H   H666      1.0  0.06901  0.94348  0.69649  1.0000
  H   H667      1.0  0.26937  0.96883  0.80576  1.0000
  H   H668      1.0  0.24355  0.95250  0.78339  1.0000
  S   S227      1.0  0.03369  0.86656  0.67234  1.0000
  C   C671      1.0  0.50536  0.91294  0.68651  1.0000
  C   C672      1.0  0.22996  0.00470  0.77234  1.0000
  H   H669      1.0  0.42604  0.87201  0.56664  1.0000
  S   S228      1.0  0.35176  0.99155  0.87295  1.0000
  C   C673      1.0  0.40359  0.98389  0.80952  1.0000
  C   C674      1.0  0.17667  0.93706  0.58771  1.0000
  H   H670      1.0  0.39871  0.86601  0.53402  1.0000
  C   C675      1.0  0.29659  0.88877  0.52098  1.0000
  C   C676      1.0  0.32950  0.89222  0.93169  1.0000
  C   C677      1.0  0.31648  0.90595  0.94444  1.0000
  C   C678      1.0  0.31076  0.92675  0.93668  1.0000
  C   C679      1.0  0.31822  0.93417  0.91625  1.0000
  C   C680      1.0  0.33210  0.92083  0.90390  1.0000
  C   C681      1.0  0.33755  0.89989  0.91154  1.0000
  H   H671      1.0  0.31017  0.90027  0.95996  1.0000
  H   H672      1.0  0.30005  0.93695  0.94637  1.0000
  H   H673      1.0  0.33812  0.92639  0.88823  1.0000
  H   H674      1.0  0.34772  0.88941  0.90161  1.0000
  H   H675      1.0  0.45814  0.80689  0.55927  1.0000
  C   C682      1.0  0.42877  0.80030  0.98296  1.0000
  Fe  Fe115     1.0  0.01628  0.82175  0.71382  1.0000
  H   H676      1.0  0.39681  0.81526  0.98215  1.0000
  H   H677      1.0  0.46654  0.94426  0.79925  1.0000
  H   H678      1.0  0.07124  0.77358  0.68147  1.0000
  C   C683      1.0  0.23588  0.99292  0.59507  1.0000
  C   C684      1.0  0.26976  0.99012  0.73678  1.0000
  H   H679      1.0  0.33817  0.84792  0.56264  1.0000
  N   N53       1.0  0.02970  0.91700  0.72385  1.0000
  H   H680      1.0  0.17868  0.94256  0.66068  1.0000
  C   C685      1.0  0.26414  0.77352  0.98909  1.0000
  H   H681      1.0  0.28413  0.88078  0.53038  1.0000
  C   C686      1.0  0.25431  0.78698  0.00440  1.0000
  C   C687      1.0  0.40723  0.80384  0.99049  1.0000
  H   H682      1.0  0.02245  0.80227  0.53833  1.0000
  H   H683      1.0  0.27940  0.77743  0.98136  1.0000
  N   N54       1.0  0.25748  0.98051  0.72299  1.0000
  C   C688      1.0  0.41800  0.97398  0.79449  1.0000
  S   S229      1.0  0.27536  0.99223  0.53383  1.0000
  C   C689      1.0  0.42528  0.80077  0.56863  1.0000
  C   C690      1.0  0.44678  0.80380  0.57258  1.0000
  C   C691      1.0  0.45369  0.80336  0.59361  1.0000
  C   C692      1.0  0.43912  0.79995  0.61100  1.0000
  C   C693      1.0  0.41769  0.79646  0.60707  1.0000
  C   C694      1.0  0.41080  0.79675  0.58600  1.0000
  H   H684      1.0  0.47267  0.98484  0.82839  1.0000
  H   H685      1.0  0.47023  0.80603  0.59635  1.0000
  H   H686      1.0  0.40629  0.79371  0.62042  1.0000
  H   H687      1.0  0.39424  0.79427  0.58320  1.0000
  C   C695      1.0  0.44261  0.78554  0.99360  1.0000
  C   C696      1.0  0.05400  0.93566  0.69950  1.0000
  H   H688      1.0  0.25135  0.00090  0.62334  1.0000
  C   C697      1.0  0.25654  0.95719  0.72385  1.0000
  H   H689      1.0  0.28069  0.86341  0.93332  1.0000
  H   H690      1.0  0.46844  0.92833  0.82392  1.0000
  N   N55       1.0  0.28589  0.90605  0.88717  1.0000
  C   C698      1.0  0.27321  0.91050  0.90511  1.0000
  C   C699      1.0  0.29612  0.88636  0.88519  1.0000
  C   C700      1.0  0.27085  0.89513  0.92183  1.0000
  C   C701      1.0  0.29420  0.87068  0.90165  1.0000
  C   C702      1.0  0.28154  0.87516  0.92010  1.0000
  C   C703      1.0  0.28842  0.92225  0.86976  1.0000
  H   H691      1.0  0.26545  0.92624  0.90690  1.0000
  H   H692      1.0  0.30644  0.88294  0.87114  1.0000
  H   H693      1.0  0.39520  0.83912  0.59758  1.0000
  C   C704      1.0  0.01682  0.91387  0.70749  1.0000
  C   C705      1.0  0.02458  0.90772  0.74528  1.0000
  H   H694      1.0  0.02096  0.83053  0.53128  1.0000
  H   H695      1.0  0.45410  0.95384  0.82383  1.0000
  H   H696      1.0  0.42864  0.84689  0.58158  1.0000
  H   H697      1.0  0.03908  0.79846  0.76365  1.0000
  H   H698      1.0  0.31983  0.99629  0.93494  1.0000
  C   C706      1.0  0.22107  0.94242  0.62428  1.0000
  S   S230      1.0  0.50090  0.83169  0.64252  1.0000
  H   H699      1.0  0.18249  0.98662  0.59307  1.0000
  S   S231      1.0  0.46973  0.78193  0.98375  1.0000
  C   C707      1.0  0.01228  0.81727  0.53953  1.0000
  H   H700      1.0  0.04567  0.93802  0.66659  1.0000
  H   H701      1.0  0.05882  0.92934  0.73284  1.0000
  H   H702      1.0  0.21815  0.94595  0.65840  1.0000
  C   C708      1.0  0.21736  0.99856  0.63001  1.0000
  H   H703      1.0  0.49534  0.76026  0.89942  1.0000
  Fe  Fe116     1.0  0.24025  0.98676  0.53280  1.0000
  C   C709      1.0  0.24673  0.99248  0.70789  1.0000
  C   C710      1.0  0.44354  0.00153  0.79730  1.0000
  C   C711      1.0  0.42233  0.85490  0.56690  1.0000
  H   H704      1.0  0.30559  0.92318  0.86436  1.0000
  H   H705      1.0  0.23718  0.98491  0.69678  1.0000
  H   H706      1.0  0.26141  0.89893  0.93635  1.0000
  C   C712      1.0  0.50608  0.89047  0.68547  1.0000
  H   H707      1.0  0.28300  0.93847  0.87498  1.0000
  Fe  Fe117     1.0  0.49606  0.00037  0.76832  1.0000
  H   H708      1.0  0.35954  0.86373  0.53206  1.0000
  H   H709      1.0  0.16001  0.94404  0.58946  1.0000
  C   C713      1.0  0.03747  0.77185  0.78685  1.0000
  C   C714      1.0  0.33295  0.00608  0.92784  1.0000
  S   S232      1.0  0.15300  0.98341  0.73073  1.0000
  H   H710      1.0  0.05127  0.78102  0.72564  1.0000
  C   C715      1.0  0.48781  0.97581  0.82611  1.0000
  H   H711      1.0  0.05503  0.77185  0.64662  1.0000
  H   H712      1.0  0.43052  0.86818  0.99973  1.0000
  H   H713      1.0  0.44858  0.97512  0.77653  1.0000
  C   C716      1.0  0.03074  0.78433  0.76889  1.0000
  H   H714      1.0  0.43473  0.80904  0.96879  1.0000
  C   C717      1.0  0.38746  0.84455  0.58314  1.0000
  C   C718      1.0  0.05332  0.76439  0.72017  1.0000
  S   S233      1.0  0.35219  0.85571  0.99739  1.0000
  H   H715      1.0  0.05098  0.77655  0.79522  1.0000
  C   C719      1.0  0.19795  0.99466  0.62130  1.0000
  N   N56       1.0  0.04356  0.76308  0.69960  1.0000
  C   C720      1.0  0.43780  0.98280  0.78829  1.0000
  N   N57       1.0  0.39919  0.85283  0.56593  1.0000
  H   H716      1.0  0.41373  0.95945  0.78747  1.0000
  Fe  Fe118     1.0  0.29855  0.82630  0.00509  1.0000
  Fe  Fe119     1.0  0.30394  0.00213  0.83520  1.0000
  H   H717      1.0  0.27821  0.98067  0.74884  1.0000
  H   H718      1.0  0.24089  0.95235  0.71861  1.0000
  C   C721      1.0  0.18763  0.94189  0.64536  1.0000
  S   S234      1.0  0.31774  0.84923  0.52104  1.0000
  C   C722      1.0  0.01297  0.79956  0.61860  1.0000
  H   H719      1.0  0.27931  0.91962  0.52112  1.0000
  H   H720      1.0  0.01208  0.91871  0.67377  1.0000
  H   H721      1.0  0.21873  0.93960  0.59049  1.0000
  H   H722      1.0  0.50629  0.00284  0.83191  1.0000
  C   C723      1.0  0.36538  0.84251  0.58222  1.0000
  H   H723      1.0  0.23826  0.94405  0.62303  1.0000
  N   N58       1.0  0.48833  0.95493  0.82055  1.0000
  C   C724      1.0  0.19755  0.98983  0.59961  1.0000
  N   N59       1.0  0.18807  0.93913  0.60724  1.0000
  C   C725      1.0  0.17694  0.93965  0.62668  1.0000
  H   H724      1.0  0.27905  0.91832  0.85608  1.0000
  H   H725      1.0  0.25760  0.95067  0.74056  1.0000
  H   H726      1.0  0.01740  0.76162  0.64534  1.0000
  C   C726      1.0  0.40927  0.00274  0.81838  1.0000
  S   S235      1.0  0.49678  0.00573  0.73255  1.0000
  H   H727      1.0  0.48620  0.76839  0.93743  1.0000
  C   C727      1.0  0.01585  0.78091  0.58481  1.0000
  C   C728      1.0  0.02222  0.92159  0.68672  1.0000
  S   S236      1.0  0.21862  0.00500  0.65709  1.0000
  H   H728      1.0  0.50124  0.92276  0.67259  1.0000
  S   S237      1.0  0.15583  0.00158  0.68009  1.0000
  Fe  Fe120     1.0  0.19159  0.99892  0.68221  1.0000
  C   C729      1.0  0.25896  0.00115  0.79737  1.0000
  C   C730      1.0  0.23628  0.99779  0.61677  1.0000
  C   C731      1.0  0.05502  0.76840  0.68106  1.0000
  Fe  Fe121     1.0  0.34396  0.82393  0.51173  1.0000
  Fe  Fe122     1.0  0.34950  0.77512  0.50964  1.0000
  S   S238      1.0  0.50779  0.77953  0.63704  1.0000
  H   H729      1.0  0.00989  0.82092  0.55673  1.0000
  H   H730      1.0  0.07066  0.75963  0.71889  1.0000
  S   S239      1.0  0.68020  0.18518  0.48115  1.0000
  H   H731      1.0  0.76710  0.06807  0.50304  1.0000
  Fe  Fe123     1.0  0.68694  0.21340  0.50084  1.0000
  Fe  Fe124     1.0  0.64515  0.19232  0.49050  1.0000
  S   S240      1.0  0.61393  0.19592  0.47295  1.0000
  H   H732      1.0  0.70936  0.02639  0.23864  1.0000
  Fe  Fe125     1.0  0.54751  0.18025  0.36869  1.0000
  H   H733      1.0  0.86523  0.02895  0.24909  1.0000
  S   S241      1.0  0.58150  0.18098  0.38030  1.0000
  Fe  Fe126     1.0  0.52379  0.15125  0.33991  1.0000
  S   S242      1.0  0.53227  0.12497  0.31603  1.0000
  H   H734      1.0  0.53391  0.22955  0.25408  1.0000
  H   H735      1.0  0.62446  0.22722  0.41511  1.0000
  S   S243      1.0  0.54327  0.18027  0.33316  1.0000
  S   S244      1.0  0.53020  0.15000  0.37479  1.0000
  H   H736      1.0  0.99478  0.06938  0.37672  1.0000
  S   S245      1.0  0.72438  0.04226  0.48666  1.0000
  Fe  Fe127     1.0  0.70563  0.12392  0.02168  1.0000
  S   S246      1.0  0.69448  0.09460  0.04117  1.0000
  S   S247      1.0  0.70963  0.15753  0.03153  1.0000
  H   H737      1.0  0.59755  0.13074  0.42179  1.0000
  H   H738      1.0  0.57421  0.17483  0.27206  1.0000
  S   S248      1.0  0.71924  0.05162  0.13090  1.0000
  C   C732      1.0  0.58532  0.13766  0.43275  1.0000
  C   C733      1.0  0.00753  0.20388  0.43130  1.0000
  H   H739      1.0  0.88099  0.04879  0.23480  1.0000
  S   S249      1.0  0.51826  0.20216  0.37503  1.0000
  C   C734      1.0  0.53585  0.21335  0.26075  1.0000
  Fe  Fe128     1.0  0.98467  0.12658  0.32635  1.0000
  S   S250      1.0  0.95419  0.10902  0.33624  1.0000
  H   H740      1.0  0.71427  0.01702  0.04468  1.0000
  H   H741      1.0  0.67541  0.16491  0.06828  1.0000
  C   C735      1.0  0.99905  0.23050  0.25387  1.0000
  S   S251      1.0  0.98789  0.16127  0.33357  1.0000
  C   C736      1.0  0.55623  0.20348  0.26208  1.0000
  C   C737      1.0  0.70433  0.01043  0.23625  1.0000
  C   C738      1.0  0.76211  0.06627  0.45564  1.0000
  S   S252      1.0  0.91536  0.02699  0.29867  1.0000
  H   H742      1.0  0.99588  0.22080  0.32294  1.0000
  H   H743      1.0  0.76567  0.06849  0.06533  1.0000
  H   H744      1.0  0.74621  0.07374  0.45830  1.0000
  Fe  Fe129     1.0  0.71362  0.01731  0.14277  1.0000
  H   H745      1.0  0.75701  0.03727  0.08924  1.0000
  Fe  Fe130     1.0  0.74653  0.01541  0.50029  1.0000
  C   C739      1.0  0.94339  0.08645  0.32530  1.0000
  C   C740      1.0  0.92553  0.07717  0.33593  1.0000
  C   C741      1.0  0.91673  0.05898  0.32810  1.0000
  C   C742      1.0  0.92578  0.04978  0.30954  1.0000
  C   C743      1.0  0.94352  0.05918  0.29880  1.0000
  C   C744      1.0  0.95221  0.07745  0.30655  1.0000
  H   H746      1.0  0.91855  0.08402  0.35044  1.0000
  H   H747      1.0  0.90305  0.05201  0.33653  1.0000
  H   H748      1.0  0.95053  0.05235  0.28430  1.0000
  H   H749      1.0  0.96561  0.08469  0.29794  1.0000
  H   H750      1.0  0.98079  0.19846  0.20293  1.0000
  H   H751      1.0  0.51650  0.16341  0.44443  1.0000
  C   C745      1.0  0.69315  0.23436  0.43603  1.0000
  H   H752      1.0  0.54229  0.16521  0.47013  1.0000
  C   C746      1.0  0.57458  0.15201  0.46703  1.0000
  C   C747      1.0  0.55847  0.18273  0.27089  1.0000
  H   H753      1.0  0.52182  0.14494  0.42369  1.0000
  S   S253      1.0  0.51427  0.22921  0.03587  1.0000
  H   H754      1.0  0.97778  0.20459  0.41549  1.0000
  C   C748      1.0  0.63876  0.24968  0.46016  1.0000
  C   C749      1.0  0.00081  0.06545  0.34285  1.0000
  C   C750      1.0  0.56481  0.14308  0.42588  1.0000
  C   C751      1.0  0.72587  0.02804  0.04909  1.0000
  C   C752      1.0  0.70177  0.08313  0.06617  1.0000
  C   C753      1.0  0.71637  0.09228  0.07864  1.0000
  C   C754      1.0  0.72138  0.08254  0.09855  1.0000
  C   C755      1.0  0.71210  0.06347  0.10600  1.0000
  C   C756      1.0  0.69742  0.05443  0.09355  1.0000
  C   C757      1.0  0.69223  0.06428  0.07380  1.0000
  H   H755      1.0  0.72374  0.10684  0.07300  1.0000
  H   H756      1.0  0.73271  0.08967  0.10814  1.0000
  H   H757      1.0  0.68996  0.03992  0.09921  1.0000
  H   H758      1.0  0.68080  0.05718  0.06430  1.0000
  C   C758      1.0  0.68075  0.12472  0.10589  1.0000
  C   C759      1.0  0.96171  0.23596  0.20183  1.0000
  H   H759      1.0  0.72382  0.01311  0.09837  1.0000
  C   C760      1.0  0.54021  0.17223  0.27850  1.0000
  Fe  Fe131     1.0  0.88525  0.00881  0.30823  1.0000
  H   H760      1.0  0.53903  0.01270  0.17306  1.0000
  C   C761      1.0  0.79495  0.01264  0.22696  1.0000
  C   C762      1.0  0.81023  0.22025  0.01656  1.0000
  C   C763      1.0  0.00212  0.18522  0.39854  1.0000
  C   C764      1.0  0.70513  0.08281  0.48500  1.0000
  S   S254      1.0  0.00009  0.13045  0.29324  1.0000
  H   H761      1.0  0.99069  0.23947  0.26642  1.0000
  C   C765      1.0  0.53148  0.08754  0.29475  1.0000
  H   H762      1.0  0.53143  0.05841  0.27739  1.0000
  H   H763      1.0  0.54541  0.09327  0.28570  1.0000
  H   H764      1.0  0.75444  0.05305  0.42597  1.0000
  N   N60       1.0  0.52033  0.18231  0.27779  1.0000
  C   C766      1.0  0.60576  0.19229  0.44676  1.0000
  C   C767      1.0  0.58460  0.19860  0.44201  1.0000
  C   C768      1.0  0.57692  0.19537  0.42177  1.0000
  C   C769      1.0  0.59044  0.18596  0.40591  1.0000
  C   C770      1.0  0.61177  0.18014  0.41047  1.0000
  C   C771      1.0  0.61938  0.18311  0.43084  1.0000
  H   H765      1.0  0.57396  0.20583  0.45418  1.0000
  H   H766      1.0  0.56058  0.20019  0.41841  1.0000
  H   H767      1.0  0.62237  0.17291  0.39826  1.0000
  H   H768      1.0  0.63569  0.17818  0.43425  1.0000
  H   H769      1.0  0.79054  0.03513  0.41995  1.0000
  H   H770      1.0  0.52959  0.17217  0.41953  1.0000
  C   C772      1.0  0.67322  0.14947  0.07639  1.0000
  H   H771      1.0  0.56140  0.14025  0.40949  1.0000
  S   S255      1.0  0.99682  0.22139  0.45129  1.0000
  S   S256      1.0  0.99858  0.19684  0.28374  1.0000
  C   C773      1.0  0.52839  0.15859  0.43144  1.0000
  C   C774      1.0  0.76665  0.05454  0.43732  1.0000
  C   C775      1.0  0.69961  0.10341  0.49246  1.0000
  S   S257      1.0  0.82442  0.01077  0.25831  1.0000
  C   C776      1.0  0.51125  0.24483  0.29816  1.0000
  C   C777      1.0  0.97915  0.20384  0.18594  1.0000
  C   C778      1.0  0.68351  0.14452  0.09534  1.0000
  H   H772      1.0  0.57024  0.21196  0.25638  1.0000
  H   H773      1.0  0.66388  0.22253  0.41003  1.0000
  H   H774      1.0  0.68900  0.12042  0.12034  1.0000
  H   H775      1.0  0.93013  0.25147  0.46537  1.0000
  H   H776      1.0  0.69375  0.15587  0.10165  1.0000
  C   C779      1.0  0.77201  0.07946  0.48983  1.0000
  C   C780      1.0  0.52155  0.09997  0.31106  1.0000
  H   H777      1.0  0.81105  0.18570  0.01831  1.0000
  C   C781      1.0  0.78682  0.04431  0.43407  1.0000
  H   H778      1.0  0.62986  0.22878  0.01219  1.0000
  C   C782      1.0  0.77945  0.19842  0.01133  1.0000
  H   H779      1.0  0.66591  0.09456  0.10527  1.0000
  H   H780      1.0  0.96985  0.19208  0.17817  1.0000
  H   H781      1.0  0.99561  0.20399  0.17826  1.0000
  H   H782      1.0  0.65737  0.15396  0.03905  1.0000
  C   C783      1.0  0.55418  0.15713  0.45966  1.0000
  C   C784      1.0  0.74483  0.06019  0.04113  1.0000
  C   C785      1.0  0.79771  0.23912  0.01317  1.0000
  N   N61       1.0  0.77727  0.06781  0.47029  1.0000
  Fe  Fe132     1.0  0.00587  0.16441  0.30127  1.0000
  C   C786      1.0  0.95052  0.18726  0.49452  1.0000
  H   H783      1.0  0.67087  0.02008  0.23444  1.0000
  N   N62       1.0  0.87118  0.05634  0.26662  1.0000
  C   C787      1.0  0.88641  0.06729  0.27570  1.0000
  C   C788      1.0  0.84991  0.06052  0.27192  1.0000
  C   C789      1.0  0.88060  0.08204  0.29136  1.0000
  C   C790      1.0  0.84350  0.07518  0.28752  1.0000
  C   C791      1.0  0.85899  0.08587  0.29741  1.0000
  C   C792      1.0  0.87779  0.04061  0.25061  1.0000
  H   H784      1.0  0.90326  0.06422  0.27125  1.0000
  H   H785      1.0  0.83777  0.05214  0.26446  1.0000
  H   H786      1.0  0.89285  0.09016  0.29898  1.0000
  H   H787      1.0  0.64846  0.10388  0.07145  1.0000
  H   H788      1.0  0.85430  0.09703  0.30977  1.0000
  C   C793      1.0  0.00529  0.20886  0.25800  1.0000
  C   C794      1.0  0.79694  0.05742  0.46745  1.0000
  N   N63       1.0  0.73557  0.02513  0.06809  1.0000
  H   H789      1.0  0.99510  0.05341  0.30257  1.0000
  H   H790      1.0  0.99177  0.18132  0.38620  1.0000
  H   H791      1.0  0.98868  0.23412  0.35967  1.0000
  C   C795      1.0  0.65791  0.11557  0.07834  1.0000
  C   C796      1.0  0.73029  0.04565  0.03537  1.0000
  H   H792      1.0  0.65198  0.12637  0.03741  1.0000
  H   H793      1.0  0.79812  0.02942  0.22550  1.0000
  N   N64       1.0  0.96866  0.22523  0.18397  1.0000
  H   H794      1.0  0.57853  0.15635  0.48285  1.0000
  H   H795      1.0  0.70015  0.07859  0.46956  1.0000
  H   H796      1.0  0.63390  0.01302  0.17344  1.0000
  H   H797      1.0  0.52332  0.00999  0.32316  1.0000
  C   C797      1.0  0.80116  0.20012  0.01561  1.0000
  C   C798      1.0  0.75478  0.05698  0.06044  1.0000
  S   S258      1.0  0.71025  0.23813  0.48632  1.0000
  C   C799      1.0  0.00834  0.21963  0.33435  1.0000
  C   C800      1.0  0.95566  0.25459  0.16160  1.0000
  N   N65       1.0  0.54952  0.15254  0.43935  1.0000
  C   C801      1.0  0.66772  0.11021  0.09747  1.0000
  H   H798      1.0  0.63297  0.14426  0.05159  1.0000
  H   H799      1.0  0.82664  0.07794  0.29210  1.0000
  H   H800      1.0  0.94668  0.23371  0.44893  1.0000
  N   N66       1.0  0.66089  0.13491  0.06796  1.0000
  N   N67       1.0  0.94234  0.22328  0.48176  1.0000
  H   H801      1.0  0.69049  0.11487  0.48279  1.0000
  H   H802      1.0  0.54234  0.24212  0.31119  1.0000
  C   C802      1.0  0.71702  0.06765  0.49732  1.0000
  C   C803      1.0  0.63467  0.23314  0.42673  1.0000
  C   C804      1.0  0.95113  0.20322  0.47823  1.0000
  C   C805      1.0  0.99425  0.19845  0.41519  1.0000
  S   S259      1.0  0.85071  0.02090  0.31085  1.0000
  C   C806      1.0  0.80203  0.04556  0.44930  1.0000
  H   H803      1.0  0.54212  0.15611  0.28527  1.0000
  C   C807      1.0  0.60267  0.01241  0.19022  1.0000
  C   C808      1.0  0.96592  0.23436  0.16404  1.0000
  C   C809      1.0  0.00433  0.22710  0.35490  1.0000
  C   C810      1.0  0.74986  0.03929  0.07386  1.0000
  C   C811      1.0  0.94452  0.24030  0.46513  1.0000
  C   C812      1.0  0.59020  0.14218  0.45346  1.0000
  C   C813      1.0  0.95168  0.25637  0.19996  1.0000
  S   S260      1.0  0.65189  0.22177  0.50782  1.0000
  C   C814      1.0  0.00659  0.06504  0.36409  1.0000
  H   H804      1.0  0.81747  0.03695  0.44732  1.0000
  H   H805      1.0  0.77227  0.01481  0.20196  1.0000
  C   C815      1.0  0.52359  0.06771  0.28999  1.0000
  H   H806      1.0  0.98446  0.07023  0.33929  1.0000
  C   C816      1.0  0.72792  0.25571  0.49754  1.0000
  S   S261      1.0  0.76912  0.17240  0.00993  1.0000
  H   H807      1.0  0.89244  0.03120  0.25537  1.0000
  C   C817      1.0  0.66100  0.24710  0.45675  1.0000
  H   H808      1.0  0.72203  0.04842  0.02068  1.0000
  H   H809      1.0  0.78597  0.08801  0.49457  1.0000
  H   H810      1.0  0.95796  0.17154  0.49175  1.0000
  C   C818      1.0  0.65697  0.23054  0.42397  1.0000
  H   H811      1.0  0.95916  0.19958  0.46292  1.0000
  H   H812      1.0  0.74786  0.07426  0.03091  1.0000
  C   C819      1.0  0.65024  0.14016  0.04806  1.0000
  H   H813      1.0  0.59731  0.02790  0.18373  1.0000
  H   H814      1.0  0.60627  0.13880  0.45876  1.0000
  H   H815      1.0  0.80865  0.05782  0.47950  1.0000
  Fe  Fe133     1.0  0.51280  0.19988  0.33968  1.0000
  S   S262      1.0  0.78077  0.02149  0.50550  1.0000
  H   H816      1.0  0.92622  0.24395  0.50426  1.0000
  H   H817      1.0  0.69856  0.23232  0.41903  1.0000
  H   H818      1.0  0.97189  0.22608  0.14991  1.0000
  N   N68       1.0  0.66983  0.23774  0.43877  1.0000
  C   C820      1.0  0.93285  0.22800  0.50131  1.0000
  C   C821      1.0  0.53259  0.25004  0.29923  1.0000
  H   H819      1.0  0.96427  0.22895  0.21766  1.0000
  H   H820      1.0  0.75856  0.09154  0.48770  1.0000
  C   C822      1.0  0.51796  0.20245  0.26873  1.0000
  H   H821      1.0  0.82690  0.22113  0.01991  1.0000
  H   H822      1.0  0.00602  0.07970  0.30002  1.0000
  H   H823      1.0  0.70132  0.24823  0.44167  1.0000
  C   C823      1.0  0.00351  0.24069  0.23366  1.0000
  H   H824      1.0  0.63181  0.25657  0.47471  1.0000
  H   H825      1.0  0.69846  0.21995  0.44566  1.0000
  S   S263      1.0  0.56235  0.01162  0.21016  1.0000
  H   H826      1.0  0.95887  0.24935  0.46778  1.0000
  H   H827      1.0  0.67116  0.25236  0.46875  1.0000
  H   H828      1.0  0.60827  0.24386  0.44783  1.0000
  C   C824      1.0  0.62555  0.24262  0.44504  1.0000
  C   C825      1.0  0.77599  0.23744  0.00898  1.0000
  C   C826      1.0  0.62172  0.21423  0.01039  1.0000
  H   H829      1.0  0.99853  0.25728  0.23079  1.0000
  C   C827      1.0  0.63365  0.19461  0.00962  1.0000
  S   S264      1.0  0.66191  0.19448  0.01102  1.0000
  C   C828      1.0  0.59932  0.21526  0.00869  1.0000
  H   H830      1.0  0.59038  0.23049  0.00912  1.0000
  Fe  Fe134     1.0  0.00894  0.23228  0.48276  1.0000
  H   H831      1.0  0.52751  0.25822  0.08218  1.0000
  S   S265      1.0  0.78533  0.01266  0.56785  1.0000
  Fe  Fe135     1.0  0.65404  0.19981  0.53688  1.0000
  S   S266      1.0  0.63994  0.20993  0.56940  1.0000
  H   H832      1.0  0.63183  0.16073  0.00657  1.0000
  H   H833      1.0  0.80300  0.22141  0.96710  1.0000
  S   S267      1.0  0.68961  0.19347  0.53122  1.0000
  Fe  Fe136     1.0  0.53177  0.18603  0.64061  1.0000
  S   S268      1.0  0.55293  0.17535  0.61180  1.0000
  S   S269      1.0  0.53432  0.17942  0.67610  1.0000
  H   H834      1.0  0.69151  0.17287  0.60521  1.0000
  H   H835      1.0  0.54088  0.11527  0.74037  1.0000
  S   S270      1.0  0.71358  0.17086  0.97991  1.0000
  C   C829      1.0  0.80160  0.00882  0.75743  1.0000
  Fe  Fe137     1.0  0.70932  0.13606  0.97387  1.0000
  S   S271      1.0  0.70445  0.12559  0.94003  1.0000
  C   C830      1.0  0.84740  0.24934  0.95989  1.0000
  H   H836      1.0  0.76603  0.25182  0.00642  1.0000
  H   H837      1.0  0.79421  0.02755  0.60884  1.0000
  S   S272      1.0  0.71026  0.02323  0.83750  1.0000
  S   S273      1.0  0.71917  0.03179  0.90306  1.0000
  H   H838      1.0  0.92498  0.21654  0.53360  1.0000
  H   H839      1.0  0.83396  0.03030  0.78435  1.0000
  H   H840      1.0  0.58501  0.01612  0.78140  1.0000
  H   H841      1.0  0.94085  0.17991  0.52747  1.0000
  C   C831      1.0  0.94096  0.19198  0.51454  1.0000
  Fe  Fe138     1.0  0.99297  0.13093  0.71220  1.0000
  H   H842      1.0  0.55313  0.09118  0.70002  1.0000
  S   S274      1.0  0.96483  0.11176  0.72550  1.0000
  N   N69       1.0  0.66558  0.16391  0.58781  1.0000
  S   S275      1.0  0.54010  0.05172  0.71996  1.0000
  C   C832      1.0  0.83358  0.01895  0.79850  1.0000
  S   S276      1.0  0.99210  0.16697  0.71151  1.0000
  S   S277      1.0  0.91435  0.04309  0.67853  1.0000
  S   S278      1.0  0.85358  0.02343  0.68315  1.0000
  H   H843      1.0  0.81818  0.01384  0.63713  1.0000
  C   C833      1.0  0.63894  0.13286  0.57608  1.0000
  S   S279      1.0  0.00722  0.12884  0.67879  1.0000
  C   C834      1.0  0.62290  0.17592  0.00738  1.0000
  Fe  Fe139     1.0  0.98505  0.25763  0.51831  1.0000
  H   H844      1.0  0.79047  0.03923  0.76978  1.0000
  C   C835      1.0  0.95201  0.09150  0.71280  1.0000
  C   C836      1.0  0.93409  0.08226  0.72331  1.0000
  C   C837      1.0  0.92272  0.06695  0.71337  1.0000
  C   C838      1.0  0.92910  0.06080  0.69269  1.0000
  C   C839      1.0  0.94723  0.06983  0.68231  1.0000
  C   C840      1.0  0.95870  0.08500  0.69231  1.0000
  H   H845      1.0  0.92880  0.08712  0.73919  1.0000
  H   H846      1.0  0.90878  0.06022  0.72154  1.0000
  H   H847      1.0  0.95229  0.06519  0.66631  1.0000
  H   H848      1.0  0.97235  0.09202  0.68394  1.0000
  C   C841      1.0  0.85681  0.21212  0.96748  1.0000
  C   C842      1.0  0.64598  0.16184  0.59831  1.0000
  H   H849      1.0  0.69223  0.03162  0.77922  1.0000
  H   H850      1.0  0.54099  0.20597  0.57777  1.0000
  H   H851      1.0  0.59229  0.16245  0.00395  1.0000
  Fe  Fe140     1.0  0.53497  0.22449  0.00543  1.0000
  H   H852      1.0  0.68806  0.15183  0.56384  1.0000
  S   S280      1.0  0.82196  0.02039  0.74017  1.0000
  C   C843      1.0  0.53580  0.09197  0.70125  1.0000
  H   H853      1.0  0.66456  0.12430  0.55301  1.0000
  H   H854      1.0  0.65792  0.01619  0.77269  1.0000
  H   H855      1.0  0.99704  0.22084  0.58023  1.0000
  H   H856      1.0  0.53315  0.12482  0.68924  1.0000
  H   H857      1.0  0.61629  0.03396  0.79392  1.0000
  H   H858      1.0  0.72272  0.09808  0.54019  1.0000
  C   C844      1.0  0.80458  0.01347  0.60615  1.0000
  S   S281      1.0  0.69975  0.13483  0.52277  1.0000
  Fe  Fe141     1.0  0.51710  0.21201  0.68013  1.0000
  H   H859      1.0  0.95423  0.12069  0.62837  1.0000
  H   H860      1.0  0.97083  0.15284  0.64073  1.0000
  C   C845      1.0  0.70802  0.09923  0.93027  1.0000
  C   C846      1.0  0.71711  0.08221  0.94240  1.0000
  C   C847      1.0  0.72024  0.06176  0.93381  1.0000
  C   C848      1.0  0.71415  0.05791  0.91309  1.0000
  C   C849      1.0  0.70475  0.07485  0.90107  1.0000
  C   C850      1.0  0.70183  0.09538  0.90958  1.0000
  H   H861      1.0  0.72204  0.08488  0.95828  1.0000
  H   H862      1.0  0.72759  0.04885  0.94324  1.0000
  H   H863      1.0  0.70004  0.07223  0.88510  1.0000
  H   H864      1.0  0.69485  0.10839  0.89998  1.0000
  C   C851      1.0  0.53990  0.10205  0.75273  1.0000
  H   H865      1.0  0.86878  0.19929  0.97010  1.0000
  C   C852      1.0  0.63230  0.14641  0.59251  1.0000
  C   C853      1.0  0.51441  0.07510  0.76453  1.0000
  H   H866      1.0  0.76414  0.02413  0.79680  1.0000
  C   C854      1.0  0.67239  0.15040  0.57198  1.0000
  H   H867      1.0  0.64051  0.17261  0.61079  1.0000
  S   S282      1.0  0.53110  0.23510  0.70288  1.0000
  C   C855      1.0  0.99854  0.22644  0.78389  1.0000
  H   H868      1.0  0.55059  0.08866  0.74659  1.0000
  S   S283      1.0  0.73357  0.12429  0.99733  1.0000
  Fe  Fe142     1.0  0.88868  0.01974  0.69012  1.0000
  C   C856      1.0  0.52170  0.25578  0.72053  1.0000
  C   C857      1.0  0.72322  0.07330  0.51730  1.0000
  C   C858      1.0  0.71776  0.09391  0.52472  1.0000
  C   C859      1.0  0.61501  0.20134  0.58043  1.0000
  C   C860      1.0  0.60717  0.20843  0.60052  1.0000
  C   C861      1.0  0.58807  0.20083  0.61036  1.0000
  C   C862      1.0  0.57675  0.18593  0.60021  1.0000
  C   C863      1.0  0.58452  0.17899  0.58007  1.0000
  C   C864      1.0  0.60347  0.18672  0.57016  1.0000
  H   H869      1.0  0.61604  0.21971  0.60861  1.0000
  H   H870      1.0  0.58226  0.20627  0.62589  1.0000
  H   H871      1.0  0.57585  0.16746  0.57210  1.0000
  H   H872      1.0  0.60934  0.18110  0.55473  1.0000
  C   C865      1.0  0.58856  0.19662  0.00631  1.0000
  H   H873      1.0  0.98188  0.23198  0.78424  1.0000
  C   C866      1.0  0.99705  0.20601  0.61208  1.0000
  H   H874      1.0  0.53338  0.24846  0.77815  1.0000
  C   C867      1.0  0.53621  0.25481  0.59914  1.0000
  S   S284      1.0  0.64556  0.17076  0.52033  1.0000
  H   H875      1.0  0.82996  0.19190  0.97262  1.0000
  H   H876      1.0  0.84564  0.02326  0.80965  1.0000
  H   H877      1.0  0.56332  0.23449  0.58862  1.0000
  H   H878      1.0  0.98564  0.21774  0.61886  1.0000
  H   H879      1.0  0.62840  0.12100  0.57123  1.0000
  H   H880      1.0  0.99517  0.20421  0.75886  1.0000
  C   C868      1.0  0.00345  0.20777  0.59015  1.0000
  H   H881      1.0  0.54593  0.10731  0.76783  1.0000
  Fe  Fe143     1.0  0.52809  0.02077  0.73585  1.0000
  C   C869      1.0  0.83509  0.20796  0.96881  1.0000
  C   C870      1.0  0.86304  0.23291  0.96285  1.0000
  C   C871      1.0  0.95868  0.14493  0.65080  1.0000
  S   S285      1.0  0.65117  0.01968  0.81961  1.0000
  H   H882      1.0  0.56097  0.25580  0.80356  1.0000
  H   H883      1.0  0.73223  0.06182  0.52706  1.0000
  S   S286      1.0  0.98812  0.22272  0.51176  1.0000
  C   C872      1.0  0.52492  0.07413  0.70960  1.0000
  S   S287      1.0  0.51697  0.21913  0.64441  1.0000
  C   C873      1.0  0.53326  0.22042  0.58412  1.0000
  N   N70       1.0  0.51141  0.22261  0.58652  1.0000
  H   H884      1.0  0.98140  0.22923  0.93324  1.0000
  C   C874      1.0  0.54598  0.23649  0.59030  1.0000
  C   C875      1.0  0.52451  0.11107  0.69512  1.0000
  H   H885      1.0  0.67053  0.19359  0.60181  1.0000
  C   C876      1.0  0.00603  0.21063  0.76945  1.0000
  Fe  Fe144     1.0  0.71015  0.01510  0.87314  1.0000
  C   C877      1.0  0.65916  0.13473  0.56583  1.0000
  C   C878      1.0  0.78861  0.02216  0.77093  1.0000
  N   N71       1.0  0.93752  0.14244  0.68396  1.0000
  C   C879      1.0  0.92791  0.12508  0.67709  1.0000
  C   C880      1.0  0.95245  0.15259  0.67096  1.0000
  C   C881      1.0  0.93372  0.11703  0.65699  1.0000
  C   C882      1.0  0.67979  0.18011  0.59407  1.0000
  C   C883      1.0  0.94932  0.12695  0.64386  1.0000
  C   C884      1.0  0.93109  0.15084  0.70496  1.0000
  H   H886      1.0  0.91614  0.11693  0.68740  1.0000
  H   H887      1.0  0.95981  0.16661  0.67618  1.0000
  H   H888      1.0  0.92647  0.10286  0.65193  1.0000
  H   H889      1.0  0.94513  0.15672  0.71259  1.0000
  H   H890      1.0  0.91877  0.16408  0.70329  1.0000
  H   H891      1.0  0.92469  0.13814  0.71611  1.0000
  N   N72       1.0  0.64919  0.18374  0.95447  1.0000
  C   C885      1.0  0.62729  0.18461  0.95667  1.0000
  C   C886      1.0  0.66025  0.16505  0.94953  1.0000
  C   C887      1.0  0.61593  0.16625  0.95467  1.0000
  C   C888      1.0  0.64941  0.14640  0.94737  1.0000
  C   C889      1.0  0.62712  0.14702  0.95007  1.0000
  C   C890      1.0  0.66084  0.20317  0.95636  1.0000
  H   H892      1.0  0.61847  0.19940  0.96065  1.0000
  H   H893      1.0  0.67760  0.16440  0.94733  1.0000
  H   H894      1.0  0.59859  0.16694  0.95707  1.0000
  H   H895      1.0  0.65834  0.13156  0.94367  1.0000
  H   H896      1.0  0.61856  0.13261  0.94861  1.0000
  H   H897      1.0  0.67636  0.19937  0.96377  1.0000
  H   H898      1.0  0.66385  0.21101  0.94034  1.0000
  H   H899      1.0  0.65174  0.21456  0.96704  1.0000
  H   H900      1.0  0.68848  0.18725  0.57976  1.0000
  S   S288      1.0  0.68126  0.13400  0.99764  1.0000
  C   C891      1.0  0.81987  0.22476  0.96566  1.0000
  H   H901      1.0  0.71906  0.24815  0.53055  1.0000
  H   H902      1.0  0.61647  0.14534  0.60043  1.0000
  H   H903      1.0  0.00476  0.08667  0.71350  1.0000
  C   C892      1.0  0.93203  0.21247  0.51799  1.0000
  C   C893      1.0  0.52885  0.25647  0.79288  1.0000
  C   C894      1.0  0.72903  0.25765  0.51962  1.0000
  Fe  Fe145     1.0  0.68717  0.16743  0.00563  1.0000
  C   C895      1.0  0.61385  0.01746  0.79874  1.0000
  H   H904      1.0  0.87989  0.23642  0.96170  1.0000
  N   N73       1.0  0.82612  0.24520  0.96170  1.0000
  Fe  Fe146     1.0  0.73593  0.15918  0.00526  1.0000
  C   C896      1.0  0.70594  0.10910  0.51239  1.0000
  C   C897      1.0  0.00530  0.18921  0.62531  1.0000
  S   S289      1.0  0.99635  0.18758  0.65274  1.0000
  Fe  Fe147     1.0  0.68100  0.16558  0.51234  1.0000
  H   H905      1.0  0.52785  0.06398  0.76750  1.0000
  N   N74       1.0  0.51788  0.09529  0.75643  1.0000
  C   C898      1.0  0.60048  0.17696  0.00579  1.0000
  H   H906      1.0  0.81730  0.02098  0.80645  1.0000
  C   C899      1.0  0.99132  0.24287  0.93344  1.0000
  C   C900      1.0  0.51390  0.25692  0.60156  1.0000
  S   S290      1.0  0.00198  0.25583  0.81495  1.0000
  C   C901      1.0  0.76693  0.21731  0.00802  1.0000
  H   H907      1.0  0.00340  0.06116  0.70188  1.0000
  H   H908      1.0  0.75023  0.21641  0.00476  1.0000
  C   C902      1.0  0.69164  0.01459  0.77716  1.0000
  S   S291      1.0  0.56053  0.19697  0.00312  1.0000
  S   S292      1.0  0.52646  0.01735  0.77174  1.0000
  C   C903      1.0  0.77362  0.01364  0.78630  1.0000
  Fe  Fe148     1.0  0.00905  0.16447  0.67880  1.0000
  C   C904      1.0  0.97191  0.33136  0.08824  1.0000
  S   S293      1.0  0.65246  0.49271  0.22714  1.0000
  Fe  Fe149     1.0  0.68174  0.47398  0.17405  1.0000
  S   S294      1.0  0.68749  0.45708  0.20596  1.0000
  S   S295      1.0  0.69348  0.46145  0.14155  1.0000
  Fe  Fe150     1.0  0.65155  0.46065  0.21206  1.0000
  S   S296      1.0  0.62982  0.43548  0.22765  1.0000
  Fe  Fe151     1.0  0.68820  0.49014  0.21883  1.0000
  H   H909      1.0  0.80353  0.31044  0.04259  1.0000
  S   S297      1.0  0.64592  0.47505  0.17961  1.0000
  Fe  Fe152     1.0  0.52825  0.31779  0.22440  1.0000
  S   S298      1.0  0.54912  0.31916  0.19391  1.0000
  S   S299      1.0  0.54032  0.29735  0.25300  1.0000
  C   C905      1.0  0.99121  0.31928  0.08656  1.0000
  N   N75       1.0  0.79717  0.34422  0.04037  1.0000
  S   S300      1.0  0.84268  0.36791  0.49912  1.0000
  Fe  Fe153     1.0  0.54260  0.35479  0.19320  1.0000
  S   S301      1.0  0.56765  0.37789  0.17971  1.0000
  S   S302      1.0  0.52418  0.35378  0.22506  1.0000
  H   H910      1.0  0.79728  0.46233  0.27036  1.0000
  H   H911      1.0  0.96479  0.47176  0.21117  1.0000
  C   C906      1.0  0.56029  0.36720  0.12628  1.0000
  H   H912      1.0  0.81631  0.38702  0.38283  1.0000
  S   S303      1.0  0.98889  0.30004  0.18522  1.0000
  C   C907      1.0  0.94144  0.49440  0.30050  1.0000
  Fe  Fe154     1.0  0.98205  0.30386  0.15018  1.0000
  S   S304      1.0  0.94832  0.30934  0.13822  1.0000
  H   H913      1.0  0.81933  0.43036  0.02140  1.0000
  Fe  Fe155     1.0  0.88587  0.28462  0.03310  1.0000
  S   S305      1.0  0.91211  0.27181  0.05496  1.0000
  S   S306      1.0  0.85234  0.29833  0.04039  1.0000
  S   S307      1.0  0.83034  0.46985  0.33068  1.0000
  S   S308      1.0  0.77175  0.47318  0.31717  1.0000
  H   H914      1.0  0.93106  0.34230  0.50037  1.0000
  H   H915      1.0  0.91965  0.30316  0.46687  1.0000
  Fe  Fe156     1.0  0.83189  0.46945  0.36641  1.0000
  S   S309      1.0  0.84522  0.44019  0.38486  1.0000
  H   H916      1.0  0.57316  0.28304  0.11982  1.0000
  C   C908      1.0  0.89774  0.30470  0.49464  1.0000
  C   C909      1.0  0.79523  0.38478  0.05684  1.0000
  S   S310      1.0  0.81417  0.33161  0.47843  1.0000
  C   C910      1.0  0.57431  0.45653  0.20670  1.0000
  C   C911      1.0  0.54128  0.26582  0.28500  1.0000
  C   C912      1.0  0.57432  0.30982  0.14002  1.0000
  Fe  Fe157     1.0  0.81046  0.36665  0.48541  1.0000
  S   S311      1.0  0.79607  0.39290  0.46342  1.0000
  H   H917      1.0  0.55770  0.26999  0.28626  1.0000
  C   C913      1.0  0.73237  0.50244  0.10741  1.0000
  H   H918      1.0  0.84649  0.40217  0.03207  1.0000
  Fe  Fe158     1.0  0.99591  0.49111  0.27359  1.0000
  S   S312      1.0  0.96948  0.48769  0.30017  1.0000
  H   H919      1.0  0.57320  0.46804  0.17391  1.0000
  H   H920      1.0  0.54632  0.37015  0.13774  1.0000
  H   H921      1.0  0.00403  0.37941  0.17196  1.0000
  N   N76       1.0  0.96085  0.31615  0.05637  1.0000
  Fe  Fe159     1.0  0.64909  0.50685  0.19386  1.0000
  C   C914      1.0  0.94516  0.31502  0.04002  1.0000
  H   H922      1.0  0.79493  0.40082  0.06270  1.0000
  S   S313      1.0  0.79226  0.48620  0.02453  1.0000
  H   H923      1.0  0.59209  0.50109  0.18001  1.0000
  N   N77       1.0  0.95608  0.45000  0.23655  1.0000
  C   C915      1.0  0.52329  0.27285  0.09032  1.0000
  C   C916      1.0  0.91746  0.29927  0.48382  1.0000
  H   H924      1.0  0.88221  0.49407  0.40534  1.0000
  H   H925      1.0  0.55549  0.34440  0.09166  1.0000
  C   C917      1.0  0.83185  0.42816  0.40756  1.0000
  C   C918      1.0  0.84186  0.41048  0.41813  1.0000
  C   C919      1.0  0.83143  0.39995  0.43577  1.0000
  C   C920      1.0  0.81082  0.40702  0.44295  1.0000
  C   C921      1.0  0.80095  0.42494  0.43259  1.0000
  C   C922      1.0  0.81139  0.43548  0.41498  1.0000
  H   H926      1.0  0.85770  0.40471  0.41250  1.0000
  H   H927      1.0  0.83915  0.38610  0.44352  1.0000
  H   H928      1.0  0.78499  0.43049  0.43803  1.0000
  H   H929      1.0  0.80352  0.44909  0.40700  1.0000
  C   C923      1.0  0.59986  0.48182  0.25109  1.0000
  C   C924      1.0  0.77833  0.47322  0.24417  1.0000
  S   S314      1.0  0.99146  0.49973  0.23880  1.0000
  C   C925      1.0  0.92842  0.48803  0.31846  1.0000
  Fe  Fe160     1.0  0.51599  0.26424  0.02726  1.0000
  C   C926      1.0  0.00759  0.38722  0.18631  1.0000
  C   C927      1.0  0.79930  0.32334  0.03061  1.0000
  N   N78       1.0  0.56440  0.34416  0.12408  1.0000
  C   C928      1.0  0.93861  0.29884  0.11492  1.0000
  C   C929      1.0  0.91889  0.30696  0.10750  1.0000
  C   C930      1.0  0.91062  0.29911  0.08905  1.0000
  C   C931      1.0  0.92179  0.28266  0.07809  1.0000
  C   C932      1.0  0.94150  0.27452  0.08554  1.0000
  C   C933      1.0  0.95001  0.28272  0.10366  1.0000
  H   H930      1.0  0.90993  0.31943  0.11607  1.0000
  H   H931      1.0  0.89543  0.30551  0.08356  1.0000
  N   N79       1.0  0.78460  0.39951  0.39075  1.0000
  H   H932      1.0  0.71895  0.49946  0.13998  1.0000
  C   C934      1.0  0.96764  0.41363  0.24498  1.0000
  C   C935      1.0  0.96387  0.43929  0.27265  1.0000
  C   C936      1.0  0.95018  0.46673  0.22059  1.0000
  C   C937      1.0  0.51173  0.31020  0.08938  1.0000
  H   H933      1.0  0.93566  0.47941  0.33174  1.0000
  H   H934      1.0  0.77165  0.35586  0.02122  1.0000
  H   H935      1.0  0.93886  0.46078  0.20950  1.0000
  H   H936      1.0  0.82914  0.48374  0.27874  1.0000
  H   H937      1.0  0.75374  0.41524  0.39536  1.0000
  H   H938      1.0  0.71874  0.46267  0.26381  1.0000
  H   H939      1.0  0.97212  0.39766  0.23973  1.0000
  H   H940      1.0  0.76967  0.39200  0.03571  1.0000
  H   H941      1.0  0.74165  0.45158  0.29389  1.0000
  C   C938      1.0  0.52432  0.27337  0.11271  1.0000
  C   C939      1.0  0.75448  0.48252  0.29658  1.0000
  H   H942      1.0  0.74051  0.26705  0.46660  1.0000
  S   S315      1.0  0.71350  0.50375  0.23926  1.0000
  C   C940      1.0  0.61325  0.41899  0.21398  1.0000
  C   C941      1.0  0.61271  0.41985  0.19167  1.0000
  C   C942      1.0  0.59869  0.40715  0.18153  1.0000
  C   C943      1.0  0.58499  0.39346  0.19349  1.0000
  C   C944      1.0  0.58544  0.39268  0.21580  1.0000
  C   C945      1.0  0.59952  0.40533  0.22594  1.0000
  H   H943      1.0  0.62314  0.43025  0.18223  1.0000
  H   H944      1.0  0.59856  0.40787  0.16427  1.0000
  H   H945      1.0  0.57506  0.38222  0.22523  1.0000
  H   H946      1.0  0.59980  0.40450  0.24320  1.0000
  C   C946      1.0  0.70958  0.47413  0.12103  1.0000
  C   C947      1.0  0.71150  0.46541  0.10066  1.0000
  C   C948      1.0  0.72349  0.47532  0.08364  1.0000
  H   H947      1.0  0.80782  0.49769  0.29393  1.0000
  H   H948      1.0  0.94667  0.26505  0.21413  1.0000
  Fe  Fe161     1.0  0.86019  0.32307  0.01431  1.0000
  H   H949      1.0  0.70347  0.45099  0.09798  1.0000
  H   H950      1.0  0.72446  0.46869  0.06796  1.0000
  C   C949      1.0  0.77199  0.42954  0.36895  1.0000
  H   H951      1.0  0.57924  0.44855  0.23975  1.0000
  C   C950      1.0  0.52889  0.27644  0.26934  1.0000
  H   H952      1.0  0.82225  0.37330  0.07463  1.0000
  Fe  Fe162     1.0  0.51877  0.31757  0.17661  1.0000
  Fe  Fe163     1.0  0.79830  0.48762  0.33513  1.0000
  H   H953      1.0  0.56669  0.44178  0.20413  1.0000
  C   C951      1.0  0.93183  0.50557  0.28345  1.0000
  C   C952      1.0  0.97982  0.30432  0.05457  1.0000
  H   H954      1.0  0.98302  0.29361  0.04152  1.0000
  H   H955      1.0  0.56176  0.30545  0.08844  1.0000
  H   H956      1.0  0.61428  0.47105  0.25350  1.0000
  H   H957      1.0  0.82273  0.41325  0.35289  1.0000
  H   H958      1.0  0.63819  0.50667  0.14147  1.0000
  H   H959      1.0  0.94175  0.33892  0.07442  1.0000
  C   C953      1.0  0.79137  0.42888  0.35683  1.0000
  S   S316      1.0  0.00449  0.26757  0.48876  1.0000
  C   C954      1.0  0.75520  0.28261  0.49170  1.0000
  H   H960      1.0  0.58749  0.47821  0.26396  1.0000
  C   C955      1.0  0.51254  0.31067  0.11181  1.0000
  Fe  Fe164     1.0  0.75801  0.49794  0.03206  1.0000
  H   H961      1.0  0.92858  0.31867  0.04669  1.0000
  C   C956      1.0  0.95686  0.32971  0.07282  1.0000
  Fe  Fe165     1.0  0.84551  0.33243  0.49468  1.0000
  C   C957      1.0  0.78068  0.38363  0.40822  1.0000
  H   H962      1.0  0.60438  0.49855  0.25272  1.0000
  H   H963      1.0  0.77149  0.37051  0.40262  1.0000
  C   C958      1.0  0.78223  0.35932  0.03356  1.0000
  H   H964      1.0  0.53183  0.31450  0.30450  1.0000
  H   H965      1.0  0.60431  0.50717  0.21577  1.0000
  S   S317      1.0  0.51589  0.29177  0.05024  1.0000
  H   H966      1.0  0.76520  0.29211  0.48079  1.0000
  H   H967      1.0  0.79406  0.44048  0.34374  1.0000
  N   N80       1.0  0.59181  0.47859  0.23003  1.0000
  C   C959      1.0  0.51887  0.29222  0.12360  1.0000
  C   C960      1.0  0.59565  0.49303  0.21345  1.0000
  H   H968      1.0  0.99818  0.41881  0.17406  1.0000
  C   C961      1.0  0.93449  0.28917  0.49479  1.0000
  H   H969      1.0  0.94968  0.28541  0.48633  1.0000
  H   H970      1.0  0.89637  0.48777  0.33341  1.0000
  H   H971      1.0  0.52925  0.25900  0.12167  1.0000
  C   C962      1.0  0.86788  0.49324  0.41587  1.0000
  S   S318      1.0  0.51334  0.35339  0.17382  1.0000
  C   C963      1.0  0.51699  0.29129  0.07851  1.0000
  C   C964      1.0  0.72016  0.49267  0.12437  1.0000
  C   C965      1.0  0.96904  0.41853  0.26634  1.0000
  H   H972      1.0  0.94233  0.48103  0.22818  1.0000
  S   S319      1.0  0.87485  0.26262  0.00870  1.0000
  C   C966      1.0  0.80732  0.41341  0.36178  1.0000
  H   H973      1.0  0.57440  0.37430  0.13267  1.0000
  C   C967      1.0  0.74145  0.46794  0.28769  1.0000
  H   H974      1.0  0.55693  0.37565  0.11082  1.0000
  C   C968      1.0  0.90611  0.49276  0.31946  1.0000
  H   H975      1.0  0.96516  0.44346  0.28916  1.0000
  H   H976      1.0  0.75961  0.44169  0.36518  1.0000
  C   C969      1.0  0.96115  0.42969  0.23020  1.0000
  H   H977      1.0  0.79593  0.37672  0.41448  1.0000
  H   H978      1.0  0.57341  0.33933  0.15627  1.0000
  C   C970      1.0  0.58879  0.48962  0.19309  1.0000
  S   S320      1.0  0.84882  0.50020  0.36604  1.0000
  H   H979      1.0  0.87047  0.45875  0.41907  1.0000
  H   H980      1.0  0.77165  0.39107  0.42204  1.0000
  H   H981      1.0  0.94878  0.32650  0.02649  1.0000
  H   H982      1.0  0.97440  0.40635  0.27792  1.0000
  H   H983      1.0  0.81210  0.32357  0.01760  1.0000
  C   C971      1.0  0.84255  0.47190  0.43652  1.0000
  H   H984      1.0  0.78416  0.31907  0.02386  1.0000
  C   C972      1.0  0.72803  0.49523  0.26217  1.0000
  S   S321      1.0  0.79899  0.48467  0.37113  1.0000
  H   H985      1.0  0.82389  0.33748  0.05964  1.0000
  H   H986      1.0  0.96841  0.34150  0.10173  1.0000
  C   C973      1.0  0.80362  0.39868  0.37882  1.0000
  H   H987      1.0  0.95396  0.47111  0.26241  1.0000
  C   C974      1.0  0.74112  0.26834  0.48369  1.0000
  C   C975      1.0  0.73386  0.49401  0.08689  1.0000
  C   C976      1.0  0.56117  0.33489  0.10523  1.0000
  C   C977      1.0  0.56476  0.31284  0.10326  1.0000
  C   C978      1.0  0.57119  0.30025  0.12086  1.0000
  C   C979      1.0  0.81050  0.36934  0.06359  1.0000
  Fe  Fe166     1.0  0.84456  0.50190  0.33060  1.0000
  H   H988      1.0  0.83726  0.45645  0.44249  1.0000
  C   C980      1.0  0.76882  0.41460  0.38594  1.0000
  H   H989      1.0  0.96089  0.42598  0.21347  1.0000
  H   H990      1.0  0.94517  0.29862  0.03394  1.0000
  C   C981      1.0  0.95750  0.45494  0.25743  1.0000
  H   H991      1.0  0.51606  0.33654  0.27531  1.0000
  C   C982      1.0  0.83486  0.39869  0.02077  1.0000
  H   H992      1.0  0.96532  0.27646  0.10895  1.0000
  C   C983      1.0  0.57097  0.33196  0.14131  1.0000
  S   S322      1.0  0.87725  0.31838  0.48027  1.0000
  C   C984      1.0  0.81130  0.34905  0.05509  1.0000
  S   S323      1.0  0.85383  0.35816  0.02219  1.0000
  S   S324      1.0  0.74403  0.47504  0.01065  1.0000
  C   C985      1.0  0.72836  0.47420  0.27062  1.0000
  C   C986      1.0  0.57815  0.47118  0.18972  1.0000
  H   H993      1.0  0.57882  0.30013  0.15396  1.0000
  C   C987      1.0  0.86136  0.47322  0.42359  1.0000
  C   C988      1.0  0.58136  0.46049  0.22686  1.0000
  C   C989      1.0  0.78098  0.37979  0.04173  1.0000
  H   H994      1.0  0.94097  0.28156  0.17789  1.0000
  S   S325      1.0  0.51981  0.29151  0.15189  1.0000
  Fe  Fe167     1.0  0.84197  0.27838  0.01390  1.0000
  C   C990      1.0  0.81699  0.49729  0.27826  1.0000
  S   S326      1.0  0.80830  0.26514  0.01333  1.0000
  C   C991      1.0  0.75392  0.50363  0.28835  1.0000
  H   H995      1.0  0.00302  0.32032  0.09839  1.0000
  C   C992      1.0  0.94853  0.26564  0.17967  1.0000
  S   S327      1.0  0.00454  0.27658  0.14089  1.0000
  C   C993      1.0  0.51487  0.31395  0.30197  1.0000
  H   H996      1.0  0.89437  0.35869  0.49921  1.0000
  C   C994      1.0  0.89650  0.50400  0.30248  1.0000
  S   S328      1.0  0.89444  0.31044  0.00863  1.0000
  C   C995      1.0  0.83516  0.37815  0.01254  1.0000
  H   H997      1.0  0.81532  0.48959  0.45074  1.0000
  S   S329      1.0  0.00618  0.32893  0.14327  1.0000
  C   C996      1.0  0.00433  0.40957  0.18754  1.0000
  H   H998      1.0  0.95031  0.26184  0.07714  1.0000
  C   C997      1.0  0.99527  0.30567  0.06966  1.0000
  H   H999      1.0  0.65526  0.48482  0.13156  1.0000
  H   H1000     1.0  0.95355  0.26185  0.14580  1.0000
  C   C998      1.0  0.81947  0.41473  0.01475  1.0000
  S   S330      1.0  0.00608  0.44835  0.20602  1.0000
  C   C999      1.0  0.79337  0.47567  0.25943  1.0000
  C   C1000     1.0  0.83033  0.49049  0.44128  1.0000
  H   H1001     1.0  0.77072  0.45817  0.24325  1.0000
  C   C1001     1.0  0.64760  0.50066  0.12719  1.0000
  H   H1002     1.0  0.67015  0.49985  0.08999  1.0000
  N   N81       1.0  0.80221  0.49493  0.26133  1.0000
  S   S331      1.0  0.68466  0.50673  0.18615  1.0000
  H   H1003     1.0  0.63620  0.49865  0.11461  1.0000
  C   C1002     1.0  0.77216  0.49067  0.23100  1.0000
  H   H1004     1.0  0.75973  0.48925  0.21981  1.0000
  H   H1005     1.0  0.50928  0.28943  0.32654  1.0000
  C   C1003     1.0  0.91325  0.47176  0.74515  1.0000
  H   H1006     1.0  0.77507  0.43290  0.94665  1.0000
  Fe  Fe168     1.0  0.54868  0.36188  0.80049  1.0000
  S   S332      1.0  0.65534  0.49654  0.84914  1.0000
  S   S333      1.0  0.57968  0.37706  0.78847  1.0000
  Fe  Fe169     1.0  0.52991  0.33213  0.83617  1.0000
  S   S334      1.0  0.54369  0.31205  0.86387  1.0000
  S   S335      1.0  0.54679  0.32605  0.80411  1.0000
  H   H1007     1.0  0.99329  0.40987  0.85396  1.0000
  Fe  Fe170     1.0  0.64903  0.47451  0.82289  1.0000
  Fe  Fe171     1.0  0.51427  0.33065  0.79068  1.0000
  S   S336      1.0  0.61920  0.45554  0.83147  1.0000
  Fe  Fe172     1.0  0.68523  0.49287  0.79309  1.0000
  C   C1004     1.0  0.90741  0.48985  0.68390  1.0000
  Fe  Fe173     1.0  0.69029  0.48907  0.84157  1.0000
  S   S337      1.0  0.71636  0.48176  0.86550  1.0000
  S   S338      1.0  0.68411  0.46489  0.81707  1.0000
  H   H1008     1.0  0.78069  0.39384  0.59811  1.0000
  H   H1009     1.0  0.62080  0.35523  0.80242  1.0000
  H   H1010     1.0  0.77833  0.48560  0.75898  1.0000
  H   H1011     1.0  0.74160  0.48760  0.77638  1.0000
  S   S339      1.0  0.84801  0.30418  0.98829  1.0000
  Fe  Fe174     1.0  0.88163  0.28950  0.98472  1.0000
  S   S340      1.0  0.89689  0.27904  0.95266  1.0000
  H   H1012     1.0  0.99997  0.36464  0.82009  1.0000
  C   C1005     1.0  0.92880  0.30822  0.94651  1.0000
  H   H1013     1.0  0.95723  0.32176  0.51966  1.0000
  C   C1006     1.0  0.72103  0.50373  0.93421  1.0000
  S   S341      1.0  0.97892  0.31865  0.90371  1.0000
  Fe  Fe175     1.0  0.81776  0.47592  0.63448  1.0000
  S   S342      1.0  0.51743  0.36622  0.78434  1.0000
  S   S343      1.0  0.80478  0.45871  0.60672  1.0000
  H   H1014     1.0  0.55366  0.26322  0.72771  1.0000
  N   N82       1.0  0.92979  0.33822  0.53442  1.0000
  Fe  Fe176     1.0  0.80906  0.49205  0.68068  1.0000
  S   S344      1.0  0.79483  0.48824  0.71523  1.0000
  S   S345      1.0  0.82954  0.46481  0.66659  1.0000
  Fe  Fe177     1.0  0.00125  0.30630  0.87633  1.0000
  Fe  Fe178     1.0  0.82580  0.35969  0.53080  1.0000
  S   S346      1.0  0.83610  0.37182  0.56230  1.0000
  S   S347      1.0  0.83070  0.32416  0.52716  1.0000
  S   S348      1.0  0.79512  0.50132  0.64910  1.0000
  C   C1007     1.0  0.89706  0.35057  0.55293  1.0000
  H   H1015     1.0  0.54591  0.26718  0.60444  1.0000
  H   H1016     1.0  0.98371  0.46151  0.82337  1.0000
  C   C1008     1.0  0.57912  0.35794  0.86345  1.0000
  S   S349      1.0  0.78114  0.48895  0.97392  1.0000
  H   H1017     1.0  0.83054  0.49230  0.58143  1.0000
  C   C1009     1.0  0.94669  0.31684  0.93521  1.0000
  C   C1010     1.0  0.71894  0.44657  0.92590  1.0000
  C   C1011     1.0  0.95171  0.32887  0.53510  1.0000
  C   C1012     1.0  0.81466  0.43502  0.59411  1.0000
  C   C1013     1.0  0.83024  0.42107  0.60296  1.0000
  C   C1014     1.0  0.83683  0.40197  0.59284  1.0000
  C   C1015     1.0  0.82816  0.39671  0.57364  1.0000
  C   C1016     1.0  0.81283  0.41082  0.56460  1.0000
  C   C1017     1.0  0.80602  0.42977  0.57488  1.0000
  H   H1018     1.0  0.83697  0.42483  0.61777  1.0000
  H   H1019     1.0  0.84865  0.39117  0.60003  1.0000
  H   H1020     1.0  0.80596  0.40698  0.54989  1.0000
  H   H1021     1.0  0.79391  0.44039  0.56793  1.0000
  H   H1022     1.0  0.87261  0.36437  0.53316  1.0000
  H   H1023     1.0  0.86915  0.50552  0.74721  1.0000
  C   C1018     1.0  0.72928  0.49454  0.72439  1.0000
  H   H1024     1.0  0.68520  0.50379  0.89484  1.0000
  C   C1019     1.0  0.53024  0.28336  0.74514  1.0000
  S   S350      1.0  0.84460  0.49805  0.62717  1.0000
  C   C1020     1.0  0.88580  0.46015  0.72346  1.0000
  C   C1021     1.0  0.78894  0.36166  0.58853  1.0000
  C   C1022     1.0  0.98257  0.26230  0.94075  1.0000
  H   H1025     1.0  0.60082  0.33626  0.80673  1.0000
  C   C1023     1.0  0.91967  0.29025  0.93917  1.0000
  C   C1024     1.0  0.92881  0.28086  0.92056  1.0000
  C   C1025     1.0  0.94687  0.28935  0.90937  1.0000
  C   C1026     1.0  0.95583  0.30748  0.91660  1.0000
  H   H1026     1.0  0.97648  0.45217  0.85038  1.0000
  H   H1027     1.0  0.95374  0.28197  0.89510  1.0000
  S   S351      1.0  0.78334  0.42938  0.99344  1.0000
  H   H1028     1.0  0.55011  0.27507  0.83673  1.0000
  N   N83       1.0  0.72271  0.44931  0.94687  1.0000
  C   C1027     1.0  0.61358  0.34405  0.81474  1.0000
  H   H1029     1.0  0.69438  0.46888  0.95327  1.0000
  C   C1028     1.0  0.75267  0.36564  0.56508  1.0000
  C   C1029     1.0  0.72593  0.49241  0.74679  1.0000
  C   C1030     1.0  0.92173  0.34480  0.51526  1.0000
  C   C1031     1.0  0.76804  0.49021  0.72680  1.0000
  H   H1030     1.0  0.82022  0.35826  0.99126  1.0000
  C   C1032     1.0  0.74382  0.48933  0.75917  1.0000
  H   H1031     1.0  0.92423  0.33602  0.56832  1.0000
  Fe  Fe179     1.0  0.74788  0.50028  0.98425  1.0000
  C   C1033     1.0  0.71804  0.49204  0.89130  1.0000
  C   C1034     1.0  0.60461  0.38522  0.85626  1.0000
  S   S352      1.0  0.79317  0.36082  0.51764  1.0000
  H   H1032     1.0  0.56570  0.35146  0.87292  1.0000
  C   C1035     1.0  0.73896  0.49477  0.92290  1.0000
  C   C1036     1.0  0.73748  0.48916  0.90150  1.0000
  H   H1033     1.0  0.93184  0.46476  0.67898  1.0000
  H   H1034     1.0  0.73863  0.36701  0.55566  1.0000
  H   H1035     1.0  0.79293  0.38641  0.98070  1.0000
  C   C1037     1.0  0.89514  0.29973  0.51657  1.0000
  C   C1038     1.0  0.58971  0.39996  0.79945  1.0000
  C   C1039     1.0  0.57875  0.41044  0.81637  1.0000
  C   C1040     1.0  0.58791  0.42762  0.82566  1.0000
  C   C1041     1.0  0.60806  0.43464  0.81815  1.0000
  C   C1042     1.0  0.61890  0.42439  0.80101  1.0000
  C   C1043     1.0  0.60975  0.40714  0.79174  1.0000
  H   H1036     1.0  0.56332  0.40517  0.82246  1.0000
  H   H1037     1.0  0.57935  0.43542  0.83888  1.0000
  H   H1038     1.0  0.63440  0.42961  0.79502  1.0000
  H   H1039     1.0  0.61835  0.39923  0.77860  1.0000
  C   C1044     1.0  0.53006  0.30206  0.88762  1.0000
  C   C1045     1.0  0.54199  0.29103  0.90335  1.0000
  C   C1046     1.0  0.53185  0.28256  0.92232  1.0000
  S   S353      1.0  0.99623  0.43521  0.78327  1.0000
  H   H1040     1.0  0.88006  0.30381  0.52510  1.0000
  C   C1047     1.0  0.79744  0.32550  0.57640  1.0000
  H   H1041     1.0  0.79417  0.31581  0.59135  1.0000
  C   C1048     1.0  0.90622  0.45706  0.73138  1.0000
  H   H1042     1.0  0.80333  0.36041  0.59745  1.0000
  H   H1043     1.0  0.81464  0.32928  0.57504  1.0000
  C   C1049     1.0  0.76571  0.34683  0.56516  1.0000
  H   H1044     1.0  0.76876  0.42878  0.90814  1.0000
  H   H1045     1.0  0.81509  0.27762  0.96497  1.0000
  H   H1046     1.0  0.84049  0.46855  0.72810  1.0000
  C   C1050     1.0  0.74250  0.44415  0.95437  1.0000
  N   N84       1.0  0.00504  0.43732  0.83677  1.0000
  S   S354      1.0  0.00544  0.47375  0.73145  1.0000
  C   C1051     1.0  0.92753  0.47943  0.68698  1.0000
  C   C1052     1.0  0.80464  0.38993  0.99189  1.0000
  H   H1047     1.0  0.74824  0.39746  0.57691  1.0000
  C   C1053     1.0  0.99856  0.39519  0.80265  1.0000
  H   H1048     1.0  0.81173  0.48294  0.56383  1.0000
  H   H1049     1.0  0.51233  0.28691  0.84389  1.0000
  C   C1054     1.0  0.88868  0.35712  0.53347  1.0000
  H   H1050     1.0  0.85282  0.47799  0.70294  1.0000
  S   S355      1.0  0.53422  0.36742  0.83326  1.0000
  C   C1055     1.0  0.77619  0.38064  0.58895  1.0000
  S   S356      1.0  0.88906  0.47769  0.66813  1.0000
  N   N85       1.0  0.78380  0.34521  0.57647  1.0000
  C   C1056     1.0  0.53825  0.27151  0.82561  1.0000
  C   C1057     1.0  0.94198  0.48756  0.70067  1.0000
  S   S357      1.0  0.77352  0.30258  0.52504  1.0000
  C   C1058     1.0  0.74306  0.27198  0.52762  1.0000
  H   H1051     1.0  0.74547  0.44601  0.97105  1.0000
  H   H1052     1.0  0.95723  0.47917  0.70314  1.0000
  C   C1059     1.0  0.91213  0.28955  0.52753  1.0000
  C   C1060     1.0  0.91781  0.34112  0.55313  1.0000
  H   H1053     1.0  0.69588  0.44340  0.96809  1.0000
  H   H1054     1.0  0.62613  0.38075  0.82877  1.0000
  N   N86       1.0  0.60448  0.35556  0.83327  1.0000
  S   S358      1.0  0.95281  0.27183  0.53141  1.0000
  C   C1061     1.0  0.70519  0.45700  0.96155  1.0000
  C   C1062     1.0  0.76468  0.48818  0.74921  1.0000
  H   H1055     1.0  0.71141  0.46539  0.97499  1.0000
  C   C1063     1.0  0.89977  0.48917  0.75103  1.0000
  C   C1064     1.0  0.99541  0.27991  0.94032  1.0000
  H   H1056     1.0  0.95346  0.33089  0.94092  1.0000
  H   H1057     1.0  0.90994  0.28579  0.54449  1.0000
  C   C1065     1.0  0.87937  0.49170  0.74293  1.0000
  H   H1058     1.0  0.92190  0.31568  0.96072  1.0000
  S   S359      1.0  0.98667  0.49420  0.77652  1.0000
  H   H1059     1.0  0.79459  0.31568  0.56257  1.0000
  C   C1066     1.0  0.75804  0.38267  0.57700  1.0000
  C   C1067     1.0  0.75629  0.28458  0.51378  1.0000
  H   H1060     1.0  0.80754  0.26527  0.94106  1.0000
  H   H1061     1.0  0.90549  0.50109  0.76104  1.0000
  H   H1062     1.0  0.58116  0.33253  0.84152  1.0000
  C   C1068     1.0  0.85154  0.48027  0.72042  1.0000
  Fe  Fe180     1.0  0.85489  0.48898  0.66050  1.0000
  H   H1063     1.0  0.91687  0.44391  0.72609  1.0000
  C   C1069     1.0  0.98352  0.44727  0.83458  1.0000
  H   H1064     1.0  0.95262  0.31561  0.54744  1.0000
  H   H1065     1.0  0.58038  0.38581  0.88214  1.0000
  H   H1066     1.0  0.92946  0.47017  0.75054  1.0000
  H   H1067     1.0  0.75237  0.49505  0.69723  1.0000
  H   H1068     1.0  0.85243  0.26546  0.95631  1.0000
  H   H1069     1.0  0.70336  0.45094  0.91982  1.0000
  C   C1070     1.0  0.75576  0.43423  0.91909  1.0000
  H   H1070     1.0  0.75387  0.49185  0.93065  1.0000
  H   H1071     1.0  0.88741  0.35280  0.56771  1.0000
  H   H1072     1.0  0.61096  0.40035  0.85986  1.0000
  C   C1071     1.0  0.75015  0.49350  0.71445  1.0000
  S   S360      1.0  0.69911  0.49370  0.75833  1.0000
  H   H1073     1.0  0.55921  0.28904  0.90091  1.0000
  H   H1074     1.0  0.74367  0.27328  0.54471  1.0000
  Fe  Fe181     1.0  0.00803  0.46593  0.76673  1.0000
  H   H1075     1.0  0.98980  0.30361  0.78519  1.0000
  H   H1076     1.0  0.54210  0.29182  0.75282  1.0000
  H   H1077     1.0  0.76146  0.33370  0.55578  1.0000
  Fe  Fe182     1.0  0.98560  0.50292  0.74144  1.0000
  H   H1078     1.0  0.88077  0.44921  0.71200  1.0000
  C   C1072     1.0  0.58741  0.37713  0.86866  1.0000
  C   C1073     1.0  0.75933  0.43665  0.94060  1.0000
  C   C1074     1.0  0.61310  0.37407  0.83861  1.0000
  H   H1079     1.0  0.92184  0.26699  0.91470  1.0000
  H   H1080     1.0  0.84417  0.49657  0.72278  1.0000
  C   C1075     1.0  0.73541  0.43909  0.91167  1.0000
  N   N87       1.0  0.87275  0.47738  0.72916  1.0000
  H   H1081     1.0  0.62593  0.33184  0.81978  1.0000
  C   C1076     1.0  0.58792  0.34729  0.84560  1.0000
  Fe  Fe183     1.0  0.77836  0.46470  0.00142  1.0000
  H   H1082     1.0  0.73253  0.43789  0.89484  1.0000
  H   H1083     1.0  0.75136  0.48199  0.89295  1.0000
  H   H1084     1.0  0.96284  0.34125  0.53872  1.0000
  C   C1077     1.0  0.51677  0.27819  0.82959  1.0000
  C   C1078     1.0  0.53676  0.26706  0.73087  1.0000
  S   S361      1.0  0.64948  0.50074  0.79721  1.0000
  C   C1079     1.0  0.80414  0.41038  0.00039  1.0000
  S   S362      1.0  0.99887  0.31097  0.84060  1.0000
  H   H1085     1.0  0.79686  0.50343  0.60257  1.0000
  H   H1086     1.0  0.98134  0.39736  0.80501  1.0000
  H   H1087     1.0  0.98838  0.29509  0.94560  1.0000
  H   H1088     1.0  0.97308  0.43584  0.82767  1.0000
  C   C1080     1.0  0.90101  0.35420  0.51448  1.0000
  Fe  Fe184     1.0  0.79893  0.32570  0.51155  1.0000
  H   H1089     1.0  0.71562  0.49687  0.71460  1.0000
  C   C1081     1.0  0.70025  0.50144  0.90248  1.0000
  C   C1082     1.0  0.93187  0.28425  0.51672  1.0000
  H   H1090     1.0  0.96581  0.26393  0.94624  1.0000
  H   H1091     1.0  0.60125  0.49939  0.85219  1.0000
  H   H1092     1.0  0.83287  0.49989  0.55359  1.0000
  C   C1083     1.0  0.82009  0.37391  0.99786  1.0000
  C   C1084     1.0  0.93651  0.50636  0.71137  1.0000
  H   H1093     1.0  0.59123  0.49707  0.82629  1.0000
  C   C1085     1.0  0.82118  0.49679  0.56722  1.0000
  C   C1086     1.0  0.70180  0.50734  0.92377  1.0000
  H   H1094     1.0  0.54123  0.27414  0.93428  1.0000
  C   C1087     1.0  0.81000  0.26264  0.95838  1.0000
  S   S363      1.0  0.53834  0.25980  0.99781  1.0000
  C   C1088     1.0  0.50959  0.28488  0.92568  1.0000
  C   C1089     1.0  0.54430  0.26069  0.80707  1.0000
  H   H1095     1.0  0.79450  0.25907  0.96704  1.0000
  H   H1096     1.0  0.00194  0.27157  0.76553  1.0000
  C   C1090     1.0  0.00664  0.30089  0.78050  1.0000
  C   C1091     1.0  0.00728  0.41792  0.84746  1.0000
  C   C1092     1.0  0.52262  0.73222  0.29010  1.0000
  S   S364      1.0  0.53928  0.65631  0.20746  1.0000
  C   C1093     1.0  0.52486  0.68163  0.12342  1.0000
  Fe  Fe185     1.0  0.53554  0.62077  0.21091  1.0000
  S   S365      1.0  0.56042  0.59879  0.22720  1.0000
  S   S366      1.0  0.62593  0.53233  0.17983  1.0000
  C   C1094     1.0  0.97557  0.67438  0.06005  1.0000
  H   H1097     1.0  0.53495  0.69999  0.07170  1.0000
  C   C1095     1.0  0.75573  0.70031  0.50351  1.0000
  H   H1098     1.0  0.80262  0.52764  0.25054  1.0000
  S   S367      1.0  0.98295  0.69241  0.17001  1.0000
  C   C1096     1.0  0.83736  0.51024  0.43333  1.0000
  H   H1099     1.0  0.70847  0.55292  0.09919  1.0000
  C   C1097     1.0  0.79381  0.68837  0.43107  1.0000
  Fe  Fe186     1.0  0.98914  0.69802  0.13448  1.0000
  S   S368      1.0  0.96696  0.71369  0.10994  1.0000
  H   H1100     1.0  0.97340  0.66808  0.21222  1.0000
  Fe  Fe187     1.0  0.87614  0.67801  0.03489  1.0000
  S   S369      1.0  0.88294  0.70423  0.01053  1.0000
  S   S370      1.0  0.89190  0.66905  0.06627  1.0000
  H   H1101     1.0  0.97337  0.64035  0.05887  1.0000
  C   C1098     1.0  0.98615  0.59189  0.20322  1.0000
  H   H1102     1.0  0.52571  0.62889  0.11434  1.0000
  S   S371      1.0  0.53436  0.71251  0.01707  1.0000
  H   H1103     1.0  0.98697  0.56139  0.22087  1.0000
  S   S372      1.0  0.84043  0.68232  0.03176  1.0000
  S   S373      1.0  0.82516  0.66972  0.47547  1.0000
  C   C1099     1.0  0.78112  0.51030  0.23316  1.0000
  Fe  Fe188     1.0  0.83067  0.63466  0.46852  1.0000
  S   S374      1.0  0.83563  0.62312  0.43436  1.0000
  H   H1104     1.0  0.74064  0.52623  0.26505  1.0000
  C   C1100     1.0  0.57120  0.66147  0.27126  1.0000
  S   S375      1.0  0.80526  0.53667  0.39763  1.0000
  H   H1105     1.0  0.90006  0.59528  0.03948  1.0000
  S   S376      1.0  0.81230  0.52010  0.33345  1.0000
  Fe  Fe189     1.0  0.99991  0.66017  0.16541  1.0000
  C   C1101     1.0  0.75584  0.64019  0.46083  1.0000
  N   N88       1.0  0.52661  0.74721  0.10256  1.0000
  C   C1102     1.0  0.91339  0.67594  0.49231  1.0000
  H   H1106     1.0  0.99116  0.68833  0.21819  1.0000
  C   C1103     1.0  0.52596  0.69639  0.08657  1.0000
  C   C1104     1.0  0.74077  0.50990  0.27134  1.0000
  C   C1105     1.0  0.00862  0.62029  0.24148  1.0000
  C   C1106     1.0  0.53737  0.66693  0.29120  1.0000
  C   C1107     1.0  0.76797  0.71721  0.49549  1.0000
  C   C1108     1.0  0.82745  0.59877  0.42458  1.0000
  C   C1109     1.0  0.83450  0.59289  0.40382  1.0000
  C   C1110     1.0  0.82795  0.57400  0.39525  1.0000
  C   C1111     1.0  0.81401  0.56085  0.40729  1.0000
  C   C1112     1.0  0.80688  0.56680  0.42801  1.0000
  C   C1113     1.0  0.81366  0.58553  0.43668  1.0000
  H   H1107     1.0  0.84509  0.60307  0.39427  1.0000
  H   H1108     1.0  0.83349  0.56978  0.37924  1.0000
  H   H1109     1.0  0.79602  0.55684  0.43745  1.0000
  H   H1110     1.0  0.80805  0.58981  0.45264  1.0000
  H   H1111     1.0  0.00376  0.72440  0.41005  1.0000
  C   C1114     1.0  0.56311  0.64407  0.26185  1.0000
  Fe  Fe190     1.0  0.84963  0.66365  0.50042  1.0000
  H   H1112     1.0  0.76527  0.62478  0.46273  1.0000
  H   H1113     1.0  0.83856  0.56798  0.03856  1.0000
  C   C1115     1.0  0.78903  0.74104  0.01355  1.0000
  S   S377      1.0  0.80493  0.62412  0.49241  1.0000
  S   S378      1.0  0.53869  0.66902  0.14474  1.0000
  C   C1116     1.0  0.76842  0.75111  0.01675  1.0000
  H   H1114     1.0  0.87786  0.56547  0.03032  1.0000
  C   C1117     1.0  0.94602  0.70105  0.09813  1.0000
  C   C1118     1.0  0.93548  0.71175  0.08121  1.0000
  C   C1119     1.0  0.91920  0.70207  0.07098  1.0000
  C   C1120     1.0  0.91302  0.68166  0.07782  1.0000
  C   C1121     1.0  0.92361  0.67095  0.09468  1.0000
  C   C1122     1.0  0.94013  0.68048  0.10466  1.0000
  H   H1115     1.0  0.93988  0.72767  0.07604  1.0000
  H   H1116     1.0  0.91113  0.71056  0.05814  1.0000
  H   H1117     1.0  0.91892  0.65521  0.10019  1.0000
  H   H1118     1.0  0.94810  0.67202  0.11761  1.0000
  S   S379      1.0  0.52314  0.61851  0.17835  1.0000
  H   H1119     1.0  0.74939  0.68226  0.46387  1.0000
  S   S380      1.0  0.74700  0.50861  0.06555  1.0000
  C   C1123     1.0  0.68973  0.52666  0.09191  1.0000
  C   C1124     1.0  0.93562  0.67840  0.48878  1.0000
  H   H1120     1.0  0.00169  0.67688  0.46129  1.0000
  H   H1121     1.0  0.98193  0.70721  0.06402  1.0000
  H   H1122     1.0  0.81317  0.66229  0.41747  1.0000
  C   C1125     1.0  0.54490  0.73686  0.10945  1.0000
  S   S381      1.0  0.97362  0.69807  0.49182  1.0000
  C   C1126     1.0  0.77576  0.69392  0.44415  1.0000
  C   C1127     1.0  0.94549  0.69584  0.49677  1.0000
  H   H1123     1.0  0.98316  0.69922  0.43403  1.0000
  S   S382      1.0  0.88007  0.65211  0.01113  1.0000
  C   C1128     1.0  0.76332  0.67783  0.45359  1.0000
  H   H1124     1.0  0.96888  0.59393  0.20465  1.0000
  H   H1125     1.0  0.79067  0.63454  0.43454  1.0000
  C   C1129     1.0  0.67402  0.51285  0.09970  1.0000
  N   N89       1.0  0.76899  0.65678  0.45054  1.0000
  C   C1130     1.0  0.90950  0.51031  0.28446  1.0000
  C   C1131     1.0  0.78633  0.65121  0.43730  1.0000
  C   C1132     1.0  0.52634  0.70818  0.25989  1.0000
  C   C1133     1.0  0.53486  0.72323  0.27282  1.0000
  H   H1126     1.0  0.97667  0.63369  0.23819  1.0000
  H   H1127     1.0  0.53605  0.70143  0.24677  1.0000
  H   H1128     1.0  0.56434  0.68663  0.29345  1.0000
  C   C1134     1.0  0.57843  0.58028  0.21380  1.0000
  C   C1135     1.0  0.57862  0.57808  0.19168  1.0000
  C   C1136     1.0  0.59327  0.56334  0.18161  1.0000
  C   C1137     1.0  0.60788  0.55062  0.19348  1.0000
  C   C1138     1.0  0.60768  0.55276  0.21562  1.0000
  C   C1139     1.0  0.59301  0.56750  0.22570  1.0000
  H   H1129     1.0  0.56755  0.58781  0.18231  1.0000
  H   H1130     1.0  0.59331  0.56188  0.16448  1.0000
  H   H1131     1.0  0.61901  0.54333  0.22496  1.0000
  H   H1132     1.0  0.59308  0.56917  0.24279  1.0000
  H   H1133     1.0  0.97386  0.67725  0.23919  1.0000
  S   S383      1.0  0.53440  0.75139  0.30562  1.0000
  C   C1140     1.0  0.56436  0.74836  0.07698  1.0000
  H   H1134     1.0  0.85579  0.53561  0.39645  1.0000
  H   H1135     1.0  0.74193  0.63784  0.45115  1.0000
  Fe  Fe191     1.0  0.52398  0.65431  0.17582  1.0000
  H   H1136     1.0  0.69066  0.55684  0.13555  1.0000
  H   H1137     1.0  0.66316  0.74468  0.01894  1.0000
  N   N90       1.0  0.85124  0.61551  0.05666  1.0000
  C   C1141     1.0  0.87297  0.61406  0.05264  1.0000
  C   C1142     1.0  0.83900  0.59908  0.05200  1.0000
  C   C1143     1.0  0.88289  0.59609  0.04309  1.0000
  C   C1144     1.0  0.84842  0.58075  0.04270  1.0000
  C   C1145     1.0  0.87047  0.57938  0.03802  1.0000
  C   C1146     1.0  0.84082  0.63450  0.06632  1.0000
  H   H1138     1.0  0.88275  0.62698  0.05650  1.0000
  H   H1139     1.0  0.82174  0.60038  0.05492  1.0000
  C   C1147     1.0  0.98828  0.69082  0.06543  1.0000
  H   H1140     1.0  0.55334  0.68234  0.10239  1.0000
  C   C1148     1.0  0.68587  0.54474  0.12521  1.0000
  H   H1141     1.0  0.83468  0.63050  0.08288  1.0000
  H   H1142     1.0  0.85204  0.64759  0.06698  1.0000
  H   H1143     1.0  0.82734  0.64076  0.05666  1.0000
  C   C1149     1.0  0.69574  0.54263  0.10481  1.0000
  C   C1150     1.0  0.00035  0.69995  0.43508  1.0000
  N   N91       1.0  0.66409  0.51532  0.11952  1.0000
  H   H1144     1.0  0.57297  0.63494  0.25029  1.0000
  Fe  Fe192     1.0  0.80105  0.65892  0.50109  1.0000
  S   S384      1.0  0.86842  0.51043  0.30303  1.0000
  H   H1145     1.0  0.66242  0.53255  0.14827  1.0000
  C   C1151     1.0  0.99813  0.60785  0.19248  1.0000
  H   H1146     1.0  0.57893  0.74860  0.06669  1.0000
  H   H1147     1.0  0.00344  0.60455  0.24663  1.0000
  Fe  Fe193     1.0  0.99473  0.72471  0.50074  1.0000
  H   H1148     1.0  0.94162  0.51085  0.26964  1.0000
  H   H1149     1.0  0.82755  0.52458  0.43674  1.0000
  C   C1152     1.0  0.98328  0.65323  0.06255  1.0000
  C   C1153     1.0  0.53633  0.68643  0.10400  1.0000
  C   C1154     1.0  0.54211  0.63849  0.26732  1.0000
  N   N92       1.0  0.85607  0.51145  0.42105  1.0000
  H   H1150     1.0  0.74039  0.51685  0.11009  1.0000
  H   H1151     1.0  0.53577  0.64074  0.07706  1.0000
  H   H1152     1.0  0.74996  0.64476  0.47718  1.0000
  H   H1153     1.0  0.55111  0.72797  0.26939  1.0000
  N   N93       1.0  0.00005  0.65644  0.22937  1.0000
  H   H1154     1.0  0.77583  0.52411  0.22347  1.0000
  H   H1155     1.0  0.80385  0.70064  0.42393  1.0000
  C   C1155     1.0  0.75828  0.73793  0.49250  1.0000
  H   H1156     1.0  0.78896  0.56206  0.01333  1.0000
  H   H1157     1.0  0.90606  0.66257  0.48587  1.0000
  C   C1156     1.0  0.51339  0.63553  0.10410  1.0000
  H   H1158     1.0  0.78491  0.71435  0.49160  1.0000
  S   S385      1.0  0.85707  0.62977  0.49132  1.0000
  H   H1159     1.0  0.77157  0.71055  0.44729  1.0000
  C   C1157     1.0  0.66995  0.53087  0.13235  1.0000
  C   C1158     1.0  0.98384  0.67339  0.22453  1.0000
  H   H1160     1.0  0.82593  0.51216  0.27598  1.0000
  C   C1159     1.0  0.99357  0.63683  0.23670  1.0000
  S   S386      1.0  0.81958  0.63265  0.00992  1.0000
  C   C1160     1.0  0.79905  0.66689  0.42744  1.0000
  C   C1161     1.0  0.55833  0.67293  0.28614  1.0000
  H   H1161     1.0  0.95962  0.67804  0.05455  1.0000
  H   H1162     1.0  0.76798  0.75082  0.48632  1.0000
  H   H1163     1.0  0.94522  0.66676  0.47969  1.0000
  H   H1164     1.0  0.54470  0.72786  0.12465  1.0000
  S   S387      1.0  0.00338  0.66502  0.12967  1.0000
  H   H1165     1.0  0.76366  0.51513  0.29502  1.0000
  H   H1166     1.0  0.58741  0.66605  0.26700  1.0000
  S   S388      1.0  0.98461  0.63163  0.18285  1.0000
  C   C1162     1.0  0.00370  0.64876  0.06994  1.0000
  H   H1167     1.0  0.90227  0.51913  0.27130  1.0000
  H   H1168     1.0  0.88048  0.53256  0.41011  1.0000
  N   N94       1.0  0.52941  0.65012  0.28155  1.0000
  H   H1169     1.0  0.57829  0.72832  0.10187  1.0000
  H   H1170     1.0  0.53603  0.62485  0.25999  1.0000
  C   C1163     1.0  0.73626  0.74216  0.49752  1.0000
  H   H1171     1.0  0.85718  0.54532  0.42292  1.0000
  H   H1172     1.0  0.52733  0.67621  0.30246  1.0000
  C   C1164     1.0  0.86276  0.53222  0.41222  1.0000
  C   C1165     1.0  0.56398  0.73704  0.09665  1.0000
  Fe  Fe194     1.0  0.81567  0.51590  0.36924  1.0000
  C   C1166     1.0  0.72403  0.72525  0.50552  1.0000
  S   S389      1.0  0.57324  0.75740  0.01944  1.0000
  C   C1167     1.0  0.99636  0.57341  0.21244  1.0000
  H   H1173     1.0  0.78980  0.60047  0.02113  1.0000
  C   C1168     1.0  0.79617  0.51218  0.24855  1.0000
  C   C1169     1.0  0.90075  0.69087  0.50402  1.0000
  H   H1174     1.0  0.79198  0.72459  0.01894  1.0000
  H   H1175     1.0  0.69795  0.52438  0.07637  1.0000
  N   N95       1.0  0.00800  0.68628  0.07328  1.0000
  C   C1170     1.0  0.80293  0.59297  0.01173  1.0000
  S   S390      1.0  0.76677  0.67352  0.50666  1.0000
  H   H1176     1.0  0.75570  0.74219  0.02464  1.0000
  C   C1171     1.0  0.51920  0.64227  0.08308  1.0000
  Fe  Fe195     1.0  0.54076  0.74721  0.00894  1.0000
  C   C1172     1.0  0.73370  0.70451  0.50842  1.0000
  C   C1173     1.0  0.93284  0.71078  0.50844  1.0000
  C   C1174     1.0  0.51257  0.66354  0.90579  1.0000
  C   C1175     1.0  0.52399  0.67857  0.89329  1.0000
  Fe  Fe196     1.0  0.53258  0.62175  0.80643  1.0000
  C   C1176     1.0  0.96468  0.63828  0.83577  1.0000
  S   S391      1.0  0.55493  0.59455  0.79380  1.0000
  H   H1177     1.0  0.69614  0.58633  0.79284  1.0000
  H   H1178     1.0  0.97772  0.65387  0.79774  1.0000
  C   C1177     1.0  0.77844  0.53723  0.94234  1.0000
  S   S392      1.0  0.53700  0.65722  0.80752  1.0000
  C   C1178     1.0  0.75535  0.56326  0.96233  1.0000
  S   S393      1.0  0.52767  0.67743  0.86495  1.0000
  S   S394      1.0  0.64248  0.55517  0.82923  1.0000
  S   S395      1.0  0.85029  0.68266  0.97925  1.0000
  Fe  Fe197     1.0  0.88533  0.67866  0.98632  1.0000
  S   S396      1.0  0.91746  0.67857  0.96710  1.0000
  H   H1179     1.0  0.58507  0.74742  0.60129  1.0000
  Fe  Fe198     1.0  0.98918  0.68296  0.85976  1.0000
  S   S397      1.0  0.95357  0.68273  0.86976  1.0000
  N   N96       1.0  0.67721  0.56346  0.77998  1.0000
  C   C1179     1.0  0.80449  0.53164  0.55630  1.0000
  S   S398      1.0  0.72160  0.51004  0.96154  1.0000
  S   S399      1.0  0.84012  0.59004  0.53448  1.0000
  H   H1180     1.0  0.68506  0.56694  0.81203  1.0000
  H   H1181     1.0  0.96203  0.65551  0.83468  1.0000
  S   S400      1.0  0.82509  0.65459  0.52666  1.0000
  H   H1182     1.0  0.77310  0.53496  0.61092  1.0000
  H   H1183     1.0  0.97413  0.57705  0.83997  1.0000
  H   H1184     1.0  0.57915  0.57112  0.87054  1.0000
  S   S401      1.0  0.81503  0.55658  0.62954  1.0000
  S   S402      1.0  0.87270  0.68848  0.50948  1.0000
  H   H1185     1.0  0.86363  0.74929  0.96507  1.0000
  Fe  Fe199     1.0  0.82268  0.52283  0.64302  1.0000
  H   H1186     1.0  0.88357  0.59917  0.55905  1.0000
  C   C1180     1.0  0.83643  0.57342  0.98738  1.0000
  Fe  Fe200     1.0  0.51548  0.71391  0.98730  1.0000
  C   C1181     1.0  0.83318  0.58152  0.56114  1.0000
  C   C1182     1.0  0.84252  0.56214  0.56912  1.0000
  C   C1183     1.0  0.83725  0.55438  0.59006  1.0000
  C   C1184     1.0  0.82273  0.56607  0.60335  1.0000
  C   C1185     1.0  0.81373  0.58569  0.59553  1.0000
  C   C1186     1.0  0.81878  0.59333  0.57445  1.0000
  H   H1187     1.0  0.85380  0.55298  0.55898  1.0000
  H   H1188     1.0  0.84442  0.53936  0.59594  1.0000
  H   H1189     1.0  0.80251  0.59486  0.60575  1.0000
  H   H1190     1.0  0.81155  0.60832  0.56853  1.0000
  H   H1191     1.0  0.87291  0.66643  0.54958  1.0000
  H   H1192     1.0  0.88356  0.70909  0.94501  1.0000
  C   C1187     1.0  0.91550  0.73281  0.96624  1.0000
  N   N97       1.0  0.58305  0.52692  0.84118  1.0000
  H   H1193     1.0  0.53071  0.68375  0.73974  1.0000
  H   H1194     1.0  0.69771  0.53820  0.76723  1.0000
  S   S403      1.0  0.69326  0.51636  0.81715  1.0000
  S   S404      1.0  0.99889  0.68621  0.82459  1.0000
  C   C1188     1.0  0.78795  0.59164  0.96067  1.0000
  Fe  Fe201     1.0  0.84498  0.65787  0.00623  1.0000
  C   C1189     1.0  0.92692  0.67873  0.93983  1.0000
  C   C1190     1.0  0.94895  0.68072  0.93501  1.0000
  C   C1191     1.0  0.95735  0.68175  0.91367  1.0000
  C   C1192     1.0  0.94373  0.68094  0.89687  1.0000
  C   C1193     1.0  0.92169  0.67879  0.90166  1.0000
  C   C1194     1.0  0.91331  0.67754  0.92304  1.0000
  H   H1195     1.0  0.95965  0.68152  0.94786  1.0000
  H   H1196     1.0  0.97434  0.68333  0.91024  1.0000
  H   H1197     1.0  0.91105  0.67805  0.88874  1.0000
  H   H1198     1.0  0.89637  0.67570  0.92647  1.0000
  H   H1199     1.0  0.84971  0.66767  0.58277  1.0000
  C   C1195     1.0  0.81907  0.56128  0.99496  1.0000
  C   C1196     1.0  0.66792  0.54136  0.75191  1.0000
  C   C1197     1.0  0.79518  0.51630  0.59063  1.0000
  H   H1200     1.0  0.79339  0.52893  0.94790  1.0000
  C   C1198     1.0  0.89330  0.63212  0.53267  1.0000
  H   H1201     1.0  0.95370  0.64130  0.79104  1.0000
  C   C1199     1.0  0.57977  0.58453  0.80326  1.0000
  C   C1200     1.0  0.59027  0.59478  0.81870  1.0000
  C   C1201     1.0  0.60963  0.58572  0.82625  1.0000
  C   C1202     1.0  0.61846  0.56620  0.81874  1.0000
  C   C1203     1.0  0.60806  0.55603  0.80319  1.0000
  C   C1204     1.0  0.58894  0.56529  0.79534  1.0000
  H   H1202     1.0  0.58345  0.60966  0.82482  1.0000
  H   H1203     1.0  0.61763  0.59378  0.83820  1.0000
  H   H1204     1.0  0.61478  0.54112  0.79710  1.0000
  H   H1205     1.0  0.58096  0.55732  0.78332  1.0000
  C   C1205     1.0  0.50946  0.66572  0.92811  1.0000
  C   C1206     1.0  0.76827  0.59724  0.97101  1.0000
  H   H1206     1.0  0.73650  0.58709  0.98001  1.0000
  C   C1207     1.0  0.96374  0.62781  0.85593  1.0000
  C   C1208     1.0  0.97007  0.63837  0.79676  1.0000
  H   H1207     1.0  0.77989  0.53973  0.92469  1.0000
  C   C1209     1.0  0.97187  0.60524  0.81906  1.0000
  H   H1208     1.0  0.53779  0.55192  0.82340  1.0000
  H   H1209     1.0  0.54306  0.70548  0.70768  1.0000
  N   N98       1.0  0.89530  0.73578  0.95905  1.0000
  H   H1210     1.0  0.76926  0.56482  0.58379  1.0000
  S   S405      1.0  0.95314  0.51636  0.73034  1.0000
  C   C1210     1.0  0.53219  0.69575  0.90342  1.0000
  Fe  Fe202     1.0  0.84742  0.70671  0.00523  1.0000
  H   H1211     1.0  0.65350  0.58708  0.79016  1.0000
  C   C1211     1.0  0.91662  0.51709  0.70783  1.0000
  C   C1212     1.0  0.52198  0.69846  0.73535  1.0000
  N   N99       1.0  0.87945  0.63272  0.55231  1.0000
  C   C1213     1.0  0.87654  0.61432  0.56442  1.0000
  C   C1214     1.0  0.87035  0.65177  0.55899  1.0000
  C   C1215     1.0  0.86397  0.61464  0.58360  1.0000
  Fe  Fe203     1.0  0.83097  0.62096  0.51588  1.0000
  H   H1212     1.0  0.91028  0.63332  0.53649  1.0000
  C   C1216     1.0  0.92076  0.74200  0.98507  1.0000
  S   S406      1.0  0.51591  0.61923  0.83921  1.0000
  C   C1217     1.0  0.64301  0.56924  0.76458  1.0000
  H   H1213     1.0  0.90383  0.72256  0.92872  1.0000
  C   C1218     1.0  0.87988  0.74757  0.97032  1.0000
  H   H1214     1.0  0.96693  0.59746  0.87311  1.0000
  H   H1215     1.0  0.70754  0.55942  0.79436  1.0000
  H   H1216     1.0  0.88903  0.64559  0.52136  1.0000
  C   C1219     1.0  0.52894  0.71086  0.71711  1.0000
  H   H1217     1.0  0.56147  0.51953  0.81774  1.0000
  C   C1220     1.0  0.52873  0.69815  0.92566  1.0000
  C   C1221     1.0  0.58806  0.54121  0.85576  1.0000
  C   C1222     1.0  0.51736  0.68310  0.93817  1.0000
  H   H1218     1.0  0.74247  0.55226  0.96305  1.0000
  C   C1223     1.0  0.55152  0.54861  0.83305  1.0000
  H   H1219     1.0  0.84388  0.63417  0.60478  1.0000
  S   S407      1.0  0.81847  0.53421  0.98779  1.0000
  H   H1220     1.0  0.62832  0.75281  0.54595  1.0000
  H   H1221     1.0  0.62752  0.57786  0.76423  1.0000
  C   C1224     1.0  0.78142  0.53396  0.59529  1.0000
  C   C1225     1.0  0.96725  0.60568  0.85752  1.0000
  H   H1222     1.0  0.97518  0.59625  0.80475  1.0000
  H   H1223     1.0  0.96056  0.63690  0.87023  1.0000
  H   H1224     1.0  0.76595  0.61246  0.97865  1.0000
  H   H1225     1.0  0.76507  0.52654  0.94637  1.0000
  C   C1226     1.0  0.65782  0.57447  0.77915  1.0000
  C   C1227     1.0  0.66727  0.75331  0.00404  1.0000
  C   C1228     1.0  0.64809  0.55249  0.75097  1.0000
  Fe  Fe204     1.0  0.79184  0.51159  0.99781  1.0000
  C   C1229     1.0  0.58814  0.75218  0.58459  1.0000
  C   C1230     1.0  0.85410  0.63386  0.59020  1.0000
  H   H1226     1.0  0.84942  0.56595  0.97779  1.0000
  H   H1227     1.0  0.92754  0.72284  0.95770  1.0000
  H   H1228     1.0  0.94016  0.72424  0.51472  1.0000
  H   H1229     1.0  0.80663  0.56709  0.94426  1.0000
  S   S408      1.0  0.83510  0.51564  0.67579  1.0000
  C   C1231     1.0  0.51783  0.73007  0.71095  1.0000
  H   H1230     1.0  0.54648  0.57773  0.84999  1.0000
  C   C1232     1.0  0.68240  0.54711  0.76657  1.0000
  C   C1233     1.0  0.82017  0.60517  0.00400  1.0000
  C   C1234     1.0  0.85732  0.65259  0.57787  1.0000
  H   H1231     1.0  0.60284  0.53891  0.86402  1.0000
  H   H1232     1.0  0.53501  0.71154  0.93313  1.0000
  S   S409      1.0  0.52667  0.74432  0.68693  1.0000
  H   H1233     1.0  0.63664  0.54800  0.73984  1.0000
  S   S410      1.0  0.83234  0.74064  0.99931  1.0000
  C   C1235     1.0  0.65200  0.75713  0.98880  1.0000
  H   H1234     1.0  0.00087  0.73367  0.78856  1.0000
  S   S411      1.0  0.75861  0.52432  0.00641  1.0000
  C   C1236     1.0  0.91063  0.70826  0.51207  1.0000
  S   S412      1.0  0.52396  0.74761  0.97781  1.0000
  C   C1237     1.0  0.77928  0.55069  0.58006  1.0000
  C   C1238     1.0  0.55643  0.56318  0.84798  1.0000
  C   C1239     1.0  0.79077  0.54952  0.56037  1.0000
  N   N100      1.0  0.80675  0.51546  0.57149  1.0000
  H   H1235     1.0  0.78974  0.56274  0.54866  1.0000
  H   H1236     1.0  0.85045  0.60437  0.98592  1.0000
  C   C1240     1.0  0.83705  0.59522  0.99193  1.0000
  C   C1241     1.0  0.57478  0.55947  0.85948  1.0000
  C   C1242     1.0  0.60831  0.74803  0.57455  1.0000
  C   C1243     1.0  0.97121  0.59426  0.83898  1.0000
  H   H1237     1.0  0.89151  0.61716  0.52422  1.0000
  H   H1238     1.0  0.54123  0.70737  0.89396  1.0000
  N   N101      1.0  0.96913  0.62702  0.81771  1.0000
  C   C1244     1.0  0.79103  0.57167  0.95158  1.0000
  C   C1245     1.0  0.56508  0.53043  0.82983  1.0000
  Fe  Fe205     1.0  0.65758  0.52203  0.82297  1.0000
  H   H1239     1.0  0.99634  0.75311  0.67931  1.0000
  C   C1246     1.0  0.69229  0.56932  0.79552  1.0000
  C   C1247     1.0  0.75182  0.58299  0.97188  1.0000
  N   N102      1.0  0.77483  0.55780  0.95249  1.0000
  H   H1240     1.0  0.67203  0.52815  0.74154  1.0000
  C   C1248     1.0  0.90210  0.50886  0.69427  1.0000
  Fe  Fe206     1.0  0.51795  0.65510  0.83937  1.0000
  H   H1241     1.0  0.90104  0.71991  0.52114  1.0000
  H   H1242     1.0  0.80099  0.60241  0.96036  1.0000
  H   H1243     1.0  0.62108  0.74012  0.58336  1.0000
  C   C1249     1.0  0.61230  0.75520  0.55333  1.0000
  H   H1244     1.0  0.86143  0.59993  0.59299  1.0000
  H   H1245     1.0  0.81380  0.53118  0.54118  1.0000
  H   H1246     1.0  0.87718  0.73441  0.93135  1.0000
  H   H1247     1.0  0.98017  0.62918  0.78483  1.0000
  H   H1248     1.0  0.91226  0.53169  0.71593  1.0000
  C   C1250     1.0  0.88967  0.72497  0.94007  1.0000
  H   H1249     1.0  0.88675  0.51712  0.69200  1.0000
  H   H1250     1.0  0.72400  0.69161  0.51458  1.0000
  C   C1251     1.0  0.80579  0.75230  0.00352  1.0000
  H   H1251     1.0  0.63586  0.75176  0.99188  1.0000
  H   H1252     1.0  0.70711  0.72812  0.50945  1.0000
  H   H1253     1.0  0.61310  0.51390  0.82942  1.0000
  H   H1254     1.0  0.93666  0.73918  0.99092  1.0000
  H   H1255     1.0  0.68786  0.51440  0.93232  1.0000
  S   S413      1.0  0.51214  0.68547  0.96621  1.0000
  C   C1252     1.0  0.80241  0.57115  0.00735  1.0000
  C   C1253     1.0  0.90516  0.75422  0.99657  1.0000
  C   C1254     1.0  0.88458  0.75706  0.98916  1.0000
  H   H1256     1.0  0.98890  0.75558  0.75703  1.0000
  C   C1255     1.0  0.59779  0.50844  0.83704  1.0000
  Fe  Fe207     1.0  0.64571  0.79647  0.48394  1.0000
  H   H1257     1.0  0.71736  0.80866  0.09380  1.0000
  S   S414      1.0  0.61817  0.78300  0.46687  1.0000
  Fe  Fe208     1.0  0.67388  0.83254  0.49612  1.0000
  S   S415      1.0  0.00653  0.80932  0.25175  1.0000
  H   H1258     1.0  0.55714  0.96735  0.19258  1.0000
  S   S416      1.0  0.67849  0.80656  0.47212  1.0000
  C   C1256     1.0  0.68551  0.94827  0.22412  1.0000
  C   C1257     1.0  0.54581  0.75934  0.07042  1.0000
  Fe  Fe209     1.0  0.54391  0.80202  0.36575  1.0000
  H   H1259     1.0  0.89201  0.93381  0.35493  1.0000
  S   S417      1.0  0.57327  0.81388  0.38094  1.0000
  H   H1260     1.0  0.73635  0.99593  0.23637  1.0000
  H   H1261     1.0  0.62177  0.95675  0.21275  1.0000
  S   S418      1.0  0.54003  0.80615  0.33015  1.0000
  C   C1258     1.0  0.74526  0.81539  0.05989  1.0000
  C   C1259     1.0  0.52788  0.87590  0.31331  1.0000
  H   H1262     1.0  0.72486  0.95990  0.22971  1.0000
  C   C1260     1.0  0.97122  0.81434  0.49883  1.0000
  H   H1263     1.0  0.93923  0.80346  0.50399  1.0000
  H   H1264     1.0  0.57247  0.84125  0.43867  1.0000
  C   C1261     1.0  0.80036  0.99333  0.40265  1.0000
  Fe  Fe210     1.0  0.73416  0.98318  0.17308  1.0000
  C   C1262     1.0  0.55729  0.84489  0.43057  1.0000
  Fe  Fe211     1.0  0.71741  0.97116  0.12921  1.0000
  H   H1265     1.0  0.52430  0.76932  0.26139  1.0000
  S   S419      1.0  0.72618  0.95397  0.09813  1.0000
  H   H1266     1.0  0.66000  0.98376  0.22819  1.0000
  C   C1263     1.0  0.76415  0.77252  0.00991  1.0000
  S   S420      1.0  0.88108  0.98330  0.33464  1.0000
  S   S421      1.0  0.71200  0.95861  0.16306  1.0000
  Fe  Fe212     1.0  0.69691  0.85498  0.03064  1.0000
  S   S422      1.0  0.69044  0.86896  0.06358  1.0000
  C   C1264     1.0  0.82522  0.93782  0.35824  1.0000
  S   S423      1.0  0.98828  0.82738  0.31188  1.0000
  H   H1267     1.0  0.58651  0.76447  0.44307  1.0000
  S   S424      1.0  0.68900  0.82068  0.02681  1.0000
  H   H1268     1.0  0.78549  0.84580  0.03941  1.0000
  C   C1265     1.0  0.54722  0.81043  0.44744  1.0000
  Fe  Fe213     1.0  0.87323  0.96245  0.30823  1.0000
  C   C1266     1.0  0.83496  0.94173  0.39447  1.0000
  S   S425      1.0  0.88477  0.92765  0.30520  1.0000
  N   N103      1.0  0.53133  0.97990  0.17477  1.0000
  N   N104      1.0  0.86096  0.92785  0.36823  1.0000
  S   S426      1.0  0.83776  0.97097  0.31058  1.0000
  Fe  Fe214     1.0  0.52372  0.77465  0.33246  1.0000
  H   H1269     1.0  0.99597  0.79548  0.21063  1.0000
  S   S427      1.0  0.98073  0.89359  0.31710  1.0000
  H   H1270     1.0  0.80938  0.96723  0.25516  1.0000
  C   C1267     1.0  0.62485  0.79483  0.01407  1.0000
  Fe  Fe215     1.0  0.78869  0.99118  0.48811  1.0000
  H   H1271     1.0  0.85420  0.99503  0.39281  1.0000
  S   S428      1.0  0.75458  0.98583  0.48117  1.0000
  H   H1272     1.0  0.78566  0.99367  0.39436  1.0000
  H   H1273     1.0  0.55017  0.86037  0.43619  1.0000
  S   S429      1.0  0.53028  0.76954  0.36754  1.0000
  C   C1268     1.0  0.51342  0.79568  0.44120  1.0000
  C   C1269     1.0  0.74140  0.85019  0.07354  1.0000
  C   C1270     1.0  0.91071  0.91740  0.31126  1.0000
  C   C1271     1.0  0.91694  0.89616  0.30664  1.0000
  C   C1272     1.0  0.93813  0.88813  0.30929  1.0000
  C   C1273     1.0  0.95311  0.90122  0.31696  1.0000
  C   C1274     1.0  0.94648  0.92205  0.32273  1.0000
  C   C1275     1.0  0.92544  0.93018  0.31977  1.0000
  H   H1274     1.0  0.90556  0.88606  0.30028  1.0000
  H   H1275     1.0  0.94301  0.87203  0.30489  1.0000
  H   H1276     1.0  0.95797  0.93224  0.32879  1.0000
  H   H1277     1.0  0.92084  0.94650  0.32355  1.0000
  H   H1278     1.0  0.77237  0.80916  0.03780  1.0000
  C   C1276     1.0  0.55367  0.97181  0.17574  1.0000
  S   S430      1.0  0.53887  0.93474  0.28601  1.0000
  S   S431      1.0  0.74176  0.99373  0.13883  1.0000
  H   H1279     1.0  0.73005  0.87356  0.44743  1.0000
  H   H1280     1.0  0.85033  0.92558  0.33671  1.0000
  C   C1277     1.0  0.53776  0.89440  0.30494  1.0000
  S   S432      1.0  0.81799  0.99003  0.46450  1.0000
  S   S433      1.0  0.68292  0.86632  0.48474  1.0000
  H   H1281     1.0  0.55880  0.94487  0.35171  1.0000
  S   S434      1.0  0.87920  0.98701  0.28180  1.0000
  C   C1278     1.0  0.71948  0.99336  0.23502  1.0000
  S   S435      1.0  0.63995  0.82392  0.50592  1.0000
  H   H1282     1.0  0.73940  0.79954  0.05866  1.0000
  C   C1279     1.0  0.77610  0.98264  0.21495  1.0000
  C   C1280     1.0  0.74567  0.86941  0.47717  1.0000
  C   C1281     1.0  0.73212  0.82800  0.47869  1.0000
  C   C1282     1.0  0.53724  0.97818  0.32933  1.0000
  C   C1283     1.0  0.60906  0.78070  0.02174  1.0000
  H   H1283     1.0  0.73253  0.86194  0.08322  1.0000
  H   H1284     1.0  0.66787  0.94685  0.22601  1.0000
  C   C1284     1.0  0.83894  0.99407  0.40171  1.0000
  H   H1285     1.0  0.56387  0.94315  0.32300  1.0000
  C   C1285     1.0  0.71563  0.93052  0.08873  1.0000
  C   C1286     1.0  0.70068  0.91868  0.10096  1.0000
  C   C1287     1.0  0.69298  0.90004  0.09292  1.0000
  C   C1288     1.0  0.69995  0.89311  0.07251  1.0000
  C   C1289     1.0  0.71490  0.90493  0.06025  1.0000
  C   C1290     1.0  0.72270  0.92349  0.06836  1.0000
  H   H1286     1.0  0.69511  0.92383  0.11666  1.0000
  H   H1287     1.0  0.68149  0.89099  0.10258  1.0000
  H   H1288     1.0  0.72051  0.89975  0.04458  1.0000
  H   H1289     1.0  0.73428  0.93249  0.05877  1.0000
  H   H1290     1.0  0.53733  0.86301  0.32074  1.0000
  C   C1291     1.0  0.71464  0.82395  0.08455  1.0000
  H   H1291     1.0  0.00255  0.76150  0.19174  1.0000
  N   N105      1.0  0.69174  0.96964  0.22902  1.0000
  C   C1292     1.0  0.52574  0.91137  0.29525  1.0000
  C   C1293     1.0  0.73038  0.00712  0.08279  1.0000
  S   S436      1.0  0.75761  0.97112  0.19857  1.0000
  H   H1292     1.0  0.88308  0.90767  0.35025  1.0000
  H   H1293     1.0  0.80369  0.95042  0.38319  1.0000
  H   H1294     1.0  0.56155  0.84644  0.41310  1.0000
  Fe  Fe216     1.0  0.68556  0.98436  0.16609  1.0000
  C   C1294     1.0  0.75991  0.85618  0.06170  1.0000
  N   N106      1.0  0.73435  0.82999  0.07256  1.0000
  N   N107      1.0  0.74320  0.83489  0.49504  1.0000
  C   C1295     1.0  0.74980  0.85536  0.49455  1.0000
  S   S437      1.0  0.70740  0.00820  0.17790  1.0000
  C   C1296     1.0  0.51305  0.95018  0.33302  1.0000
  Fe  Fe217     1.0  0.84591  0.99382  0.33533  1.0000
  C   C1297     1.0  0.51537  0.96575  0.17617  1.0000
  H   H1295     1.0  0.76513  0.87235  0.06223  1.0000
  S   S438      1.0  0.52339  0.96537  0.23228  1.0000
  C   C1298     1.0  0.60704  0.79108  0.44211  1.0000
  C   C1299     1.0  0.59109  0.77892  0.43434  1.0000
  C   C1300     1.0  0.58083  0.78539  0.41547  1.0000
  C   C1301     1.0  0.58651  0.80409  0.40406  1.0000
  C   C1302     1.0  0.60276  0.81599  0.41159  1.0000
  C   C1303     1.0  0.61289  0.80962  0.43054  1.0000
  C   C1304     1.0  0.83802  0.99246  0.42427  1.0000
  H   H1296     1.0  0.56847  0.77599  0.40983  1.0000
  H   H1297     1.0  0.60741  0.83040  0.40282  1.0000
  H   H1298     1.0  0.62515  0.81912  0.43624  1.0000
  H   H1299     1.0  0.85269  0.99227  0.43261  1.0000
  C   C1305     1.0  0.70230  0.90475  0.48518  1.0000
  H   H1300     1.0  0.71808  0.93474  0.48440  1.0000
  H   H1301     1.0  0.69551  0.90796  0.46981  1.0000
  Fe  Fe218     1.0  0.52423  0.96394  0.26811  1.0000
  C   C1306     1.0  0.81965  0.94366  0.37912  1.0000
  C   C1307     1.0  0.67673  0.98627  0.23035  1.0000
  C   C1308     1.0  0.79947  0.99154  0.42518  1.0000
  C   C1309     1.0  0.78023  0.00439  0.21354  1.0000
  H   H1302     1.0  0.56259  0.80881  0.45466  1.0000
  S   S439      1.0  0.54014  0.99535  0.26923  1.0000
  C   C1310     1.0  0.69820  0.88542  0.49659  1.0000
  H   H1303     1.0  0.78419  0.99057  0.43407  1.0000
  H   H1304     1.0  0.71805  0.83638  0.44866  1.0000
  C   C1311     1.0  0.84607  0.92988  0.35304  1.0000
  H   H1305     1.0  0.61010  0.77316  0.03751  1.0000
  H   H1306     1.0  0.72636  0.81199  0.47931  1.0000
  H   H1307     1.0  0.69049  0.94503  0.20720  1.0000
  C   C1312     1.0  0.52690  0.75842  0.08335  1.0000
  H   H1308     1.0  0.91110  0.91414  0.26207  1.0000
  C   C1313     1.0  0.82006  0.99463  0.39078  1.0000
  H   H1309     1.0  0.69320  0.93591  0.23477  1.0000
  N   N108      1.0  0.53347  0.95701  0.33282  1.0000
  Fe  Fe219     1.0  0.99877  0.86122  0.31273  1.0000
  H   H1310     1.0  0.81360  0.93997  0.34605  1.0000
  C   C1314     1.0  0.80133  0.97770  0.24368  1.0000
  H   H1311     1.0  0.89140  0.91334  0.37614  1.0000
  S   S440      1.0  0.81994  0.99653  0.36244  1.0000
  S   S441      1.0  0.65613  0.97205  0.18521  1.0000
  C   C1315     1.0  0.77127  0.84131  0.04891  1.0000
  H   H1312     1.0  0.74496  0.99670  0.08555  1.0000
  H   H1313     1.0  0.75774  0.86115  0.50792  1.0000
  H   H1314     1.0  0.98777  0.93856  0.28532  1.0000
  C   C1316     1.0  0.71515  0.91998  0.49339  1.0000
  C   C1317     1.0  0.54434  0.80282  0.27280  1.0000
  S   S442      1.0  0.72504  0.76876  0.49325  1.0000
  H   H1315     1.0  0.78368  0.95260  0.23149  1.0000
  C   C1318     1.0  0.53310  0.79388  0.45064  1.0000
  H   H1316     1.0  0.56503  0.98408  0.16985  1.0000
  C   C1319     1.0  0.55158  0.94175  0.33646  1.0000
  C   C1320     1.0  0.52644  0.00142  0.17357  1.0000
  H   H1317     1.0  0.83089  0.94688  0.41059  1.0000
  C   C1321     1.0  0.72758  0.84167  0.46115  1.0000
  N   N109      1.0  0.93970  0.93017  0.26607  1.0000
  C   C1322     1.0  0.96059  0.92639  0.27106  1.0000
  C   C1323     1.0  0.92949  0.94965  0.26948  1.0000
  C   C1324     1.0  0.97159  0.94212  0.28034  1.0000
  C   C1325     1.0  0.94003  0.96580  0.27868  1.0000
  C   C1326     1.0  0.96119  0.96191  0.28423  1.0000
  C   C1327     1.0  0.92832  0.91349  0.25645  1.0000
  H   H1318     1.0  0.96860  0.91079  0.26886  1.0000
  H   H1319     1.0  0.91286  0.95253  0.26572  1.0000
  H   H1320     1.0  0.93169  0.98104  0.28197  1.0000
  H   H1321     1.0  0.96935  0.97406  0.29192  1.0000
  N   N110      1.0  0.54207  0.82804  0.43476  1.0000
  C   C1328     1.0  0.76395  0.82076  0.04800  1.0000
  H   H1322     1.0  0.93493  0.89729  0.26123  1.0000
  H   H1323     1.0  0.97030  0.81658  0.48162  1.0000
  C   C1329     1.0  0.78671  0.96943  0.23018  1.0000
  H   H1324     1.0  0.55689  0.95766  0.16579  1.0000
  H   H1325     1.0  0.70867  0.83633  0.09593  1.0000
  C   C1330     1.0  0.51339  0.78184  0.26764  1.0000
  C   C1331     1.0  0.63042  0.98386  0.19234  1.0000
  H   H1326     1.0  0.75021  0.88587  0.47722  1.0000
  H   H1327     1.0  0.58542  0.97180  0.22340  1.0000
  S   S443      1.0  0.51117  0.75964  0.02773  1.0000
  C   C1332     1.0  0.61656  0.97239  0.20650  1.0000
  S   S444      1.0  0.68962  0.99547  0.13136  1.0000
  C   C1333     1.0  0.71288  0.97297  0.23126  1.0000
  C   C1334     1.0  0.81830  0.99130  0.43613  1.0000
  C   C1335     1.0  0.73436  0.86251  0.46045  1.0000
  C   C1336     1.0  0.59590  0.98086  0.21256  1.0000
  C   C1337     1.0  0.85575  0.93396  0.38866  1.0000
  H   H1328     1.0  0.55251  0.78946  0.28194  1.0000
  H   H1329     1.0  0.55484  0.89554  0.30598  1.0000
  H   H1330     1.0  0.70182  0.82227  0.07329  1.0000
  C   C1338     1.0  0.88294  0.92032  0.36218  1.0000
  C   C1339     1.0  0.52272  0.83001  0.42562  1.0000
  H   H1331     1.0  0.92960  0.91553  0.23876  1.0000
  C   C1340     1.0  0.58878  0.00088  0.20432  1.0000
  H   H1332     1.0  0.63788  0.79803  0.02387  1.0000
  S   S445      1.0  0.73780  0.78437  0.01488  1.0000
  S   S446      1.0  0.72944  0.85050  0.01396  1.0000
  H   H1333     1.0  0.86770  0.93305  0.40055  1.0000
  C   C1341     1.0  0.80567  0.99939  0.24210  1.0000
  Fe  Fe220     1.0  0.69172  0.78573  0.49913  1.0000
  H   H1334     1.0  0.53758  0.77960  0.46004  1.0000
  H   H1335     1.0  0.54665  0.92497  0.33708  1.0000
  H   H1336     1.0  0.51915  0.94873  0.17798  1.0000
  H   H1337     1.0  0.55346  0.98354  0.32870  1.0000
  Fe  Fe221     1.0  0.53692  0.99773  0.23366  1.0000
  N   N111      1.0  0.52116  0.80027  0.27425  1.0000
  Fe  Fe222     1.0  0.84430  0.99729  0.28608  1.0000
  S   S447      1.0  0.51248  0.81953  0.37395  1.0000
  H   H1338     1.0  0.54863  0.81794  0.27973  1.0000
  H   H1339     1.0  0.55051  0.80279  0.25584  1.0000
  H   H1340     1.0  0.54606  0.76834  0.05524  1.0000
  H   H1341     1.0  0.71826  0.99698  0.07664  1.0000
  C   C1342     1.0  0.00392  0.78193  0.21865  1.0000
  S   S448      1.0  0.00868  0.79681  0.46124  1.0000
  H   H1342     1.0  0.51354  0.83075  0.28738  1.0000
  C   C1343     1.0  0.62344  0.00402  0.18435  1.0000
  H   H1343     1.0  0.51008  0.93332  0.33518  1.0000
  C   C1344     1.0  0.52030  0.99320  0.32619  1.0000
  H   H1344     1.0  0.51240  0.76655  0.07782  1.0000
  C   C1345     1.0  0.59202  0.77619  0.00918  1.0000
  H   H1345     1.0  0.00398  0.82285  0.49837  1.0000
  H   H1346     1.0  0.51872  0.84385  0.41538  1.0000
  C   C1346     1.0  0.99028  0.81788  0.50842  1.0000
  C   C1347     1.0  0.00764  0.76262  0.20784  1.0000
  H   H1347     1.0  0.00826  0.82951  0.42753  1.0000
  H   H1348     1.0  0.90884  0.76102  0.01146  1.0000
  C   C1348     1.0  0.68279  0.00690  0.23392  1.0000
  H   H1349     1.0  0.69967  0.75844  0.01197  1.0000
  S   S449      1.0  0.68864  0.81238  0.52241  1.0000
  H   H1350     1.0  0.92691  0.87743  0.68126  1.0000
  Fe  Fe223     1.0  0.65504  0.80186  0.53057  1.0000
  S   S450      1.0  0.64205  0.79600  0.56501  1.0000
  Fe  Fe224     1.0  0.52820  0.80812  0.63369  1.0000
  S   S451      1.0  0.54666  0.81705  0.60231  1.0000
  S   S452      1.0  0.53896  0.80393  0.66729  1.0000
  H   H1351     1.0  0.00736  0.90422  0.74759  1.0000
  H   H1352     1.0  0.72302  0.96881  0.77880  1.0000
  Fe  Fe225     1.0  0.69712  0.96938  0.86771  1.0000
  H   H1353     1.0  0.71682  0.98984  0.92963  1.0000
  S   S453      1.0  0.68521  0.93960  0.88586  1.0000
  C   C1349     1.0  0.68768  0.76105  0.00017  1.0000
  C   C1350     1.0  0.65730  0.76894  0.96998  1.0000
  H   H1354     1.0  0.72656  0.89363  0.54011  1.0000
  S   S454      1.0  0.69593  0.97391  0.83193  1.0000
  S   S455      1.0  0.72907  0.98375  0.86830  1.0000
  C   C1351     1.0  0.75561  0.95824  0.57582  1.0000
  S   S456      1.0  0.70592  0.82677  0.97661  1.0000
  H   H1355     1.0  0.89972  0.86956  0.67944  1.0000
  Fe  Fe226     1.0  0.71228  0.86057  0.98405  1.0000
  S   S457      1.0  0.72843  0.88520  0.96163  1.0000
  C   C1352     1.0  0.71005  0.00128  0.77889  1.0000
  S   S458      1.0  0.84913  0.97394  0.70250  1.0000
  H   H1356     1.0  0.52033  0.87767  0.73605  1.0000
  H   H1357     1.0  0.92071  0.92816  0.62467  1.0000
  S   S459      1.0  0.89290  0.98763  0.67514  1.0000
  H   H1358     1.0  0.74344  0.96146  0.56431  1.0000
  H   H1359     1.0  0.68939  0.99536  0.92398  1.0000
  Fe  Fe227     1.0  0.88445  0.97363  0.70773  1.0000
  S   S460      1.0  0.90062  0.94409  0.72357  1.0000
  N   N112      1.0  0.67738  0.77636  0.96625  1.0000
  H   H1360     1.0  0.86831  0.94401  0.66931  1.0000
  H   H1361     1.0  0.76314  0.82256  0.51959  1.0000
  C   C1353     1.0  0.91621  0.90631  0.65201  1.0000
  S   S461      1.0  0.97691  0.88923  0.67797  1.0000
  H   H1362     1.0  0.85060  0.93917  0.77418  1.0000
  H   H1363     1.0  0.77389  0.97760  0.62008  1.0000
  H   H1364     1.0  0.92994  0.89594  0.64724  1.0000
  H   H1365     1.0  0.67428  0.80550  0.94814  1.0000
  H   H1366     1.0  0.90685  0.88562  0.70101  1.0000
  H   H1367     1.0  0.67865  0.91871  0.97922  1.0000
  H   H1368     1.0  0.51914  0.91727  0.73772  1.0000
  H   H1369     1.0  0.63708  0.98702  0.76880  1.0000
  S   S462      1.0  0.78775  0.97076  0.51876  1.0000
  C   C1354     1.0  0.70706  0.88155  0.51646  1.0000
  S   S463      1.0  0.65931  0.77374  0.50932  1.0000
  Fe  Fe228     1.0  0.54397  0.98565  0.76780  1.0000
  H   H1370     1.0  0.78218  0.96120  0.77576  1.0000
  S   S464      1.0  0.54779  0.98984  0.73201  1.0000
  H   H1371     1.0  0.87837  0.91216  0.69189  1.0000
  S   S465      1.0  0.74063  0.93452  0.52444  1.0000
  C   C1355     1.0  0.77131  0.99158  0.78833  1.0000
  C   C1356     1.0  0.68904  0.97091  0.77391  1.0000
  H   H1372     1.0  0.77793  0.80020  0.99432  1.0000
  N   N113      1.0  0.67106  0.98409  0.77222  1.0000
  C   C1357     1.0  0.92403  0.93079  0.71219  1.0000
  C   C1358     1.0  0.93307  0.91263  0.72293  1.0000
  C   C1359     1.0  0.95023  0.90033  0.71327  1.0000
  C   C1360     1.0  0.95835  0.90606  0.69268  1.0000
  C   C1361     1.0  0.94996  0.92474  0.68240  1.0000
  C   C1362     1.0  0.93294  0.93708  0.69209  1.0000
  H   H1373     1.0  0.92636  0.90768  0.73854  1.0000
  H   H1374     1.0  0.95645  0.88593  0.72135  1.0000
  H   H1375     1.0  0.95622  0.92939  0.66653  1.0000
  H   H1376     1.0  0.92631  0.95109  0.68371  1.0000
  H   H1377     1.0  0.87032  0.96901  0.75659  1.0000
  C   C1363     1.0  0.95560  0.80335  0.53335  1.0000
  C   C1364     1.0  0.70922  0.95720  0.95551  1.0000
  C   C1365     1.0  0.69251  0.77258  0.98107  1.0000
  C   C1366     1.0  0.70882  0.97930  0.77709  1.0000
  C   C1367     1.0  0.79888  0.98681  0.75909  1.0000
  C   C1368     1.0  0.89377  0.93811  0.64545  1.0000
  C   C1369     1.0  0.78386  0.97829  0.77443  1.0000
  H   H1378     1.0  0.57803  0.78276  0.97891  1.0000
  C   C1370     1.0  0.57685  0.77044  0.55218  1.0000
  C   C1371     1.0  0.90970  0.88267  0.68370  1.0000
  H   H1379     1.0  0.84147  0.96295  0.59704  1.0000
  C   C1372     1.0  0.72404  0.91611  0.51324  1.0000
  C   C1373     1.0  0.83122  0.97712  0.59965  1.0000
  S   S466      1.0  0.75379  0.97960  0.80836  1.0000
  C   C1374     1.0  0.70205  0.98235  0.92530  1.0000
  C   C1375     1.0  0.84720  0.95535  0.77932  1.0000
  C   C1376     1.0  0.67558  0.95758  0.93981  1.0000
  H   H1380     1.0  0.75038  0.00337  0.60216  1.0000
  S   S467      1.0  0.00409  0.79338  0.73482  1.0000
  H   H1381     1.0  0.81759  0.97678  0.56863  1.0000
  H   H1382     1.0  0.70521  0.97539  0.90939  1.0000
  C   C1377     1.0  0.51604  0.88748  0.72218  1.0000
  H   H1383     1.0  0.60595  0.80741  0.96519  1.0000
  Fe  Fe229     1.0  0.72061  0.81704  0.00775  1.0000
  C   C1378     1.0  0.69833  0.92347  0.90559  1.0000
  C   C1379     1.0  0.68710  0.90716  0.91664  1.0000
  C   C1380     1.0  0.69625  0.89496  0.93352  1.0000
  C   C1381     1.0  0.71685  0.89884  0.93939  1.0000
  C   C1382     1.0  0.72833  0.91473  0.92793  1.0000
  C   C1383     1.0  0.71911  0.92706  0.91117  1.0000
  H   H1384     1.0  0.67106  0.90420  0.91237  1.0000
  H   H1385     1.0  0.68726  0.88275  0.94214  1.0000
  H   H1386     1.0  0.74434  0.91773  0.93226  1.0000
  H   H1387     1.0  0.72803  0.93938  0.90266  1.0000
  Fe  Fe230     1.0  0.84741  0.00678  0.71569  1.0000
  H   H1388     1.0  0.76852  0.93021  0.55989  1.0000
  C   C1384     1.0  0.85352  0.99296  0.77596  1.0000
  C   C1385     1.0  0.52682  0.95343  0.81956  1.0000
  H   H1389     1.0  0.66510  0.96346  0.92741  1.0000
  C   C1386     1.0  0.77235  0.96699  0.60710  1.0000
  Fe  Fe231     1.0  0.51028  0.82565  0.67642  1.0000
  S   S468      1.0  0.51468  0.84924  0.70251  1.0000
  C   C1387     1.0  0.91114  0.92451  0.63922  1.0000
  C   C1388     1.0  0.88178  0.93344  0.66435  1.0000
  C   C1389     1.0  0.83149  0.98740  0.61917  1.0000
  C   C1390     1.0  0.81819  0.00574  0.62224  1.0000
  C   C1391     1.0  0.61599  0.80355  0.57572  1.0000
  C   C1392     1.0  0.60995  0.79720  0.59694  1.0000
  C   C1393     1.0  0.58892  0.80151  0.60557  1.0000
  C   C1394     1.0  0.57375  0.81236  0.59304  1.0000
  C   C1395     1.0  0.57996  0.81924  0.57204  1.0000
  C   C1396     1.0  0.60093  0.81484  0.56340  1.0000
  C   C1397     1.0  0.74690  0.82078  0.51387  1.0000
  H   H1390     1.0  0.58441  0.79618  0.62177  1.0000
  H   H1391     1.0  0.56839  0.82782  0.56229  1.0000
  H   H1392     1.0  0.60541  0.82010  0.54718  1.0000
  H   H1393     1.0  0.88962  0.95237  0.63579  1.0000
  C   C1398     1.0  0.59265  0.98607  0.79772  1.0000
  Fe  Fe232     1.0  0.75284  0.96728  0.51294  1.0000
  C   C1399     1.0  0.68307  0.93229  0.96887  1.0000
  N   N114      1.0  0.59660  0.76608  0.54238  1.0000
  C   C1400     1.0  0.78087  0.78377  0.99978  1.0000
  H   H1394     1.0  0.56473  0.78001  0.54391  1.0000
  H   H1395     1.0  0.54206  0.94475  0.81638  1.0000
  C   C1401     1.0  0.78534  0.93588  0.58806  1.0000
  C   C1402     1.0  0.66908  0.94090  0.95385  1.0000
  C   C1403     1.0  0.65055  0.97474  0.76906  1.0000
  S   S469      1.0  0.67823  0.00012  0.87413  1.0000
  C   C1404     1.0  0.76970  0.94037  0.57332  1.0000
  H   H1396     1.0  0.64501  0.77280  0.95872  1.0000
  C   C1405     1.0  0.62509  0.98508  0.81808  1.0000
  H   H1397     1.0  0.65370  0.93407  0.95243  1.0000
  C   C1406     1.0  0.57228  0.76349  0.57339  1.0000
  C   C1407     1.0  0.95383  0.80693  0.51138  1.0000
  H   H1398     1.0  0.64667  0.96311  0.78243  1.0000
  C   C1408     1.0  0.78656  0.94913  0.60521  1.0000
  C   C1409     1.0  0.71989  0.89679  0.52469  1.0000
  H   H1399     1.0  0.73469  0.82466  0.52687  1.0000
  H   H1400     1.0  0.56455  0.87015  0.70810  1.0000
  H   H1401     1.0  0.60481  0.95854  0.81588  1.0000
  S   S470      1.0  0.00302  0.76663  0.56561  1.0000
  Fe  Fe233     1.0  0.67477  0.83208  0.99614  1.0000
  S   S471      1.0  0.68020  0.86680  0.00122  1.0000
  S   S472      1.0  0.84769  0.97588  0.63956  1.0000
  Fe  Fe234     1.0  0.85743  0.99028  0.67045  1.0000
  H   H1402     1.0  0.97623  0.80399  0.55945  1.0000
  H   H1403     1.0  0.80865  0.97631  0.74884  1.0000
  H   H1404     1.0  0.71462  0.93309  0.98063  1.0000
  C   C1410     1.0  0.51539  0.90994  0.72318  1.0000
  H   H1405     1.0  0.55690  0.76776  0.58138  1.0000
  H   H1406     1.0  0.63617  0.97634  0.82827  1.0000
  N   N115      1.0  0.55810  0.87175  0.65485  1.0000
  C   C1411     1.0  0.55546  0.89337  0.65123  1.0000
  C   C1412     1.0  0.56139  0.86341  0.67499  1.0000
  C   C1413     1.0  0.55657  0.90728  0.66795  1.0000
  C   C1414     1.0  0.56277  0.87687  0.69203  1.0000
  H   H1407     1.0  0.72802  0.98593  0.60449  1.0000
  C   C1415     1.0  0.55641  0.85757  0.63709  1.0000
  H   H1408     1.0  0.55211  0.89993  0.63542  1.0000
  H   H1409     1.0  0.56232  0.84627  0.67820  1.0000
  C   C1416     1.0  0.56033  0.89894  0.68844  1.0000
  C   C1417     1.0  0.68217  0.78928  0.94667  1.0000
  C   C1418     1.0  0.60161  0.77443  0.52058  1.0000
  H   H1410     1.0  0.53949  0.85734  0.63275  1.0000
  H   H1411     1.0  0.56632  0.86298  0.62280  1.0000
  H   H1412     1.0  0.56207  0.84088  0.64117  1.0000
  C   C1419     1.0  0.70328  0.94044  0.96972  1.0000
  H   H1413     1.0  0.61067  0.78911  0.52112  1.0000
  Fe  Fe235     1.0  0.77698  0.00067  0.53550  1.0000
  S   S473      1.0  0.64437  0.82092  0.98222  1.0000
  Fe  Fe236     1.0  0.72689  0.99080  0.83280  1.0000
  C   C1420     1.0  0.51158  0.87759  0.70330  1.0000
  H   H1414     1.0  0.86185  0.00602  0.76791  1.0000
  N   N116      1.0  0.75737  0.97154  0.59230  1.0000
  H   H1415     1.0  0.58698  0.77836  0.51171  1.0000
  H   H1416     1.0  0.98684  0.78487  0.60482  1.0000
  N   N117      1.0  0.99182  0.81452  0.52999  1.0000
  S   S474      1.0  0.51337  0.96795  0.76721  1.0000
  N   N118      1.0  0.69534  0.96563  0.94092  1.0000
  H   H1417     1.0  0.72517  0.00790  0.78203  1.0000
  S   S475      1.0  0.74195  0.99645  0.53133  1.0000
  C   C1421     1.0  0.67221  0.00570  0.77354  1.0000
  H   H1418     1.0  0.00337  0.80495  0.63243  1.0000
  C   C1422     1.0  0.59096  0.78607  0.98881  1.0000
  C   C1423     1.0  0.85828  0.97212  0.76942  1.0000
  N   N119      1.0  0.90453  0.90204  0.67071  1.0000
  C   C1424     1.0  0.88745  0.91530  0.67691  1.0000
  H   H1419     1.0  0.73787  0.99693  0.57879  1.0000
  C   C1425     1.0  0.60727  0.97502  0.81101  1.0000
  H   H1420     1.0  0.82268  0.94670  0.80330  1.0000
  H   H1421     1.0  0.67615  0.78184  0.93259  1.0000
  Fe  Fe237     1.0  0.67935  0.00570  0.83841  1.0000
  H   H1422     1.0  0.79889  0.94607  0.61660  1.0000
  C   C1426     1.0  0.62393  0.80449  0.99358  1.0000
  C   C1427     1.0  0.81772  0.98494  0.58347  1.0000
  H   H1423     1.0  0.79657  0.92227  0.58610  1.0000
  S   S476      1.0  0.57059  0.97247  0.78910  1.0000
  C   C1428     1.0  0.80152  0.77374  0.99670  1.0000
  H   H1424     1.0  0.70403  0.86683  0.52548  1.0000
  H   H1425     1.0  0.68811  0.95376  0.77316  1.0000
  H   H1426     1.0  0.56039  0.90952  0.70169  1.0000
  S   S477      1.0  0.98629  0.75867  0.50910  1.0000
  C   C1429     1.0  0.52643  0.97478  0.82498  1.0000
  Fe  Fe238     1.0  0.51621  0.97417  0.73148  1.0000
  H   H1427     1.0  0.65131  0.96652  0.75370  1.0000
  C   C1430     1.0  0.60685  0.80005  0.98106  1.0000
  C   C1431     1.0  0.83166  0.95955  0.79568  1.0000
  C   C1432     1.0  0.74256  0.99027  0.59466  1.0000
  H   H1428     1.0  0.54135  0.98263  0.82613  1.0000
  H   H1429     1.0  0.55376  0.92439  0.66527  1.0000
  H   H1430     1.0  0.62153  0.78856  0.60664  1.0000
  H   H1431     1.0  0.81489  0.98376  0.81425  1.0000
  Fe  Fe239     1.0  0.51623  0.77702  0.67172  1.0000
  S   S478      1.0  0.51049  0.95121  0.70507  1.0000
  H   H1432     1.0  0.72523  0.96290  0.95575  1.0000
  H   H1433     1.0  0.81428  0.78266  0.98889  1.0000
  C   C1433     1.0  0.62850  0.00640  0.81197  1.0000
  H   H1434     1.0  0.70838  0.77867  0.97837  1.0000
  C   C1434     1.0  0.82736  0.98058  0.80186  1.0000
  H   H1435     1.0  0.69967  0.79104  0.94362  1.0000
  H   H1436     1.0  0.94241  0.79702  0.54320  1.0000
  C   C1435     1.0  0.00255  0.76020  0.76524  1.0000
  S   S479      1.0  0.88237  0.00544  0.72327  1.0000
  S   S480      1.0  0.00049  0.82802  0.68229  1.0000
  N   N120      1.0  0.83808  0.99698  0.79182  1.0000
  C   C1436     1.0  0.59606  0.00739  0.79162  1.0000
  C   C1437     1.0  0.80413  0.00307  0.58673  1.0000
  Fe  Fe240     1.0  0.00114  0.86304  0.68906  1.0000
  C   C1438     1.0  0.97482  0.80729  0.54244  1.0000
  C   C1439     1.0  0.00364  0.78816  0.60290  1.0000
  C   C1440     1.0  0.51019  0.92283  0.70528  1.0000
  H   H1437     1.0  0.00242  0.90507  0.71035  1.0000
  H   H1438     1.0  0.87206  0.76589  0.99830  1.0000
  H   H1439     1.0  0.74580  0.80369  0.51021  1.0000
  H   H1440     1.0  0.61152  0.76252  0.51119  1.0000
