data_image0
_chemical_formula_structural       FeS2FeS2FeSFeS3HCSHSHC2FeS2HFeSCSH2NC3HCH2C6H4C3H2C6H4C6H4NC6H8C2HSH2NHC6H3FeC2HSH2CNH5SFeC2FeS2CHCH6NSH4CFeS2FeS2FeSFeS3CFeSFeS2HCFeSCHFeSHCH4SC2H2C7H4C3H2C6H4C6H5CHC2H2CH2CNCHCHC2H3C3FeNC2HSCHC2HNCHC3HCH4CH3NH3CH2C3HCHSC2SH2SHCFeS2FeS2FeSFeS3FeHSCH2CSH3SC2FeSC2FeS2C6H4C6H4C6H6CH3C2H2NC6H4FeCHFeHSHC2H2CHCH3CH7CHSH2C2HNC3HCH4C3HSNC6SCHNHCHC4HCHCHFeS2FeS2FeSFeS3FeCSFeHCHSFeSHSCSFeSHCHCSC6H4C6H4C6H4SHCHCSH3CHFeH2C2H2CHCHNHCHSH2NC6H4CH3C3SH2NHCH2C2NC6H5NC2H3C2H3CH2CHNHCH2CSFeSHFeSFeS2HFeSCHCS2CS2FeSCNSC2HSFeS2H2FeSFeSC2H3C2HCH2NC2H6C2NC6H2CHC6H4CNCH2C6H4C6H6CH4CNHCHCHCHCH2C7H3CFeHCSHCSCHCHCHNH2NHSC3SH2C4HC3H2CH2C2NCH2CH3CHFeH6FeCH3CFeHCHC4HFeHSHSHFeSFeS2CS2H2CSHNS2FeSH2SCHFeSFeS2C2FeSFeH2CHC6H2C2H2SH2NHCHC7H4C6SH3NCFeHC7H4C6H4C2HCH3SHCSH2SC2SCH2CFeHSHFeHSH2FeC3NC2H3CSH2CH3CFeCH2S2C2SHC2FeHFeSFeSFeSCS2H2SH2FeCSFeS2FeSHS3FeCSFeHSFeH2S3C3FeCH3CHC6H3C7H2C7H4C6H4C2HFeHC2H3CNH2C2HCNC2HC4HCHCH2NH2CH2CFeCH2C2H7CH2CHC2NC2FeH4SCHNCHSHS3HCH2SHSC2HCH2SFeSFeSFeSHS2H2SC2FeCHFeS2FeSHS2Fe2HSFeS2FeH2S2C6H2C2HC6H4C6H3C6H4C6H4C3NSHCFeCFeHC3H3C2H4CHC4H3C3SCNC2HCH2SC2HCHSCHCHNC2N2C2H2C2SH4NH2FeH2CH2CSH2CHC3HNCH7SC2H3C2HC3H2SHC2HC2HFeS2FeS2FeSFeS3HSH2S2FeSFeSH2FeHSHS2CNC3HC3HC8H4CHC2HC6H4C6H4CFeHSH5CH4SHCHNC2H2NC6H3FeH4NC6H2CHCS2CHC2FeHCHCSNHFeS2FeS2FeSFeS3FeS2HSNFeSH2SCFeHSHS2HC2H3C3NCHC6H4C3H2C6H4C6H4NC5H4FeCHC2H5SCHCHNC2HC2HCHNCH2CSCH3C2H5C2HC2H6CHNCH2CHCSC3HCSH6C3H3CFe2H2C2FeS2FeS2FeSFeS3CHFe2S2FeSHCSHFeS2HS2HSH2C3NC6H4C6H4C6H4C3SC3H4CSHC3H2NC3HFeCH8CHFeHC2H2CNC6H7NCHCNCHCHSH3C2H4CH3CSC3HFeS2FeS2FeSFeS3FeHCFeS2H2C2S2FeCSCHSCSHCHSH2C6H4C6H4C6H4CH4C3HNHNHFeH3CHCH2CHC4H2SH3CSH3CH2C3HCH2NCNHC2HCH2C5HSH2NSCFeC2HFeHCHC2HC2
_chemical_formula_sum              "Fe128 S256 H768 C768 N64"
_cell_length_a       73.7788
_cell_length_b       37.1369
_cell_length_c       45.4596
_cell_angle_alpha    90.8129
_cell_angle_beta     91.1988
_cell_angle_gamma    89.7759

_space_group_name_H-M_alt    "P 1"
_space_group_IT_number       1

loop_
  _space_group_symop_operation_xyz
  'x, y, z'

loop_
  _atom_site_type_symbol
  _atom_site_label
  _atom_site_symmetry_multiplicity
  _atom_site_fract_x
  _atom_site_fract_y
  _atom_site_fract_z
  _atom_site_occupancy
  Fe  Fe1       1.0  0.15576  0.22037  0.25074  1.0000
  S   S1        1.0  0.18051  0.18823  0.23813  1.0000
  S   S2        1.0  0.13390  0.24687  0.22166  1.0000
  Fe  Fe2       1.0  0.16833  0.22874  0.31616  1.0000
  S   S3        1.0  0.19401  0.19772  0.30753  1.0000
  S   S4        1.0  0.16703  0.25957  0.36023  1.0000
  Fe  Fe3       1.0  0.19630  0.22869  0.26585  1.0000
  S   S5        1.0  0.21886  0.26475  0.24942  1.0000
  Fe  Fe4       1.0  0.17632  0.15887  0.28102  1.0000
  S   S6        1.0  0.18166  0.10006  0.29438  1.0000
  S   S7        1.0  0.17178  0.26205  0.27601  1.0000
  S   S8        1.0  0.15039  0.18867  0.29205  1.0000
  H   H1        1.0  0.12474  0.05248  0.31632  1.0000
  C   C1        1.0  0.07639  0.25765  0.09124  1.0000
  S   S9        1.0  0.10442  0.27632  0.45496  1.0000
  H   H2        1.0  0.00819  0.27882  0.48783  1.0000
  S   S10       1.0  0.08694  0.34102  0.06132  1.0000
  H   H3        1.0  0.32132  0.41945  0.34450  1.0000
  C   C2        1.0  0.13813  0.04534  0.30719  1.0000
  C   C3        1.0  0.33029  0.42204  0.36439  1.0000
  Fe  Fe5       1.0  0.11226  0.30891  0.05258  1.0000
  S   S11       1.0  0.12673  0.26792  0.08240  1.0000
  S   S12       1.0  0.10169  0.28748  0.00868  1.0000
  H   H4        1.0  0.13058  0.22802  0.36370  1.0000
  Fe  Fe6       1.0  0.32536  0.30435  0.27934  1.0000
  S   S13       1.0  0.30278  0.26368  0.28688  1.0000
  C   C4        1.0  0.13190  0.19994  0.46430  1.0000
  S   S14       1.0  0.12699  0.35517  0.03212  1.0000
  H   H5        1.0  0.08831  0.26420  0.10458  1.0000
  H   H6        1.0  0.26382  0.24643  0.35486  1.0000
  N   N1        1.0  0.04595  0.24117  0.05660  1.0000
  C   C5        1.0  0.04395  0.25828  0.08321  1.0000
  C   C6        1.0  0.05913  0.26699  0.10084  1.0000
  C   C7        1.0  0.25301  0.29246  0.33213  1.0000
  H   H7        1.0  0.14835  0.25955  0.48559  1.0000
  C   C8        1.0  0.02825  0.33090  0.04585  1.0000
  H   H8        1.0  0.20311  0.31270  0.29420  1.0000
  H   H9        1.0  0.26624  0.30237  0.32609  1.0000
  C   C9        1.0  0.24229  0.26318  0.25907  1.0000
  C   C10       1.0  0.25347  0.29198  0.25119  1.0000
  C   C11       1.0  0.27206  0.29243  0.25912  1.0000
  C   C12       1.0  0.27972  0.26379  0.27477  1.0000
  C   C13       1.0  0.26859  0.23475  0.28226  1.0000
  C   C14       1.0  0.24996  0.23450  0.27464  1.0000
  H   H10       1.0  0.24769  0.31424  0.23903  1.0000
  H   H11       1.0  0.28044  0.31493  0.25319  1.0000
  H   H12       1.0  0.27440  0.21242  0.29429  1.0000
  H   H13       1.0  0.24156  0.21208  0.28072  1.0000
  C   C15       1.0  0.17934  0.05628  0.27805  1.0000
  C   C16       1.0  0.17019  0.05025  0.25117  1.0000
  C   C17       1.0  0.18581  0.02629  0.29384  1.0000
  H   H14       1.0  0.16511  0.07291  0.23874  1.0000
  H   H15       1.0  0.19296  0.03057  0.31461  1.0000
  C   C18       1.0  0.13220  0.25221  0.18287  1.0000
  C   C19       1.0  0.12079  0.27938  0.17147  1.0000
  C   C20       1.0  0.11912  0.28501  0.14088  1.0000
  C   C21       1.0  0.12844  0.26270  0.12122  1.0000
  C   C22       1.0  0.13961  0.23516  0.13260  1.0000
  C   C23       1.0  0.14170  0.23024  0.16323  1.0000
  H   H16       1.0  0.11329  0.29640  0.18646  1.0000
  H   H17       1.0  0.11054  0.30640  0.13255  1.0000
  H   H18       1.0  0.14683  0.21764  0.11762  1.0000
  H   H19       1.0  0.15041  0.20907  0.17161  1.0000
  C   C24       1.0  0.14880  0.26568  0.38502  1.0000
  C   C25       1.0  0.15104  0.28973  0.40906  1.0000
  C   C26       1.0  0.13730  0.29456  0.42993  1.0000
  C   C27       1.0  0.12116  0.27498  0.42724  1.0000
  C   C28       1.0  0.11887  0.25111  0.40310  1.0000
  C   C29       1.0  0.13254  0.24658  0.38204  1.0000
  H   H20       1.0  0.16353  0.30474  0.41159  1.0000
  H   H21       1.0  0.13930  0.31305  0.44830  1.0000
  H   H22       1.0  0.10647  0.23577  0.40076  1.0000
  H   H23       1.0  0.05756  0.28097  0.12174  1.0000
  N   N2        1.0  0.16931  0.30416  0.18281  1.0000
  C   C30       1.0  0.18250  0.28215  0.19426  1.0000
  C   C31       1.0  0.16635  0.30560  0.15302  1.0000
  C   C32       1.0  0.19276  0.25994  0.17588  1.0000
  C   C33       1.0  0.17632  0.28366  0.13395  1.0000
  C   C34       1.0  0.18954  0.26056  0.14552  1.0000
  C   C35       1.0  0.15889  0.32737  0.20264  1.0000
  H   H24       1.0  0.18510  0.28148  0.21778  1.0000
  H   H25       1.0  0.15585  0.32291  0.14384  1.0000
  H   H26       1.0  0.20308  0.24233  0.18529  1.0000
  H   H27       1.0  0.17340  0.28395  0.11042  1.0000
  H   H28       1.0  0.19719  0.24305  0.13102  1.0000
  H   H29       1.0  0.14570  0.33543  0.19239  1.0000
  H   H30       1.0  0.15555  0.31271  0.22301  1.0000
  H   H31       1.0  0.16680  0.35183  0.20863  1.0000
  C   C36       1.0  0.20423  0.31576  0.31851  1.0000
  C   C37       1.0  0.06285  0.23232  0.04689  1.0000
  H   H32       1.0  0.03224  0.23411  0.01525  1.0000
  S   S15       1.0  0.32940  0.34386  0.24276  1.0000
  H   H33       1.0  0.02671  0.20167  0.04307  1.0000
  H   H34       1.0  0.01113  0.34741  0.08160  1.0000
  N   N3        1.0  0.14273  0.00786  0.31395  1.0000
  H   H35       1.0  0.04074  0.33790  0.05740  1.0000
  C   C38       1.0  0.02990  0.23034  0.03911  1.0000
  C   C39       1.0  0.11775  0.48252  0.02032  1.0000
  C   C40       1.0  0.01146  0.33615  0.05953  1.0000
  C   C41       1.0  0.23456  0.24770  0.35494  1.0000
  C   C42       1.0  0.25164  0.26095  0.34824  1.0000
  C   C43       1.0  0.07831  0.24029  0.06410  1.0000
  H   H36       1.0  0.09175  0.23346  0.05639  1.0000
  H   H37       1.0  0.23837  0.33353  0.30878  1.0000
  H   H38       1.0  0.19167  0.30479  0.32806  1.0000
  Fe  Fe7       1.0  0.10093  0.38618  0.03782  1.0000
  C   C44       1.0  0.21903  0.26632  0.34542  1.0000
  C   C45       1.0  0.23720  0.30998  0.32245  1.0000
  H   H39       1.0  0.20487  0.34481  0.32449  1.0000
  S   S16       1.0  0.09693  0.44231  0.05792  1.0000
  H   H40       1.0  0.03056  0.26565  0.09078  1.0000
  H   H41       1.0  0.12124  0.45734  0.00952  1.0000
  C   C46       1.0  0.10662  0.48244  0.04483  1.0000
  N   N4        1.0  0.22051  0.29700  0.32933  1.0000
  H   H42       1.0  0.23330  0.22291  0.36706  1.0000
  H   H43       1.0  0.20581  0.25582  0.35072  1.0000
  H   H44       1.0  0.06447  0.21947  0.02552  1.0000
  H   H45       1.0  0.14853  0.06422  0.31641  1.0000
  H   H46       1.0  0.01788  0.24714  0.04464  1.0000
  S   S17       1.0  0.11047  0.45082  0.49461  1.0000
  Fe  Fe8       1.0  0.07748  0.32347  0.01608  1.0000
  C   C47       1.0  0.02884  0.31546  0.01765  1.0000
  C   C48       1.0  0.01548  0.38222  0.47782  1.0000
  Fe  Fe9       1.0  0.10162  0.31706  0.49290  1.0000
  S   S18       1.0  0.08122  0.36249  0.49131  1.0000
  S   S19       1.0  0.33288  0.34420  0.31535  1.0000
  C   C49       1.0  0.16722  0.01472  0.24065  1.0000
  H   H47       1.0  0.11819  0.20143  0.45372  1.0000
  C   C50       1.0  0.01644  0.40494  0.50249  1.0000
  H   H48       1.0  0.33117  0.27864  0.10557  1.0000
  H   H49       1.0  0.15990  0.01041  0.22004  1.0000
  H   H50       1.0  0.13772  0.04964  0.28302  1.0000
  H   H51       1.0  0.14131  0.21516  0.45031  1.0000
  H   H52       1.0  0.33035  0.39585  0.37593  1.0000
  H   H53       1.0  0.32452  0.44272  0.37942  1.0000
  N   N5        1.0  0.13127  0.21483  0.49431  1.0000
  S   S20       1.0  0.32867  0.44054  0.28463  1.0000
  H   H54       1.0  0.02784  0.37237  0.46789  1.0000
  H   H55       1.0  0.06053  0.47826  0.03836  1.0000
  H   H56       1.0  0.13653  0.17148  0.46461  1.0000
  H   H57       1.0  0.15711  0.02167  0.35368  1.0000
  C   C51       1.0  0.14076  0.24530  0.50192  1.0000
  Fe  Fe10      1.0  0.16044  0.22587  0.74358  1.0000
  S   S21       1.0  0.18869  0.20604  0.73414  1.0000
  S   S22       1.0  0.13711  0.24219  0.71223  1.0000
  Fe  Fe11      1.0  0.16537  0.21486  0.81061  1.0000
  S   S23       1.0  0.19403  0.19470  0.80594  1.0000
  S   S24       1.0  0.15022  0.21116  0.85397  1.0000
  Fe  Fe12      1.0  0.19741  0.23958  0.77372  1.0000
  S   S25       1.0  0.21986  0.28187  0.77493  1.0000
  Fe  Fe13      1.0  0.18332  0.16217  0.76704  1.0000
  S   S26       1.0  0.19399  0.10447  0.76036  1.0000
  S   S27       1.0  0.16932  0.26213  0.78126  1.0000
  S   S28       1.0  0.15452  0.17952  0.77360  1.0000
  C   C52       1.0  0.30896  0.35077  0.67946  1.0000
  Fe  Fe14      1.0  0.10315  0.39618  0.51291  1.0000
  S   S29       1.0  0.13004  0.33693  0.94532  1.0000
  Fe  Fe15      1.0  0.07435  0.34681  0.53733  1.0000
  S   S30       1.0  0.09520  0.38375  0.55895  1.0000
  S   S31       1.0  0.04609  0.35183  0.55656  1.0000
  H   H58       1.0  0.13177  0.29631  0.75945  1.0000
  C   C53       1.0  0.02516  0.30968  0.51804  1.0000
  Fe  Fe16      1.0  0.11417  0.33630  0.55614  1.0000
  S   S32       1.0  0.13710  0.32513  0.58954  1.0000
  C   C54       1.0  0.29011  0.30761  0.70340  1.0000
  H   H59       1.0  0.15757  0.28891  0.85515  1.0000
  Fe  Fe17      1.0  0.32821  0.30381  0.77490  1.0000
  S   S33       1.0  0.30581  0.26166  0.77201  1.0000
  H   H60       1.0  0.08756  0.27012  0.85982  1.0000
  C   C55       1.0  0.17183  0.05898  0.84932  1.0000
  H   H61       1.0  0.10596  0.24024  0.87037  1.0000
  H   H62       1.0  0.30139  0.25460  0.70758  1.0000
  H   H63       1.0  0.33468  0.33061  0.66501  1.0000
  H   H64       1.0  0.10847  0.22145  0.81865  1.0000
  S   S34       1.0  0.04960  0.30317  0.00133  1.0000
  C   C56       1.0  0.13754  0.49554  0.57339  1.0000
  C   C57       1.0  0.02561  0.33302  0.54246  1.0000
  H   H65       1.0  0.14513  0.49848  0.52794  1.0000
  H   H66       1.0  0.00948  0.36074  0.57472  1.0000
  C   C58       1.0  0.10248  0.26778  0.86274  1.0000
  C   C59       1.0  0.24373  0.27546  0.77463  1.0000
  C   C60       1.0  0.25512  0.30568  0.77777  1.0000
  C   C61       1.0  0.27415  0.30198  0.77741  1.0000
  C   C62       1.0  0.28198  0.26793  0.77366  1.0000
  C   C63       1.0  0.27063  0.23773  0.77044  1.0000
  C   C64       1.0  0.25160  0.24141  0.77098  1.0000
  H   H67       1.0  0.24914  0.33212  0.78064  1.0000
  H   H68       1.0  0.28269  0.32547  0.77993  1.0000
  H   H69       1.0  0.27654  0.21126  0.76743  1.0000
  H   H70       1.0  0.24301  0.21797  0.76842  1.0000
  C   C65       1.0  0.18393  0.06141  0.76534  1.0000
  C   C66       1.0  0.19444  0.03019  0.76047  1.0000
  C   C67       1.0  0.16628  0.05746  0.77550  1.0000
  H   H71       1.0  0.20808  0.03285  0.75250  1.0000
  H   H72       1.0  0.15797  0.08108  0.77914  1.0000
  C   C68       1.0  0.13753  0.26501  0.67800  1.0000
  C   C69       1.0  0.12115  0.27009  0.66208  1.0000
  C   C70       1.0  0.12073  0.28831  0.63501  1.0000
  C   C71       1.0  0.13674  0.30188  0.62357  1.0000
  C   C72       1.0  0.15311  0.29686  0.63947  1.0000
  C   C73       1.0  0.15354  0.27850  0.66648  1.0000
  H   H73       1.0  0.10868  0.25982  0.67077  1.0000
  H   H74       1.0  0.10801  0.29196  0.62313  1.0000
  H   H75       1.0  0.16561  0.30712  0.63086  1.0000
  H   H76       1.0  0.16624  0.27484  0.67842  1.0000
  C   C74       1.0  0.14628  0.24613  0.88031  1.0000
  C   C75       1.0  0.13742  0.23780  0.90650  1.0000
  C   C76       1.0  0.13264  0.26507  0.92691  1.0000
  C   C77       1.0  0.13674  0.30109  0.92143  1.0000
  C   C78       1.0  0.14591  0.30930  0.89550  1.0000
  C   C79       1.0  0.15068  0.28205  0.87508  1.0000
  H   H77       1.0  0.13397  0.21012  0.91084  1.0000
  H   H78       1.0  0.12563  0.25829  0.94675  1.0000
  H   H79       1.0  0.14927  0.33703  0.89113  1.0000
  H   H80       1.0  0.11647  0.33041  0.84621  1.0000
  H   H81       1.0  0.28282  0.36329  0.69754  1.0000
  C   C80       1.0  0.29292  0.34255  0.69365  1.0000
  H   H82       1.0  0.22042  0.06105  0.81985  1.0000
  C   C81       1.0  0.20704  0.06021  0.82925  1.0000
  C   C82       1.0  0.32537  0.26260  0.87611  1.0000
  H   H83       1.0  0.14588  0.02018  0.78957  1.0000
  H   H84       1.0  0.09347  0.47183  0.54988  1.0000
  C   C83       1.0  0.12063  0.21054  0.54376  1.0000
  H   H85       1.0  0.14819  0.28283  0.53695  1.0000
  H   H86       1.0  0.12153  0.39604  0.61367  1.0000
  C   C84       1.0  0.15947  0.02284  0.78137  1.0000
  N   N6        1.0  0.17997  0.09122  0.84392  1.0000
  C   C85       1.0  0.19728  0.09212  0.83376  1.0000
  H   H87       1.0  0.15782  0.05812  0.85598  1.0000
  C   C86       1.0  0.16962  0.12484  0.84663  1.0000
  H   H88       1.0  0.31463  0.28230  0.87904  1.0000
  C   C87       1.0  0.19891  0.02724  0.83494  1.0000
  C   C88       1.0  0.14598  0.44407  0.54370  1.0000
  H   H89       1.0  0.14550  0.39298  0.62154  1.0000
  H   H90       1.0  0.13225  0.42699  0.63954  1.0000
  H   H91       1.0  0.31965  0.25536  0.83000  1.0000
  C   C89       1.0  0.13447  0.47251  0.59687  1.0000
  C   C90       1.0  0.32834  0.24735  0.84830  1.0000
  C   C91       1.0  0.14294  0.42187  0.56768  1.0000
  Fe  Fe18      1.0  0.11472  0.33553  0.98875  1.0000
  N   N7        1.0  0.13741  0.43620  0.59391  1.0000
  C   C92       1.0  0.13066  0.24096  0.55190  1.0000
  C   C93       1.0  0.12106  0.19782  0.51466  1.0000
  H   H92       1.0  0.16369  0.13209  0.82486  1.0000
  S   S35       1.0  0.09295  0.29834  0.53769  1.0000
  C   C94       1.0  0.18120  0.02653  0.84506  1.0000
  H   H93       1.0  0.17842  0.14735  0.85461  1.0000
  C   C95       1.0  0.14067  0.25869  0.53086  1.0000
  C   C96       1.0  0.32201  0.32380  0.67531  1.0000
  H   H94       1.0  0.15848  0.12261  0.86255  1.0000
  N   N8        1.0  0.11138  0.27533  0.83497  1.0000
  C   C97       1.0  0.11730  0.30940  0.82943  1.0000
  H   H95       1.0  0.12979  0.34431  0.79809  1.0000
  C   C98       1.0  0.12479  0.31748  0.80228  1.0000
  C   C99       1.0  0.12002  0.25588  0.78659  1.0000
  C   C100      1.0  0.12595  0.29058  0.78064  1.0000
  H   H96       1.0  0.10698  0.28680  0.88053  1.0000
  C   C101      1.0  0.11277  0.24865  0.81405  1.0000
  H   H97       1.0  0.32761  0.23459  0.68097  1.0000
  H   H98       1.0  0.12121  0.23467  0.77004  1.0000
  H   H99       1.0  0.03768  0.30181  0.50772  1.0000
  H   H100      1.0  0.13047  0.25103  0.57443  1.0000
  C   C102      1.0  0.33331  0.26224  0.68165  1.0000
  H   H101      1.0  0.11254  0.19707  0.55992  1.0000
  H   H102      1.0  0.07815  0.49335  0.99479  1.0000
  H   H103      1.0  0.14483  0.39304  0.56508  1.0000
  N   N9        1.0  0.31908  0.28957  0.68486  1.0000
  H   H104      1.0  0.01281  0.29420  0.98123  1.0000
  H   H105      1.0  0.11316  0.17427  0.50839  1.0000
  H   H106      1.0  0.31151  0.37804  0.67239  1.0000
  C   C103      1.0  0.13397  0.41209  0.61843  1.0000
  H   H107      1.0  0.33466  0.26484  0.92142  1.0000
  H   H108      1.0  0.20336  0.11748  0.82777  1.0000
  C   C104      1.0  0.00922  0.34281  0.55573  1.0000
  C   C105      1.0  0.14337  0.48114  0.54669  1.0000
  C   C106      1.0  0.30347  0.28138  0.69902  1.0000
  H   H109      1.0  0.27781  0.30099  0.71486  1.0000
  C   C107      1.0  0.09744  0.49593  0.53862  1.0000
  H   H110      1.0  0.02955  0.41249  0.51194  1.0000
  S   S36       1.0  0.08975  0.37039  0.99317  1.0000
  C   C108      1.0  0.01248  0.30636  0.00299  1.0000
  C   C109      1.0  0.10542  0.49310  0.51104  1.0000
  S   S37       1.0  0.12399  0.35172  0.51134  1.0000
  H   H111      1.0  0.14971  0.43253  0.52259  1.0000
  H   H112      1.0  0.12958  0.48388  0.61732  1.0000
  S   S38       1.0  0.33334  0.35138  0.74618  1.0000
  H   H113      1.0  0.33542  0.21730  0.79824  1.0000
  C   C110      1.0  0.00842  0.29674  0.50681  1.0000
  Fe  Fe19      1.0  0.20150  0.82585  0.28039  1.0000
  S   S39       1.0  0.17961  0.78547  0.28979  1.0000
  S   S40       1.0  0.23181  0.82023  0.29172  1.0000
  Fe  Fe20      1.0  0.17429  0.88452  0.26189  1.0000
  S   S41       1.0  0.15054  0.84807  0.26953  1.0000
  S   S42       1.0  0.16791  0.94056  0.24344  1.0000
  Fe  Fe21      1.0  0.16485  0.83148  0.31142  1.0000
  S   S43       1.0  0.14817  0.83374  0.35347  1.0000
  Fe  Fe22      1.0  0.16658  0.80440  0.24706  1.0000
  S   S44       1.0  0.15140  0.76162  0.21918  1.0000
  S   S45       1.0  0.18753  0.87100  0.30522  1.0000
  S   S46       1.0  0.18952  0.84173  0.23627  1.0000
  Fe  Fe23      1.0  0.11859  0.71591  0.05116  1.0000
  H   H114      1.0  0.11669  0.69505  0.35301  1.0000
  S   S47       1.0  0.13710  0.75199  0.07988  1.0000
  C   C111      1.0  0.18296  0.99078  0.28321  1.0000
  H   H115      1.0  0.13848  0.59637  0.07141  1.0000
  H   H116      1.0  0.13736  0.61458  0.12422  1.0000
  C   C112      1.0  0.05497  0.56926  0.03917  1.0000
  S   S48       1.0  0.12376  0.71139  0.44172  1.0000
  H   H117      1.0  0.30212  0.72871  0.18997  1.0000
  H   H118      1.0  0.29376  0.68336  0.32171  1.0000
  H   H119      1.0  0.11317  0.79913  0.31506  1.0000
  S   S49       1.0  0.10477  0.66351  0.06059  1.0000
  C   C113      1.0  0.10127  0.75985  0.35930  1.0000
  C   C114      1.0  0.11973  0.54827  0.02316  1.0000
  Fe  Fe24      1.0  0.32070  0.70439  0.26343  1.0000
  S   S50       1.0  0.29100  0.70685  0.24877  1.0000
  C   C115      1.0  0.14618  0.61942  0.07959  1.0000
  C   C116      1.0  0.03181  0.68012  0.03459  1.0000
  Fe  Fe25      1.0  0.11164  0.71214  0.48801  1.0000
  S   S51       1.0  0.12820  0.58881  0.00880  1.0000
  S   S52       1.0  0.09441  0.73884  0.02647  1.0000
  C   C117      1.0  0.24815  0.79062  0.27640  1.0000
  C   C118      1.0  0.24320  0.76001  0.25990  1.0000
  C   C119      1.0  0.25656  0.73511  0.25098  1.0000
  C   C120      1.0  0.27494  0.74036  0.25865  1.0000
  C   C121      1.0  0.27995  0.77139  0.27455  1.0000
  C   C122      1.0  0.26662  0.79646  0.28318  1.0000
  H   H120      1.0  0.22905  0.75515  0.25454  1.0000
  H   H121      1.0  0.25256  0.71125  0.23858  1.0000
  H   H122      1.0  0.29402  0.77578  0.28069  1.0000
  H   H123      1.0  0.27061  0.82022  0.29570  1.0000
  C   C123      1.0  0.14651  0.76116  0.18058  1.0000
  C   C124      1.0  0.15421  0.78586  0.16158  1.0000
  C   C125      1.0  0.15068  0.78331  0.13097  1.0000
  C   C126      1.0  0.13932  0.75627  0.11890  1.0000
  C   C127      1.0  0.13133  0.73198  0.13794  1.0000
  C   C128      1.0  0.13502  0.73429  0.16854  1.0000
  H   H124      1.0  0.16307  0.80669  0.17043  1.0000
  H   H125      1.0  0.15697  0.80227  0.11652  1.0000
  H   H126      1.0  0.12252  0.71111  0.12906  1.0000
  H   H127      1.0  0.12891  0.71513  0.18300  1.0000
  C   C129      1.0  0.14367  0.80001  0.37989  1.0000
  C   C130      1.0  0.13331  0.80923  0.40459  1.0000
  C   C131      1.0  0.12788  0.78282  0.42464  1.0000
  C   C132      1.0  0.13267  0.74669  0.42015  1.0000
  C   C133      1.0  0.14349  0.73766  0.39593  1.0000
  C   C134      1.0  0.14906  0.76412  0.37602  1.0000
  H   H128      1.0  0.12912  0.83691  0.40794  1.0000
  H   H129      1.0  0.11953  0.79024  0.44306  1.0000
  H   H130      1.0  0.14735  0.70984  0.39229  1.0000
  H   H131      1.0  0.15710  0.75658  0.35727  1.0000
  H   H132      1.0  0.15690  0.63168  0.03721  1.0000
  H   H133      1.0  0.30875  0.77455  0.22835  1.0000
  C   C135      1.0  0.13144  0.70169  0.31316  1.0000
  H   H134      1.0  0.28963  0.78498  0.36716  1.0000
  H   H135      1.0  0.11680  0.52270  0.47543  1.0000
  H   H136      1.0  0.30834  0.73346  0.35033  1.0000
  C   C136      1.0  0.13592  0.72535  0.29088  1.0000
  C   C137      1.0  0.01629  0.67011  0.04996  1.0000
  H   H137      1.0  0.04122  0.69167  0.49482  1.0000
  H   H138      1.0  0.18790  0.96809  0.29575  1.0000
  N   N10       1.0  0.26490  0.76369  0.34906  1.0000
  C   C138      1.0  0.28315  0.76290  0.35518  1.0000
  C   C139      1.0  0.25682  0.73610  0.33345  1.0000
  C   C140      1.0  0.29381  0.73387  0.34571  1.0000
  C   C141      1.0  0.26707  0.70668  0.32366  1.0000
  C   C142      1.0  0.28566  0.70565  0.32982  1.0000
  C   C143      1.0  0.25419  0.79496  0.35856  1.0000
  H   H139      1.0  0.16068  0.79754  0.01176  1.0000
  H   H140      1.0  0.24250  0.73733  0.32757  1.0000
  H   H141      1.0  0.26078  0.68547  0.31038  1.0000
  H   H142      1.0  0.31572  0.51281  0.29314  1.0000
  Fe  Fe26      1.0  0.11566  0.64376  0.01759  1.0000
  C   C144      1.0  0.15224  0.00011  0.33926  1.0000
  H   H143      1.0  0.32912  0.57311  0.28516  1.0000
  Fe  Fe27      1.0  0.08137  0.68466  0.03270  1.0000
  H   H144      1.0  0.11228  0.58284  0.49891  1.0000
  S   S53       1.0  0.05356  0.66980  0.04989  1.0000
  H   H145      1.0  0.14468  0.71675  0.27317  1.0000
  C   C145      1.0  0.17347  0.98472  0.25665  1.0000
  C   C146      1.0  0.13680  0.98070  0.29555  1.0000
  H   H146      1.0  0.17528  0.73233  0.09679  1.0000
  H   H147      1.0  0.10477  0.57340  0.05812  1.0000
  C   C147      1.0  0.02959  0.69732  0.00757  1.0000
  H   H148      1.0  0.25854  0.81936  0.34675  1.0000
  C   C148      1.0  0.12910  0.76039  0.29143  1.0000
  H   H149      1.0  0.31980  0.72777  0.14385  1.0000
  H   H150      1.0  0.13244  0.77877  0.27405  1.0000
  H   H151      1.0  0.01786  0.65687  0.07091  1.0000
  C   C149      1.0  0.10854  0.54823  0.04761  1.0000
  H   H152      1.0  0.04810  0.58250  0.49825  1.0000
  H   H153      1.0  0.04567  0.52720  0.06730  1.0000
  H   H154      1.0  0.23948  0.79147  0.35345  1.0000
  H   H155      1.0  0.17329  0.71745  0.13374  1.0000
  H   H156      1.0  0.25586  0.79953  0.38265  1.0000
  H   H157      1.0  0.13677  0.67444  0.31307  1.0000
  H   H158      1.0  0.12851  0.78865  0.02458  1.0000
  C   C150      1.0  0.14561  0.62958  0.10922  1.0000
  H   H159      1.0  0.08701  0.75736  0.35133  1.0000
  S   S54       1.0  0.33056  0.66923  0.30047  1.0000
  H   H160      1.0  0.10398  0.78829  0.36595  1.0000
  H   H161      1.0  0.10312  0.74352  0.37950  1.0000
  C   C151      1.0  0.10228  0.51540  0.05866  1.0000
  C   C152      1.0  0.32251  0.74811  0.16073  1.0000
  H   H162      1.0  0.19163  0.70055  0.11177  1.0000
  N   N11       1.0  0.16590  0.67856  0.10029  1.0000
  C   C153      1.0  0.16632  0.66906  0.07112  1.0000
  C   C154      1.0  0.15572  0.65925  0.11932  1.0000
  C   C155      1.0  0.15656  0.63926  0.06037  1.0000
  H   H163      1.0  0.04868  0.59098  0.05164  1.0000
  C   C156      1.0  0.17713  0.70859  0.11122  1.0000
  H   H164      1.0  0.01164  0.66336  0.48157  1.0000
  H   H165      1.0  0.17418  0.68462  0.05597  1.0000
  H   H166      1.0  0.15524  0.66696  0.14241  1.0000
  H   H167      1.0  0.16411  0.95824  0.36624  1.0000
  C   C157      1.0  0.11802  0.77152  0.31446  1.0000
  C   C158      1.0  0.05319  0.53356  0.04781  1.0000
  C   C159      1.0  0.32912  0.51474  0.28405  1.0000
  H   H168      1.0  0.09368  0.51554  0.07766  1.0000
  S   S55       1.0  0.13160  0.69433  0.00995  1.0000
  N   N12       1.0  0.11363  0.74814  0.33617  1.0000
  C   C160      1.0  0.12005  0.71350  0.33563  1.0000
  C   C161      1.0  0.12445  0.51530  0.00978  1.0000
  C   C162      1.0  0.31260  0.74862  0.18654  1.0000
  C   C163      1.0  0.31644  0.77469  0.20827  1.0000
  C   C164      1.0  0.01218  0.68500  0.49775  1.0000
  C   C165      1.0  0.11059  0.52467  0.49676  1.0000
  S   S56       1.0  0.08642  0.67971  0.49764  1.0000
  C   C166      1.0  0.15626  0.96438  0.34648  1.0000
  H   H169      1.0  0.32367  0.82726  0.24475  1.0000
  N   N13       1.0  0.32978  0.79959  0.20437  1.0000
  H   H170      1.0  0.12969  0.98675  0.27508  1.0000
  C   C167      1.0  0.33422  0.82603  0.22765  1.0000
  H   H171      1.0  0.06646  0.60492  0.00804  1.0000
  C   C168      1.0  0.06514  0.57704  0.01445  1.0000
  C   C169      1.0  0.06136  0.50610  0.03145  1.0000
  C   C170      1.0  0.33606  0.77363  0.15691  1.0000
  C   C171      1.0  0.15034  0.93655  0.32777  1.0000
  H   H172      1.0  0.15353  0.90872  0.33290  1.0000
  C   C172      1.0  0.07141  0.51485  0.00681  1.0000
  H   H173      1.0  0.13644  0.92341  0.28687  1.0000
  C   C173      1.0  0.14055  0.94471  0.30214  1.0000
  H   H174      1.0  0.33545  0.85337  0.21830  1.0000
  Fe  Fe28      1.0  0.20256  0.83619  0.77248  1.0000
  S   S57       1.0  0.18480  0.78875  0.78074  1.0000
  S   S58       1.0  0.23176  0.83178  0.75694  1.0000
  Fe  Fe29      1.0  0.17196  0.89102  0.78297  1.0000
  S   S59       1.0  0.15182  0.84661  0.79173  1.0000
  S   S60       1.0  0.16142  0.94922  0.78804  1.0000
  Fe  Fe30      1.0  0.17395  0.82095  0.81902  1.0000
  S   S61       1.0  0.17268  0.79620  0.86503  1.0000
  Fe  Fe31      1.0  0.16391  0.81756  0.75269  1.0000
  S   S62       1.0  0.14675  0.78188  0.72135  1.0000
  S   S63       1.0  0.19348  0.86692  0.81270  1.0000
  S   S64       1.0  0.18230  0.86355  0.74200  1.0000
  Fe  Fe32      1.0  0.11762  0.73424  0.55301  1.0000
  C   C174      1.0  0.10807  0.55879  0.51003  1.0000
  S   S65       1.0  0.13568  0.77142  0.58159  1.0000
  Fe  Fe33      1.0  0.10230  0.65910  0.53672  1.0000
  H   H175      1.0  0.06653  0.76714  0.59830  1.0000
  C   C175      1.0  0.17015  0.99169  0.77725  1.0000
  H   H176      1.0  0.16814  0.82728  0.96496  1.0000
  S   S66       1.0  0.10642  0.74382  0.94197  1.0000
  Fe  Fe34      1.0  0.07880  0.72587  0.52743  1.0000
  S   S67       1.0  0.05080  0.74878  0.53728  1.0000
  H   H177      1.0  0.19783  0.78509  0.67419  1.0000
  S   S68       1.0  0.09326  0.70379  0.56719  1.0000
  C   C176      1.0  0.10048  0.56156  0.53787  1.0000
  S   S69       1.0  0.09176  0.66186  0.99025  1.0000
  Fe  Fe35      1.0  0.32015  0.70511  0.77797  1.0000
  S   S70       1.0  0.28977  0.70912  0.78684  1.0000
  H   H178      1.0  0.13319  0.51507  0.99095  1.0000
  C   C177      1.0  0.02989  0.72879  0.52625  1.0000
  H   H179      1.0  0.10405  0.80885  0.99009  1.0000
  C   C178      1.0  0.01202  0.70436  0.99611  1.0000
  S   S71       1.0  0.09767  0.60359  0.55612  1.0000
  C   C179      1.0  0.24794  0.79831  0.76666  1.0000
  C   C180      1.0  0.24367  0.76960  0.78481  1.0000
  C   C181      1.0  0.25663  0.74245  0.79054  1.0000
  C   C182      1.0  0.27405  0.74396  0.77859  1.0000
  C   C183      1.0  0.27840  0.77289  0.76075  1.0000
  C   C184      1.0  0.26537  0.79983  0.75475  1.0000
  H   H180      1.0  0.23028  0.76799  0.79399  1.0000
  H   H181      1.0  0.25308  0.72005  0.80423  1.0000
  H   H182      1.0  0.29173  0.77435  0.75136  1.0000
  H   H183      1.0  0.26877  0.82191  0.74061  1.0000
  C   C185      1.0  0.14447  0.77867  0.68235  1.0000
  C   C186      1.0  0.15373  0.80145  0.66362  1.0000
  C   C187      1.0  0.15143  0.79777  0.63284  1.0000
  C   C188      1.0  0.13955  0.77191  0.62035  1.0000
  C   C189      1.0  0.13035  0.74902  0.63905  1.0000
  C   C190      1.0  0.13284  0.75237  0.66984  1.0000
  H   H184      1.0  0.16251  0.82219  0.67278  1.0000
  H   H185      1.0  0.15868  0.81554  0.61858  1.0000
  H   H186      1.0  0.12118  0.72898  0.62982  1.0000
  H   H187      1.0  0.12562  0.73456  0.68411  1.0000
  C   C191      1.0  0.15405  0.77824  0.88431  1.0000
  C   C192      1.0  0.15743  0.76127  0.91140  1.0000
  C   C193      1.0  0.14306  0.74941  0.92883  1.0000
  C   C194      1.0  0.12507  0.75475  0.91951  1.0000
  C   C195      1.0  0.12169  0.77137  0.89228  1.0000
  C   C196      1.0  0.13606  0.78283  0.87466  1.0000
  H   H188      1.0  0.17128  0.75752  0.91907  1.0000
  H   H189      1.0  0.14590  0.73668  0.94969  1.0000
  H   H190      1.0  0.10783  0.77563  0.88481  1.0000
  H   H191      1.0  0.13322  0.79593  0.85395  1.0000
  S   S72       1.0  0.12805  0.68787  0.52546  1.0000
  H   H192      1.0  0.13470  0.84840  0.90712  1.0000
  C   C197      1.0  0.28499  0.80109  0.83719  1.0000
  H   H193      1.0  0.33511  0.56646  0.80012  1.0000
  C   C198      1.0  0.05520  0.59252  0.51853  1.0000
  S   S73       1.0  0.33317  0.68651  0.73583  1.0000
  H   H194      1.0  0.15819  0.84418  0.91608  1.0000
  H   H195      1.0  0.20770  0.81284  0.70358  1.0000
  H   H196      1.0  0.19602  0.97198  0.76302  1.0000
  C   C199      1.0  0.05071  0.64067  0.55509  1.0000
  H   H197      1.0  0.04556  0.68340  0.58651  1.0000
  Fe  Fe36      1.0  0.10684  0.71415  0.98580  1.0000
  H   H198      1.0  0.14578  0.88318  0.92911  1.0000
  H   H199      1.0  0.06021  0.56926  0.53153  1.0000
  C   C200      1.0  0.14501  0.85374  0.92482  1.0000
  C   C201      1.0  0.12272  0.83030  0.95890  1.0000
  H   H200      1.0  0.01904  0.58929  0.52108  1.0000
  H   H201      1.0  0.06523  0.64493  0.55594  1.0000
  C   C202      1.0  0.02898  0.70093  0.50526  1.0000
  H   H202      1.0  0.01434  0.76236  0.55557  1.0000
  C   C203      1.0  0.29101  0.73924  0.85377  1.0000
  H   H203      1.0  0.11193  0.83831  0.94376  1.0000
  N   N14       1.0  0.14049  0.83498  0.95187  1.0000
  H   H204      1.0  0.32974  0.50571  0.82057  1.0000
  C   C204      1.0  0.30282  0.71233  0.86386  1.0000
  H   H205      1.0  0.29800  0.68503  0.86651  1.0000
  S   S74       1.0  0.33419  0.66256  0.80519  1.0000
  H   H206      1.0  0.08915  0.53196  0.57355  1.0000
  H   H207      1.0  0.18506  0.79669  0.70636  1.0000
  N   N15       1.0  0.10625  0.83412  0.60815  1.0000
  C   C205      1.0  0.10057  0.81506  0.63180  1.0000
  C   C206      1.0  0.09797  0.82959  0.58116  1.0000
  C   C207      1.0  0.08625  0.79058  0.62866  1.0000
  C   C208      1.0  0.08344  0.80580  0.57737  1.0000
  C   C209      1.0  0.07760  0.78612  0.60125  1.0000
  C   C210      1.0  0.12126  0.85971  0.61137  1.0000
  H   H208      1.0  0.10741  0.81792  0.65308  1.0000
  H   H209      1.0  0.10280  0.84392  0.56227  1.0000
  H   H210      1.0  0.08209  0.77490  0.64728  1.0000
  H   H211      1.0  0.07692  0.80223  0.55592  1.0000
  C   C211      1.0  0.15406  0.82376  0.97063  1.0000
  H   H212      1.0  0.13209  0.85239  0.59565  1.0000
  H   H213      1.0  0.11640  0.88745  0.60689  1.0000
  H   H214      1.0  0.12748  0.85941  0.63386  1.0000
  C   C212      1.0  0.32714  0.75544  0.86478  1.0000
  C   C213      1.0  0.01379  0.74074  0.53938  1.0000
  C   C214      1.0  0.31505  0.78154  0.85419  1.0000
  S   S75       1.0  0.10262  0.76008  0.51490  1.0000
  H   H215      1.0  0.17446  0.00091  0.84799  1.0000
  H   H216      1.0  0.04138  0.70511  0.99546  1.0000
  N   N16       1.0  0.04331  0.61510  0.53657  1.0000
  H   H217      1.0  0.09382  0.53685  0.96760  1.0000
  C   C215      1.0  0.02497  0.60949  0.53575  1.0000
  H   H218      1.0  0.07510  0.56413  0.95401  1.0000
  H   H219      1.0  0.09264  0.58307  0.97789  1.0000
  C   C216      1.0  0.18763  0.99557  0.76640  1.0000
  C   C217      1.0  0.14996  0.80693  0.99705  1.0000
  N   N17       1.0  0.20554  0.75687  0.71269  1.0000
  C   C218      1.0  0.19361  0.73166  0.72223  1.0000
  C   C219      1.0  0.22383  0.75118  0.71533  1.0000
  C   C220      1.0  0.19994  0.70036  0.73587  1.0000
  C   C221      1.0  0.23063  0.71994  0.72847  1.0000
  C   C222      1.0  0.21858  0.69458  0.73906  1.0000
  C   C223      1.0  0.19873  0.78945  0.69838  1.0000
  H   H220      1.0  0.17908  0.73603  0.71986  1.0000
  H   H221      1.0  0.23328  0.77130  0.70791  1.0000
  H   H222      1.0  0.19040  0.68094  0.74410  1.0000
  H   H223      1.0  0.24517  0.71594  0.73109  1.0000
  H   H224      1.0  0.22371  0.67064  0.74988  1.0000
  N   N18       1.0  0.29722  0.77329  0.84892  1.0000
  C   C224      1.0  0.09507  0.53003  0.55201  1.0000
  C   C225      1.0  0.03965  0.66218  0.57279  1.0000
  H   H225      1.0  0.27703  0.73222  0.84864  1.0000
  H   H226      1.0  0.33042  0.69995  0.87695  1.0000
  H   H227      1.0  0.28552  0.82566  0.85138  1.0000
  C   C226      1.0  0.02093  0.65703  0.57178  1.0000
  C   C227      1.0  0.11816  0.81370  0.98516  1.0000
  H   H228      1.0  0.32009  0.80831  0.84987  1.0000
  H   H229      1.0  0.01047  0.71754  0.97514  1.0000
  H   H230      1.0  0.27067  0.79189  0.83592  1.0000
  C   C228      1.0  0.01350  0.63040  0.55328  1.0000
  H   H231      1.0  0.06719  0.60797  0.51138  1.0000
  H   H232      1.0  0.20596  0.00220  0.83013  1.0000
  C   C229      1.0  0.08419  0.55887  0.97324  1.0000
  H   H233      1.0  0.13485  0.52424  0.57548  1.0000
  N   N19       1.0  0.07347  0.55002  0.99894  1.0000
  H   H234      1.0  0.32999  0.78778  0.60107  1.0000
  C   C230      1.0  0.32100  0.72060  0.86947  1.0000
  H   H235      1.0  0.01213  0.67433  0.58465  1.0000
  H   H236      1.0  0.28901  0.80809  0.81456  1.0000
  C   C231      1.0  0.13188  0.80194  0.00430  1.0000
  S   S76       1.0  0.35377  0.28119  0.27692  1.0000
  Fe  Fe37      1.0  0.40585  0.20070  0.49380  1.0000
  S   S77       1.0  0.36796  0.36463  0.27659  1.0000
  H   H237      1.0  0.51026  0.23483  0.07105  1.0000
  Fe  Fe38      1.0  0.35832  0.32335  0.24287  1.0000
  S   S78       1.0  0.37682  0.31859  0.20310  1.0000
  Fe  Fe39      1.0  0.36131  0.32356  0.31070  1.0000
  S   S79       1.0  0.38252  0.31881  0.34792  1.0000
  S   S80       1.0  0.64888  0.32831  0.27423  1.0000
  H   H238      1.0  0.64187  0.37027  0.41280  1.0000
  Fe  Fe40      1.0  0.65529  0.28614  0.30847  1.0000
  S   S81       1.0  0.63314  0.25966  0.33532  1.0000
  C   C232      1.0  0.50078  0.14119  0.08463  1.0000
  H   H239      1.0  0.39584  0.45945  0.32857  1.0000
  C   C233      1.0  0.62692  0.12595  0.41194  1.0000
  S   S82       1.0  0.58805  0.14050  0.05357  1.0000
  S   S83       1.0  0.62319  0.07198  0.01631  1.0000
  C   C234      1.0  0.60396  0.32023  0.40127  1.0000
  S   S84       1.0  0.59018  0.22377  0.02999  1.0000
  S   S85       1.0  0.62805  0.24483  0.47481  1.0000
  Fe  Fe41      1.0  0.60443  0.19047  0.06474  1.0000
  S   S86       1.0  0.60622  0.20466  0.11396  1.0000
  C   C235      1.0  0.35136  0.46656  0.34577  1.0000
  N   N20       1.0  0.64044  0.09923  0.08840  1.0000
  S   S87       1.0  0.62739  0.17485  0.03539  1.0000
  C   C236      1.0  0.61575  0.11155  0.12074  1.0000
  C   C237      1.0  0.63085  0.12303  0.10535  1.0000
  H   H240      1.0  0.38539  0.20375  0.32172  1.0000
  S   S88       1.0  0.38538  0.20929  0.45571  1.0000
  Fe  Fe42      1.0  0.44460  0.20577  0.03948  1.0000
  S   S89       1.0  0.43198  0.15978  0.06330  1.0000
  S   S90       1.0  0.47302  0.22329  0.05418  1.0000
  H   H241      1.0  0.64054  0.13096  0.48355  1.0000
  H   H242      1.0  0.37666  0.17331  0.27428  1.0000
  Fe  Fe43      1.0  0.40695  0.19468  0.06582  1.0000
  S   S91       1.0  0.38815  0.19565  0.10535  1.0000
  Fe  Fe44      1.0  0.57566  0.17276  0.01675  1.0000
  S   S92       1.0  0.42029  0.24209  0.04543  1.0000
  C   C238      1.0  0.61284  0.03081  0.02591  1.0000
  C   C239      1.0  0.40978  0.04509  0.04284  1.0000
  H   H243      1.0  0.64065  0.40670  0.35537  1.0000
  H   H244      1.0  0.40368  0.06991  0.05064  1.0000
  H   H245      1.0  0.63759  0.15880  0.37755  1.0000
  C   C240      1.0  0.37227  0.26321  0.04453  1.0000
  C   C241      1.0  0.59640  0.02999  0.04066  1.0000
  H   H246      1.0  0.34503  0.24100  0.11743  1.0000
  C   C242      1.0  0.37872  0.32019  0.06849  1.0000
  H   H247      1.0  0.65888  0.19125  0.41098  1.0000
  H   H248      1.0  0.59273  0.30642  0.35842  1.0000
  N   N21       1.0  0.48447  0.11063  0.04544  1.0000
  C   C243      1.0  0.64378  0.37743  0.35483  1.0000
  C   C244      1.0  0.49343  0.20976  0.03731  1.0000
  H   H249      1.0  0.34020  0.48563  0.34433  1.0000
  H   H250      1.0  0.46838  0.07895  0.01490  1.0000
  H   H251      1.0  0.38875  0.02261  0.47693  1.0000
  H   H252      1.0  0.37420  0.13374  0.46412  1.0000
  H   H253      1.0  0.36492  0.32993  0.10900  1.0000
  H   H254      1.0  0.64271  0.04520  0.07228  1.0000
  C   C245      1.0  0.51012  0.21875  0.05100  1.0000
  C   C246      1.0  0.36685  0.31114  0.09083  1.0000
  N   N22       1.0  0.65069  0.16349  0.44930  1.0000
  C   C247      1.0  0.62324  0.22684  0.13598  1.0000
  C   C248      1.0  0.62061  0.23097  0.16645  1.0000
  C   C249      1.0  0.63363  0.24842  0.18485  1.0000
  C   C250      1.0  0.64951  0.26206  0.17298  1.0000
  C   C251      1.0  0.65221  0.25765  0.14253  1.0000
  C   C252      1.0  0.63920  0.24014  0.12413  1.0000
  H   H255      1.0  0.60834  0.22084  0.17592  1.0000
  H   H256      1.0  0.63131  0.25154  0.20816  1.0000
  C   C253      1.0  0.62785  0.11813  0.44186  1.0000
  H   H257      1.0  0.64144  0.23736  0.10077  1.0000
  C   C254      1.0  0.63274  0.25360  0.37405  1.0000
  C   C255      1.0  0.64585  0.26873  0.39310  1.0000
  C   C256      1.0  0.64422  0.26556  0.42383  1.0000
  C   C257      1.0  0.62965  0.24682  0.43591  1.0000
  C   C258      1.0  0.61675  0.23099  0.41685  1.0000
  C   C259      1.0  0.61827  0.23453  0.38612  1.0000
  H   H258      1.0  0.59418  0.30456  0.41314  1.0000
  H   H259      1.0  0.38590  0.34562  0.06933  1.0000
  H   H260      1.0  0.60547  0.21650  0.42579  1.0000
  H   H261      1.0  0.60802  0.22279  0.37159  1.0000
  C   C260      1.0  0.51715  0.12949  0.07294  1.0000
  N   N23       1.0  0.41274  0.08950  0.44647  1.0000
  C   C261      1.0  0.35597  0.48603  0.26516  1.0000
  H   H262      1.0  0.37042  0.50374  0.32762  1.0000
  H   H263      1.0  0.36352  0.46194  0.25959  1.0000
  C   C262      1.0  0.38011  0.28346  0.17677  1.0000
  C   C263      1.0  0.37099  0.25057  0.17798  1.0000
  C   C264      1.0  0.37406  0.22359  0.15645  1.0000
  C   C265      1.0  0.38612  0.22923  0.13336  1.0000
  C   C266      1.0  0.39542  0.26192  0.13242  1.0000
  C   C267      1.0  0.39243  0.28881  0.15403  1.0000
  H   H264      1.0  0.36144  0.24608  0.19528  1.0000
  H   H265      1.0  0.36678  0.19839  0.15736  1.0000
  H   H266      1.0  0.40477  0.26662  0.11486  1.0000
  H   H267      1.0  0.39968  0.31403  0.15302  1.0000
  C   C268      1.0  0.38310  0.28794  0.37762  1.0000
  C   C269      1.0  0.36962  0.26206  0.38112  1.0000
  C   C270      1.0  0.37060  0.23827  0.40509  1.0000
  C   C271      1.0  0.38506  0.23991  0.42582  1.0000
  C   C272      1.0  0.39864  0.26555  0.42210  1.0000
  C   C273      1.0  0.39764  0.28939  0.39816  1.0000
  H   H268      1.0  0.35833  0.26054  0.36559  1.0000
  H   H269      1.0  0.35999  0.21864  0.40774  1.0000
  H   H270      1.0  0.40985  0.26720  0.43780  1.0000
  H   H271      1.0  0.40818  0.30922  0.39571  1.0000
  H   H272      1.0  0.43095  0.12076  0.42120  1.0000
  H   H273      1.0  0.53933  0.21259  0.05058  1.0000
  C   C274      1.0  0.39725  0.24933  0.30048  1.0000
  H   H274      1.0  0.38416  0.20221  0.22694  1.0000
  H   H275      1.0  0.44061  0.10054  0.45376  1.0000
  H   H276      1.0  0.60807  0.13073  0.13382  1.0000
  H   H277      1.0  0.61895  0.33649  0.44036  1.0000
  C   C275      1.0  0.62039  0.05144  0.10149  1.0000
  N   N24       1.0  0.34853  0.43243  0.35559  1.0000
  H   H278      1.0  0.35402  0.22882  0.06702  1.0000
  C   C276      1.0  0.50047  0.09939  0.03361  1.0000
  H   H279      1.0  0.65319  0.10772  0.04778  1.0000
  C   C277      1.0  0.49340  0.18911  0.01135  1.0000
  H   H280      1.0  0.39050  0.39740  0.34674  1.0000
  C   C278      1.0  0.38778  0.21521  0.24778  1.0000
  H   H281      1.0  0.65903  0.14036  0.07593  1.0000
  C   C279      1.0  0.63995  0.13717  0.46030  1.0000
  H   H282      1.0  0.45668  0.09519  0.04637  1.0000
  H   H283      1.0  0.40111  0.26222  0.32122  1.0000
  C   C280      1.0  0.63091  0.35682  0.40083  1.0000
  C   C281      1.0  0.60311  0.32134  0.37061  1.0000
  C   C282      1.0  0.42952  0.01325  0.00953  1.0000
  C   C283      1.0  0.52651  0.18479  0.01390  1.0000
  C   C284      1.0  0.38133  0.29609  0.04512  1.0000
  C   C285      1.0  0.61791  0.33814  0.41655  1.0000
  C   C286      1.0  0.38853  0.21598  0.30088  1.0000
  H   H284      1.0  0.40406  0.31735  0.25533  1.0000
  H   H285      1.0  0.36638  0.07262  0.48177  1.0000
  H   H286      1.0  0.61624  0.02350  0.09918  1.0000
  C   C287      1.0  0.36842  0.47688  0.33612  1.0000
  Fe  Fe45      1.0  0.33900  0.38253  0.27870  1.0000
  H   H287      1.0  0.61592  0.33987  0.33171  1.0000
  C   C288      1.0  0.63828  0.15217  0.40074  1.0000
  S   S93       1.0  0.66637  0.28476  0.19499  1.0000
  H   H288      1.0  0.40591  0.31701  0.29457  1.0000
  C   C289      1.0  0.61635  0.34021  0.35560  1.0000
  S   S94       1.0  0.39542  0.17345  0.02255  1.0000
  C   C290      1.0  0.52661  0.20619  0.03946  1.0000
  H   H289      1.0  0.39948  0.26130  0.22756  1.0000
  C   C291      1.0  0.61047  0.07555  0.11867  1.0000
  H   H290      1.0  0.42408  0.29817  0.27293  1.0000
  C   C292      1.0  0.48447  0.13163  0.07041  1.0000
  H   H291      1.0  0.65428  0.27792  0.43836  1.0000
  N   N25       1.0  0.63012  0.35733  0.37074  1.0000
  H   H292      1.0  0.36017  0.38057  0.36347  1.0000
  H   H293      1.0  0.58935  0.05489  0.04549  1.0000
  N   N26       1.0  0.35806  0.27873  0.09008  1.0000
  H   H294      1.0  0.66921  0.50077  0.22664  1.0000
  S   S95       1.0  0.59480  0.15959  0.48739  1.0000
  C   C293      1.0  0.39638  0.24873  0.24824  1.0000
  C   C294      1.0  0.63543  0.06383  0.08642  1.0000
  C   C295      1.0  0.39174  0.04911  0.46852  1.0000
  S   S96       1.0  0.43327  0.17582  0.48639  1.0000
  H   H295      1.0  0.46243  0.12594  0.01763  1.0000
  H   H296      1.0  0.64441  0.36866  0.33141  1.0000
  C   C296      1.0  0.43083  0.09636  0.43506  1.0000
  C   C297      1.0  0.65604  0.11139  0.07177  1.0000
  C   C298      1.0  0.36239  0.40782  0.35604  1.0000
  C   C299      1.0  0.38365  0.19897  0.27431  1.0000
  H   H297      1.0  0.50069  0.15889  0.10382  1.0000
  C   C300      1.0  0.46723  0.10228  0.03034  1.0000
  C   C301      1.0  0.40915  0.30128  0.27432  1.0000
  C   C302      1.0  0.36066  0.25485  0.06734  1.0000
  H   H298      1.0  0.65708  0.18776  0.49093  1.0000
  H   H299      1.0  0.65756  0.37306  0.36453  1.0000
  C   C303      1.0  0.40854  0.05582  0.45603  1.0000
  H   H300      1.0  0.66440  0.26815  0.13305  1.0000
  H   H301      1.0  0.47184  0.14217  0.07890  1.0000
  C   C304      1.0  0.38363  0.11143  0.46155  1.0000
  C   C305      1.0  0.37926  0.07720  0.47141  1.0000
  N   N27       1.0  0.40054  0.26578  0.27438  1.0000
  C   C306      1.0  0.38262  0.45196  0.33645  1.0000
  H   H302      1.0  0.65704  0.28349  0.38418  1.0000
  H   H303      1.0  0.40400  0.14408  0.44226  1.0000
  C   C307      1.0  0.51705  0.10851  0.04724  1.0000
  H   H304      1.0  0.61914  0.09771  0.45092  1.0000
  H   H305      1.0  0.39571  0.01173  0.07342  1.0000
  H   H306      1.0  0.39050  0.30261  0.02758  1.0000
  C   C308      1.0  0.40056  0.11717  0.44919  1.0000
  H   H307      1.0  0.34848  0.28442  0.13396  1.0000
  Fe  Fe46      1.0  0.66774  0.29685  0.24472  1.0000
  H   H308      1.0  0.63466  0.15121  0.10684  1.0000
  H   H309      1.0  0.66629  0.21024  0.46048  1.0000
  H   H310      1.0  0.37438  0.24418  0.02659  1.0000
  H   H311      1.0  0.43557  0.07322  0.42149  1.0000
  H   H312      1.0  0.52993  0.13793  0.08305  1.0000
  H   H313      1.0  0.61737  0.11177  0.39752  1.0000
  Fe  Fe47      1.0  0.61005  0.12714  0.02196  1.0000
  C   C309      1.0  0.65028  0.17056  0.41982  1.0000
  H   H314      1.0  0.52975  0.10083  0.03719  1.0000
  H   H315      1.0  0.59863  0.06644  0.13013  1.0000
  H   H316      1.0  0.66829  0.09551  0.07790  1.0000
  C   C310      1.0  0.37963  0.41722  0.34656  1.0000
  Fe  Fe48      1.0  0.42159  0.14255  0.01856  1.0000
  H   H317      1.0  0.54863  0.31496  0.01907  1.0000
  C   C311      1.0  0.42173  0.04572  0.01939  1.0000
  H   H318      1.0  0.41852  0.03430  0.45523  1.0000
  C   C312      1.0  0.34500  0.27035  0.11284  1.0000
  C   C313      1.0  0.33866  0.48299  0.27689  1.0000
  C   C314      1.0  0.40524  0.01207  0.05565  1.0000
  C   C315      1.0  0.66325  0.18309  0.46907  1.0000
  H   H319      1.0  0.50053  0.08415  0.01310  1.0000
  Fe  Fe49      1.0  0.61106  0.20739  0.50298  1.0000
  H   H320      1.0  0.44585  0.00465  0.50460  1.0000
  S   S97       1.0  0.35480  0.27750  0.76419  1.0000
  H   H321      1.0  0.57025  0.19895  0.93990  1.0000
  S   S98       1.0  0.37451  0.35488  0.77682  1.0000
  H   H322      1.0  0.46005  0.14658  0.63609  1.0000
  Fe  Fe50      1.0  0.36078  0.32635  0.73814  1.0000
  S   S99       1.0  0.37068  0.32659  0.69068  1.0000
  Fe  Fe51      1.0  0.36626  0.30716  0.80391  1.0000
  S   S100      1.0  0.38436  0.27146  0.83309  1.0000
  S   S101      1.0  0.64876  0.32842  0.77457  1.0000
  C   C316      1.0  0.61936  0.33172  0.70549  1.0000
  S   S102      1.0  0.66463  0.30045  0.69273  1.0000
  S   S103      1.0  0.64586  0.24891  0.83387  1.0000
  H   H323      1.0  0.50969  0.16058  0.97973  1.0000
  H   H324      1.0  0.59254  0.28273  0.96399  1.0000
  C   C317      1.0  0.47302  0.18775  0.61108  1.0000
  S   S104      1.0  0.58866  0.14181  0.55725  1.0000
  H   H325      1.0  0.63770  0.24692  0.70990  1.0000
  N   N28       1.0  0.34216  0.22323  0.84420  1.0000
  S   S105      1.0  0.59011  0.22615  0.53575  1.0000
  S   S106      1.0  0.62584  0.24653  0.97052  1.0000
  Fe  Fe52      1.0  0.60536  0.19119  0.56831  1.0000
  S   S107      1.0  0.60886  0.20389  0.61766  1.0000
  H   H326      1.0  0.35921  0.21622  0.80767  1.0000
  H   H327      1.0  0.40117  0.06216  0.54224  1.0000
  S   S108      1.0  0.62711  0.17560  0.53664  1.0000
  C   C318      1.0  0.57876  0.27888  0.97119  1.0000
  H   H328      1.0  0.40191  0.01687  0.95835  1.0000
  Fe  Fe53      1.0  0.57493  0.17548  0.52251  1.0000
  S   S109      1.0  0.39383  0.25897  0.97294  1.0000
  Fe  Fe54      1.0  0.44288  0.21062  0.52434  1.0000
  S   S110      1.0  0.43741  0.16905  0.55815  1.0000
  S   S111      1.0  0.54663  0.16620  0.99936  1.0000
  C   C319      1.0  0.57611  0.22638  0.93804  1.0000
  C   C320      1.0  0.66509  0.49953  0.80684  1.0000
  Fe  Fe55      1.0  0.40978  0.19475  0.56140  1.0000
  S   S112      1.0  0.39848  0.19752  0.60804  1.0000
  Fe  Fe56      1.0  0.42578  0.13575  0.52088  1.0000
  H   H329      1.0  0.39571  0.49949  0.77645  1.0000
  H   H330      1.0  0.42995  0.24447  0.62417  1.0000
  C   C321      1.0  0.40772  0.03703  0.53639  1.0000
  H   H331      1.0  0.36454  0.19537  0.86386  1.0000
  C   C322      1.0  0.42454  0.03745  0.52275  1.0000
  C   C323      1.0  0.59991  0.29677  0.62126  1.0000
  C   C324      1.0  0.44361  0.19451  0.63279  1.0000
  C   C325      1.0  0.59540  0.03338  0.53894  1.0000
  C   C326      1.0  0.50661  0.23887  0.52814  1.0000
  C   C327      1.0  0.55412  0.29742  0.00214  1.0000
  H   H332      1.0  0.34084  0.26600  0.66096  1.0000
  H   H333      1.0  0.59244  0.28602  0.69392  1.0000
  C   C328      1.0  0.34310  0.47682  0.78568  1.0000
  C   C329      1.0  0.57180  0.30225  0.99262  1.0000
  H   H334      1.0  0.43878  0.01348  0.99139  1.0000
  H   H335      1.0  0.62099  0.32980  0.60393  1.0000
  S   S113      1.0  0.54523  0.16167  0.51309  1.0000
  H   H336      1.0  0.46686  0.28873  0.58364  1.0000
  H   H337      1.0  0.43238  0.18359  0.64486  1.0000
  N   N29       1.0  0.56850  0.25106  0.96004  1.0000
  H   H338      1.0  0.66573  0.18190  0.87115  1.0000
  C   C330      1.0  0.52444  0.18483  0.51844  1.0000
  H   H339      1.0  0.47887  0.16748  0.51402  1.0000
  C   C331      1.0  0.35209  0.48043  0.75908  1.0000
  C   C332      1.0  0.62641  0.22640  0.63800  1.0000
  C   C333      1.0  0.62611  0.22605  0.66896  1.0000
  C   C334      1.0  0.63833  0.24706  0.68616  1.0000
  C   C335      1.0  0.65090  0.26908  0.67252  1.0000
  C   C336      1.0  0.65163  0.26846  0.64158  1.0000
  C   C337      1.0  0.63954  0.24713  0.62439  1.0000
  H   H340      1.0  0.61607  0.20996  0.67971  1.0000
  H   H341      1.0  0.59101  0.22345  0.94140  1.0000
  H   H342      1.0  0.52978  0.26566  0.99706  1.0000
  H   H343      1.0  0.63996  0.24766  0.60063  1.0000
  C   C338      1.0  0.64005  0.24937  0.87179  1.0000
  C   C339      1.0  0.64441  0.27813  0.89082  1.0000
  C   C340      1.0  0.63999  0.27667  0.92088  1.0000
  C   C341      1.0  0.63127  0.24644  0.93243  1.0000
  C   C342      1.0  0.62702  0.21758  0.91342  1.0000
  C   C343      1.0  0.63130  0.21916  0.88332  1.0000
  S   S114      1.0  0.43556  0.18705  0.99432  1.0000
  H   H344      1.0  0.64334  0.29920  0.93532  1.0000
  H   H345      1.0  0.62045  0.19399  0.92188  1.0000
  H   H346      1.0  0.62788  0.19669  0.86886  1.0000
  N   N30       1.0  0.45601  0.24255  0.60471  1.0000
  C   C344      1.0  0.45375  0.27798  0.59128  1.0000
  Fe  Fe57      1.0  0.66160  0.28941  0.80666  1.0000
  H   H347      1.0  0.65845  0.49694  0.82770  1.0000
  C   C345      1.0  0.49124  0.18271  0.51731  1.0000
  C   C346      1.0  0.37901  0.29052  0.66842  1.0000
  C   C347      1.0  0.38063  0.25534  0.67879  1.0000
  C   C348      1.0  0.38655  0.22734  0.65995  1.0000
  C   C349      1.0  0.39109  0.23410  0.63061  1.0000
  C   C350      1.0  0.38973  0.26936  0.62034  1.0000
  C   C351      1.0  0.38365  0.29733  0.63912  1.0000
  H   H348      1.0  0.37731  0.24964  0.70131  1.0000
  H   H349      1.0  0.38763  0.20021  0.66818  1.0000
  H   H350      1.0  0.39312  0.27503  0.59784  1.0000
  H   H351      1.0  0.38245  0.32442  0.63083  1.0000
  C   C352      1.0  0.38757  0.26997  0.87200  1.0000
  C   C353      1.0  0.39846  0.24242  0.88406  1.0000
  C   C354      1.0  0.40072  0.23885  0.91481  1.0000
  C   C355      1.0  0.39214  0.26296  0.93396  1.0000
  C   C356      1.0  0.38134  0.29070  0.92191  1.0000
  C   C357      1.0  0.37906  0.29422  0.89114  1.0000
  H   H352      1.0  0.40516  0.22356  0.86950  1.0000
  H   H353      1.0  0.40908  0.21742  0.92367  1.0000
  H   H354      1.0  0.37466  0.30956  0.93647  1.0000
  H   H355      1.0  0.37064  0.31553  0.88225  1.0000
  C   C358      1.0  0.50818  0.16556  0.51444  1.0000
  C   C359      1.0  0.52359  0.22157  0.52561  1.0000
  H   H356      1.0  0.48491  0.17157  0.60627  1.0000
  C   C360      1.0  0.50988  0.17688  0.99965  1.0000
  H   H357      1.0  0.35706  0.45668  0.74774  1.0000
  H   H358      1.0  0.34310  0.26453  0.70045  1.0000
  H   H359      1.0  0.54271  0.22521  0.95930  1.0000
  S   S115      1.0  0.62168  0.07415  0.51224  1.0000
  H   H360      1.0  0.66136  0.28523  0.63079  1.0000
  C   C361      1.0  0.38282  0.49014  0.81770  1.0000
  S   S116      1.0  0.39773  0.15804  0.52612  1.0000
  H   H361      1.0  0.58961  0.05863  0.54640  1.0000
  H   H362      1.0  0.36807  0.48939  0.85800  1.0000
  S   S117      1.0  0.46925  0.24219  0.52682  1.0000
  C   C362      1.0  0.59187  0.28449  0.64671  1.0000
  C   C363      1.0  0.55096  0.24690  0.96851  1.0000
  S   S118      1.0  0.41589  0.23898  0.52970  1.0000
  C   C364      1.0  0.45908  0.17376  0.62775  1.0000
  H   H363      1.0  0.38318  0.46098  0.81536  1.0000
  H   H364      1.0  0.44451  0.27563  0.57172  1.0000
  C   C365      1.0  0.66934  0.46829  0.79040  1.0000
  Fe  Fe58      1.0  0.61223  0.20469  0.99947  1.0000
  H   H365      1.0  0.44799  0.29768  0.60718  1.0000
  S   S119      1.0  0.59675  0.15592  0.98399  1.0000
  H   H366      1.0  0.48197  0.23270  0.58619  1.0000
  Fe  Fe59      1.0  0.41007  0.21942  0.00172  1.0000
  H   H367      1.0  0.62174  0.30802  0.71974  1.0000
  S   S120      1.0  0.42625  0.08583  0.00030  1.0000
  H   H368      1.0  0.63260  0.34583  0.70431  1.0000
  H   H369      1.0  0.34493  0.17810  0.81545  1.0000
  Fe  Fe60      1.0  0.60922  0.12889  0.52319  1.0000
  C   C366      1.0  0.47125  0.22241  0.59968  1.0000
  C   C367      1.0  0.44227  0.22899  0.62093  1.0000
  C   C368      1.0  0.49037  0.21956  0.52380  1.0000
  N   N31       1.0  0.61264  0.32001  0.67631  1.0000
  C   C369      1.0  0.59839  0.29658  0.67423  1.0000
  C   C370      1.0  0.62050  0.33249  0.65144  1.0000
  H   H370      1.0  0.59553  0.28613  0.59990  1.0000
  H   H371      1.0  0.57337  0.23668  0.91558  1.0000
  H   H372      1.0  0.53600  0.23672  0.52860  1.0000
  C   C371      1.0  0.35317  0.21343  0.86734  1.0000
  S   S121      1.0  0.34087  0.43446  0.80325  1.0000
  H   H373      1.0  0.63216  0.35018  0.65307  1.0000
  H   H374      1.0  0.58128  0.26428  0.64506  1.0000
  C   C372      1.0  0.35040  0.22769  0.89555  1.0000
  H   H375      1.0  0.48067  0.18239  0.00041  1.0000
  H   H376      1.0  0.65114  0.30154  0.88238  1.0000
  H   H377      1.0  0.35948  0.22053  0.91367  1.0000
  C   C373      1.0  0.61425  0.32110  0.62356  1.0000
  Fe  Fe61      1.0  0.34666  0.37700  0.78635  1.0000
  C   C374      1.0  0.54355  0.26979  0.98984  1.0000
  H   H378      1.0  0.58021  0.32356  0.00204  1.0000
  H   H379      1.0  0.60943  0.35012  0.71596  1.0000
  S   S122      1.0  0.33933  0.33071  0.81606  1.0000
  S   S123      1.0  0.66456  0.42534  0.80544  1.0000
  C   C375      1.0  0.34556  0.20793  0.81493  1.0000
  C   C376      1.0  0.61087  0.03345  0.52170  1.0000
  S   S124      1.0  0.43527  0.07804  0.51287  1.0000
  H   H380      1.0  0.50606  0.26740  0.53315  1.0000
  C   C377      1.0  0.33652  0.25270  0.89984  1.0000
  C   C378      1.0  0.43286  0.00457  0.51520  1.0000
  Fe  Fe62      1.0  0.66936  0.30777  0.74242  1.0000
  H   H381      1.0  0.50869  0.13715  0.50887  1.0000
  Fe  Fe63      1.0  0.34892  0.71588  0.31299  1.0000
  S   S125      1.0  0.34867  0.73577  0.36089  1.0000
  Fe  Fe64      1.0  0.35897  0.72819  0.24832  1.0000
  S   S126      1.0  0.37524  0.76685  0.22041  1.0000
  Fe  Fe65      1.0  0.35248  0.65131  0.26987  1.0000
  S   S127      1.0  0.36430  0.59478  0.26187  1.0000
  C   C379      1.0  0.60745  0.73739  0.35708  1.0000
  S   S128      1.0  0.37169  0.69567  0.28497  1.0000
  S   S129      1.0  0.64950  0.66476  0.28440  1.0000
  H   H382      1.0  0.37061  0.61651  0.19803  1.0000
  H   H383      1.0  0.54926  0.94510  0.06102  1.0000
  S   S130      1.0  0.64402  0.74028  0.22902  1.0000
  H   H384      1.0  0.34736  0.81869  0.23850  1.0000
  H   H385      1.0  0.37232  0.91299  0.02511  1.0000
  Fe  Fe66      1.0  0.57828  0.79498  0.03819  1.0000
  C   C380      1.0  0.58501  0.75423  0.44150  1.0000
  S   S131      1.0  0.55138  0.76656  0.04417  1.0000
  Fe  Fe67      1.0  0.61753  0.79625  0.06187  1.0000
  S   S132      1.0  0.62515  0.84193  0.03192  1.0000
  S   S133      1.0  0.63823  0.76513  0.09020  1.0000
  Fe  Fe68      1.0  0.59823  0.86658  0.04396  1.0000
  S   S134      1.0  0.58892  0.92345  0.05642  1.0000
  H   H386      1.0  0.60896  0.68149  0.36882  1.0000
  S   S135      1.0  0.62451  0.81597  0.44803  1.0000
  S   S136      1.0  0.59190  0.82321  0.07657  1.0000
  S   S137      1.0  0.60340  0.76442  0.02539  1.0000
  Fe  Fe69      1.0  0.41450  0.88327  0.04383  1.0000
  C   C381      1.0  0.60453  0.70828  0.37541  1.0000
  S   S138      1.0  0.40524  0.93842  0.06022  1.0000
  Fe  Fe70      1.0  0.41313  0.80302  0.05776  1.0000
  H   H387      1.0  0.55104  0.91428  0.03033  1.0000
  S   S139      1.0  0.40111  0.75933  0.08698  1.0000
  Fe  Fe71      1.0  0.44658  0.83471  0.02828  1.0000
  H   H388      1.0  0.56063  0.87539  0.07442  1.0000
  H   H389      1.0  0.63013  0.00012  0.49876  1.0000
  S   S140      1.0  0.41494  0.79171  0.44298  1.0000
  S   S141      1.0  0.43265  0.84734  0.07103  1.0000
  S   S142      1.0  0.39393  0.84004  0.03347  1.0000
  C   C382      1.0  0.53044  0.78804  0.03606  1.0000
  C   C383      1.0  0.51418  0.77214  0.04479  1.0000
  C   C384      1.0  0.49735  0.78923  0.03936  1.0000
  Fe  Fe72      1.0  0.66343  0.70708  0.25803  1.0000
  C   C385      1.0  0.38523  0.61058  0.19467  1.0000
  H   H390      1.0  0.53180  0.86490  0.48206  1.0000
  H   H391      1.0  0.51460  0.74682  0.05629  1.0000
  H   H392      1.0  0.48494  0.77728  0.04684  1.0000
  C   C386      1.0  0.60259  0.77201  0.36635  1.0000
  H   H393      1.0  0.59211  0.80427  0.40174  1.0000
  C   C387      1.0  0.64828  0.72337  0.39184  1.0000
  C   C388      1.0  0.64150  0.71644  0.41993  1.0000
  C   C389      1.0  0.63480  0.74456  0.43794  1.0000
  C   C390      1.0  0.63481  0.78005  0.42803  1.0000
  C   C391      1.0  0.64214  0.78712  0.40035  1.0000
  C   C392      1.0  0.64883  0.75900  0.38233  1.0000
  H   H394      1.0  0.60534  0.79495  0.35266  1.0000
  H   H395      1.0  0.62935  0.73869  0.45925  1.0000
  H   H396      1.0  0.64230  0.81449  0.39250  1.0000
  C   C393      1.0  0.54156  0.92563  0.04683  1.0000
  C   C394      1.0  0.64382  0.74974  0.19070  1.0000
  C   C395      1.0  0.62965  0.77098  0.17889  1.0000
  C   C396      1.0  0.62803  0.77697  0.14834  1.0000
  C   C397      1.0  0.64063  0.76181  0.12916  1.0000
  C   C398      1.0  0.65504  0.74125  0.14105  1.0000
  C   C399      1.0  0.65662  0.73515  0.17160  1.0000
  H   H397      1.0  0.61971  0.78252  0.19346  1.0000
  H   H398      1.0  0.61691  0.79288  0.13960  1.0000
  C   C400      1.0  0.51293  0.83726  0.01511  1.0000
  C   C401      1.0  0.36733  0.75108  0.38337  1.0000
  C   C402      1.0  0.38502  0.75253  0.37293  1.0000
  C   C403      1.0  0.39934  0.76497  0.39149  1.0000
  C   C404      1.0  0.39625  0.77615  0.42071  1.0000
  C   C405      1.0  0.37855  0.77466  0.43117  1.0000
  C   C406      1.0  0.36422  0.76221  0.41261  1.0000
  H   H399      1.0  0.38768  0.74408  0.35058  1.0000
  H   H400      1.0  0.41295  0.76595  0.38314  1.0000
  H   H401      1.0  0.37592  0.78309  0.45355  1.0000
  H   H402      1.0  0.35063  0.76119  0.42099  1.0000
  C   C407      1.0  0.38141  0.76482  0.18278  1.0000
  C   C408      1.0  0.39157  0.79321  0.17139  1.0000
  C   C409      1.0  0.39724  0.79252  0.14192  1.0000
  C   C410      1.0  0.39293  0.76319  0.12348  1.0000
  C   C411      1.0  0.38248  0.73505  0.13474  1.0000
  C   C412      1.0  0.37663  0.73593  0.16415  1.0000
  H   H403      1.0  0.39529  0.81580  0.18553  1.0000
  H   H404      1.0  0.40529  0.81434  0.13365  1.0000
  H   H405      1.0  0.37904  0.71227  0.12063  1.0000
  H   H406      1.0  0.36873  0.71400  0.17251  1.0000
  C   C413      1.0  0.39731  0.66012  0.22494  1.0000
  C   C414      1.0  0.41269  0.97948  0.04531  1.0000
  H   H407      1.0  0.62169  0.94011  0.02388  1.0000
  Fe  Fe73      1.0  0.61084  0.81620  0.49280  1.0000
  H   H408      1.0  0.58795  0.78186  0.44999  1.0000
  C   C415      1.0  0.59510  0.77709  0.39416  1.0000
  C   C416      1.0  0.59826  0.96422  0.04368  1.0000
  H   H409      1.0  0.50069  0.84381  0.47659  1.0000
  H   H410      1.0  0.65249  0.63322  0.15065  1.0000
  H   H411      1.0  0.66491  0.72953  0.12644  1.0000
  C   C417      1.0  0.33669  0.54905  0.27956  1.0000
  N   N32       1.0  0.53435  0.89675  0.06481  1.0000
  H   H412      1.0  0.36983  0.95985  0.03220  1.0000
  H   H413      1.0  0.40721  0.70631  0.24986  1.0000
  C   C418      1.0  0.35399  0.55214  0.26781  1.0000
  C   C419      1.0  0.61457  0.96501  0.02858  1.0000
  H   H414      1.0  0.40192  0.64676  0.15219  1.0000
  C   C420      1.0  0.49575  0.87048  0.48451  1.0000
  N   N33       1.0  0.63261  0.65634  0.17868  1.0000
  C   C421      1.0  0.64032  0.64957  0.15204  1.0000
  C   C422      1.0  0.61786  0.67863  0.18065  1.0000
  H   H415      1.0  0.37695  0.52233  0.25159  1.0000
  C   C423      1.0  0.61011  0.69393  0.15537  1.0000
  C   C424      1.0  0.61777  0.68691  0.12808  1.0000
  C   C425      1.0  0.33959  0.79921  0.17917  1.0000
  C   C426      1.0  0.64107  0.64227  0.20563  1.0000
  H   H416      1.0  0.61250  0.70016  0.10851  1.0000
  C   C427      1.0  0.63299  0.66464  0.12634  1.0000
  H   H417      1.0  0.48285  0.86545  0.49605  1.0000
  C   C428      1.0  0.52728  0.88287  0.49947  1.0000
  H   H418      1.0  0.53069  0.94028  0.03463  1.0000
  H   H419      1.0  0.59884  0.71262  0.15712  1.0000
  N   N34       1.0  0.50917  0.88776  0.50427  1.0000
  H   H420      1.0  0.59121  0.73547  0.45770  1.0000
  H   H421      1.0  0.42107  0.73447  0.20656  1.0000
  C   C429      1.0  0.41442  0.70852  0.20425  1.0000
  H   H422      1.0  0.63947  0.66038  0.10536  1.0000
  H   H423      1.0  0.66765  0.71895  0.18029  1.0000
  C   C430      1.0  0.54616  0.87285  0.07757  1.0000
  Fe  Fe74      1.0  0.66659  0.68523  0.32273  1.0000
  C   C431      1.0  0.41304  0.69146  0.17676  1.0000
  H   H424      1.0  0.59510  0.69164  0.41742  1.0000
  H   H425      1.0  0.51590  0.81775  0.10964  1.0000
  C   C432      1.0  0.53974  0.84424  0.09406  1.0000
  C   C433      1.0  0.50919  0.86555  0.08533  1.0000
  H   H426      1.0  0.43094  0.95541  0.01433  1.0000
  H   H427      1.0  0.61412  0.73323  0.33622  1.0000
  H   H428      1.0  0.38965  0.59082  0.21157  1.0000
  H   H429      1.0  0.57009  0.75028  0.44072  1.0000
  H   H430      1.0  0.41866  0.70410  0.15757  1.0000
  H   H431      1.0  0.51137  0.75815  0.49615  1.0000
  H   H432      1.0  0.65404  0.76482  0.36085  1.0000
  C   C434      1.0  0.52112  0.84053  0.09781  1.0000
  H   H433      1.0  0.50659  0.91210  0.05828  1.0000
  H   H434      1.0  0.54912  0.82443  0.10300  1.0000
  C   C435      1.0  0.36356  0.52038  0.26069  1.0000
  H   H435      1.0  0.65018  0.66306  0.21546  1.0000
  C   C436      1.0  0.40656  0.69278  0.22854  1.0000
  C   C437      1.0  0.51608  0.89370  0.06881  1.0000
  N   N35       1.0  0.39579  0.64382  0.19785  1.0000
  C   C438      1.0  0.40344  0.65911  0.17386  1.0000
  C   C439      1.0  0.42508  0.98027  0.02246  1.0000
  Fe  Fe75      1.0  0.41613  0.81200  0.49085  1.0000
  H   H436      1.0  0.39114  0.64803  0.24387  1.0000
  H   H437      1.0  0.64112  0.68901  0.42759  1.0000
  H   H438      1.0  0.34411  0.77315  0.13718  1.0000
  H   H439      1.0  0.38674  0.59759  0.17271  1.0000
  S   S143      1.0  0.65448  0.68634  0.36880  1.0000
  C   C440      1.0  0.59689  0.71429  0.40299  1.0000
  H   H440      1.0  0.49282  0.88792  0.46535  1.0000
  N   N36       1.0  0.59260  0.74845  0.41223  1.0000
  C   C441      1.0  0.49669  0.82210  0.02474  1.0000
  H   H441      1.0  0.61251  0.68590  0.20200  1.0000
  S   S144      1.0  0.33749  0.75186  0.27762  1.0000
  H   H442      1.0  0.49463  0.86225  0.08721  1.0000
  S   S145      1.0  0.34134  0.68306  0.23151  1.0000
  S   S146      1.0  0.58364  0.84380  0.49521  1.0000
  S   S147      1.0  0.43223  0.86237  0.50218  1.0000
  H   H443      1.0  0.35058  0.81817  0.17651  1.0000
  C   C442      1.0  0.36898  0.93901  0.01439  1.0000
  H   H444      1.0  0.63071  0.63546  0.22202  1.0000
  H   H445      1.0  0.63460  0.99851  0.00855  1.0000
  S   S148      1.0  0.47641  0.84712  0.01995  1.0000
  H   H446      1.0  0.57664  0.99658  0.06142  1.0000
  S   S149      1.0  0.42851  0.78735  0.01648  1.0000
  C   C443      1.0  0.52972  0.82057  0.02102  1.0000
  C   C444      1.0  0.58924  0.99687  0.04969  1.0000
  H   H447      1.0  0.54211  0.83300  0.01404  1.0000
  C   C445      1.0  0.62187  0.99817  0.01993  1.0000
  H   H448      1.0  0.64909  0.61738  0.20137  1.0000
  H   H449      1.0  0.56646  0.71162  0.00529  1.0000
  S   S150      1.0  0.58303  0.83934  0.00659  1.0000
  Fe  Fe76      1.0  0.35637  0.70326  0.81331  1.0000
  S   S151      1.0  0.36860  0.70175  0.86006  1.0000
  Fe  Fe77      1.0  0.35544  0.72576  0.74827  1.0000
  S   S152      1.0  0.36865  0.76752  0.71864  1.0000
  Fe  Fe78      1.0  0.34863  0.64668  0.76415  1.0000
  S   S153      1.0  0.35557  0.58923  0.74865  1.0000
  H   H450      1.0  0.35131  0.76548  0.59347  1.0000
  S   S154      1.0  0.37185  0.68480  0.77364  1.0000
  S   S155      1.0  0.65141  0.65939  0.78601  1.0000
  H   H451      1.0  0.52675  0.79524  0.95882  1.0000
  H   H452      1.0  0.62339  0.63186  0.74100  1.0000
  S   S156      1.0  0.63237  0.72276  0.72484  1.0000
  C   C446      1.0  0.61936  0.63274  0.71732  1.0000
  C   C447      1.0  0.37719  0.60387  0.82308  1.0000
  Fe  Fe79      1.0  0.57574  0.79876  0.52450  1.0000
  C   C448      1.0  0.57028  0.79379  0.93567  1.0000
  H   H453      1.0  0.38859  0.61818  0.81281  1.0000
  Fe  Fe80      1.0  0.61191  0.80138  0.55931  1.0000
  S   S157      1.0  0.62199  0.84736  0.53204  1.0000
  S   S158      1.0  0.63319  0.78230  0.59333  1.0000
  Fe  Fe81      1.0  0.59409  0.87076  0.53654  1.0000
  S   S159      1.0  0.58513  0.92711  0.55005  1.0000
  H   H454      1.0  0.34128  0.76194  0.86877  1.0000
  S   S160      1.0  0.61649  0.80939  0.94751  1.0000
  S   S161      1.0  0.58458  0.82708  0.56643  1.0000
  Fe  Fe82      1.0  0.41017  0.82703  0.99326  1.0000
  Fe  Fe83      1.0  0.40988  0.87543  0.53342  1.0000
  H   H455      1.0  0.66197  0.73969  0.68509  1.0000
  S   S162      1.0  0.39645  0.92993  0.54176  1.0000
  Fe  Fe84      1.0  0.40778  0.79816  0.55586  1.0000
  S   S163      1.0  0.43017  0.77918  0.52613  1.0000
  S   S164      1.0  0.39339  0.75764  0.58482  1.0000
  Fe  Fe85      1.0  0.44452  0.83046  0.53938  1.0000
  H   H456      1.0  0.51167  0.94539  0.56258  1.0000
  H   H457      1.0  0.66772  0.81316  0.88018  1.0000
  S   S165      1.0  0.39734  0.82769  0.94679  1.0000
  S   S166      1.0  0.42305  0.84695  0.57164  1.0000
  C   C449      1.0  0.44056  0.73567  0.59439  1.0000
  C   C450      1.0  0.37287  0.54373  0.84343  1.0000
  C   C451      1.0  0.52718  0.81674  0.54860  1.0000
  C   C452      1.0  0.51044  0.83031  0.55831  1.0000
  C   C453      1.0  0.49400  0.81857  0.54533  1.0000
  C   C454      1.0  0.55247  0.80575  0.93889  1.0000
  H   H458      1.0  0.58995  0.75350  0.94728  1.0000
  H   H459      1.0  0.53972  0.82633  0.55860  1.0000
  C   C455      1.0  0.40106  0.92550  0.95245  1.0000
  C   C456      1.0  0.43156  0.73066  0.62079  1.0000
  H   H460      1.0  0.51028  0.85050  0.57570  1.0000
  C   C457      1.0  0.64689  0.72617  0.88997  1.0000
  C   C458      1.0  0.63878  0.75665  0.87756  1.0000
  C   C459      1.0  0.62953  0.78170  0.89552  1.0000
  C   C460      1.0  0.62818  0.77659  0.92604  1.0000
  C   C461      1.0  0.63614  0.74593  0.93840  1.0000
  C   C462      1.0  0.64547  0.72097  0.92046  1.0000
  H   H461      1.0  0.63975  0.76108  0.85417  1.0000
  H   H462      1.0  0.62340  0.80528  0.88568  1.0000
  H   H463      1.0  0.63530  0.74164  0.96183  1.0000
  H   H464      1.0  0.62243  0.66921  0.66744  1.0000
  C   C463      1.0  0.63296  0.74091  0.68881  1.0000
  C   C464      1.0  0.61650  0.74897  0.67401  1.0000
  C   C465      1.0  0.61624  0.76163  0.64484  1.0000
  C   C466      1.0  0.63249  0.76632  0.63006  1.0000
  C   C467      1.0  0.64894  0.75842  0.64492  1.0000
  C   C468      1.0  0.64920  0.74582  0.67409  1.0000
  H   H465      1.0  0.60384  0.74521  0.68513  1.0000
  H   H466      1.0  0.60347  0.76753  0.63377  1.0000
  H   H467      1.0  0.66161  0.76205  0.63378  1.0000
  C   C469      1.0  0.37725  0.73703  0.88338  1.0000
  C   C470      1.0  0.38296  0.72890  0.91230  1.0000
  C   C471      1.0  0.38937  0.75608  0.93189  1.0000
  C   C472      1.0  0.39006  0.79190  0.92283  1.0000
  C   C473      1.0  0.38440  0.80001  0.89387  1.0000
  C   C474      1.0  0.37815  0.77279  0.87420  1.0000
  H   H468      1.0  0.38236  0.70138  0.91970  1.0000
  H   H469      1.0  0.39365  0.74936  0.95406  1.0000
  H   H470      1.0  0.38494  0.82756  0.88655  1.0000
  H   H471      1.0  0.37400  0.77952  0.85198  1.0000
  C   C475      1.0  0.37605  0.76354  0.68176  1.0000
  C   C476      1.0  0.37326  0.73235  0.66469  1.0000
  C   C477      1.0  0.37894  0.73090  0.63524  1.0000
  C   C478      1.0  0.38747  0.76051  0.62247  1.0000
  C   C479      1.0  0.39059  0.79147  0.63967  1.0000
  C   C480      1.0  0.38483  0.79298  0.66909  1.0000
  H   H472      1.0  0.36654  0.70947  0.67410  1.0000
  H   H473      1.0  0.37646  0.70676  0.62216  1.0000
  H   H474      1.0  0.39717  0.81443  0.63018  1.0000
  H   H475      1.0  0.38710  0.81722  0.68213  1.0000
  C   C481      1.0  0.34930  0.54636  0.76239  1.0000
  C   C482      1.0  0.40763  0.97101  0.53461  1.0000
  C   C483      1.0  0.38893  0.91879  0.97494  1.0000
  N   N37       1.0  0.63539  0.63508  0.69892  1.0000
  S   S167      1.0  0.60235  0.76889  0.51941  1.0000
  H   H476      1.0  0.64809  0.85427  0.59799  1.0000
  C   C484      1.0  0.59481  0.96751  0.53745  1.0000
  Fe  Fe86      1.0  0.66656  0.69344  0.81985  1.0000
  C   C485      1.0  0.36322  0.87673  0.62792  1.0000
  Fe  Fe87      1.0  0.60946  0.81128  0.99647  1.0000
  H   H477      1.0  0.37061  0.87579  0.55449  1.0000
  C   C486      1.0  0.61015  0.96748  0.51987  1.0000
  C   C487      1.0  0.35871  0.83245  0.57872  1.0000
  C   C488      1.0  0.38607  0.98148  0.98489  1.0000
  H   H478      1.0  0.54791  0.83027  0.92829  1.0000
  H   H479      1.0  0.35725  0.81513  0.55938  1.0000
  H   H480      1.0  0.61003  0.84220  0.61780  1.0000
  C   C489      1.0  0.66580  0.63926  0.66402  1.0000
  C   C490      1.0  0.64873  0.90598  0.57740  1.0000
  H   H481      1.0  0.61058  0.65700  0.71484  1.0000
  H   H482      1.0  0.61145  0.60830  0.71130  1.0000
  H   H483      1.0  0.61773  0.97250  0.58809  1.0000
  H   H484      1.0  0.43736  0.71881  0.57529  1.0000
  C   C491      1.0  0.49441  0.79232  0.52298  1.0000
  H   H485      1.0  0.36451  0.61078  0.81086  1.0000
  C   C492      1.0  0.57605  0.76246  0.94987  1.0000
  C   C493      1.0  0.52763  0.79076  0.52605  1.0000
  C   C494      1.0  0.38983  0.51175  0.79585  1.0000
  C   C495      1.0  0.54062  0.78614  0.95597  1.0000
  H   H486      1.0  0.40693  0.90319  0.94015  1.0000
  H   H487      1.0  0.39259  0.56575  0.78029  1.0000
  H   H488      1.0  0.46044  0.76732  0.57224  1.0000
  C   C496      1.0  0.61885  0.86066  0.63107  1.0000
  C   C497      1.0  0.53467  0.92305  0.54011  1.0000
  C   C498      1.0  0.54688  0.75503  0.96998  1.0000
  S   S168      1.0  0.47351  0.83901  0.55687  1.0000
  C   C499      1.0  0.51618  0.92794  0.54483  1.0000
  N   N38       1.0  0.43505  0.75263  0.64465  1.0000
  C   C500      1.0  0.44749  0.77975  0.64300  1.0000
  C   C501      1.0  0.45677  0.78546  0.61693  1.0000
  H   H489      1.0  0.42199  0.77192  0.68322  1.0000
  C   C502      1.0  0.51116  0.77840  0.51350  1.0000
  H   H490      1.0  0.46649  0.80722  0.61541  1.0000
  H   H491      1.0  0.56452  0.68699  0.97068  1.0000
  S   S169      1.0  0.34132  0.74697  0.78906  1.0000
  C   C503      1.0  0.61819  0.00034  0.51218  1.0000
  C   C504      1.0  0.58747  0.00058  0.54687  1.0000
  H   H492      1.0  0.66616  0.55782  0.80972  1.0000
  C   C505      1.0  0.45334  0.76309  0.59258  1.0000
  H   H493      1.0  0.54470  0.93671  0.55405  1.0000
  S   S170      1.0  0.65989  0.69497  0.86891  1.0000
  C   C506      1.0  0.39809  0.98919  0.96245  1.0000
  H   H494      1.0  0.36249  0.51741  0.72733  1.0000
  C   C507      1.0  0.62470  0.94688  0.59063  1.0000
  H   H495      1.0  0.38544  0.89111  0.97960  1.0000
  N   N39       1.0  0.56445  0.74383  0.96710  1.0000
  C   C508      1.0  0.63465  0.65456  0.67359  1.0000
  C   C509      1.0  0.40573  0.96094  0.94631  1.0000
  N   N40       1.0  0.62640  0.88814  0.61206  1.0000
  N   N41       1.0  0.35323  0.82096  0.60557  1.0000
  C   C510      1.0  0.42619  0.74611  0.67265  1.0000
  C   C511      1.0  0.38810  0.54923  0.79822  1.0000
  H   H496      1.0  0.43104  0.94646  0.51518  1.0000
  H   H497      1.0  0.41368  0.72977  0.66949  1.0000
  C   C512      1.0  0.35513  0.84282  0.62995  1.0000
  C   C513      1.0  0.65080  0.61659  0.70662  1.0000
  S   S171      1.0  0.39284  0.82740  0.51954  1.0000
  H   H498      1.0  0.43557  0.73156  0.68779  1.0000
  H   H499      1.0  0.64939  0.67398  0.63651  1.0000
  H   H500      1.0  0.42144  0.70960  0.62177  1.0000
  H   H501      1.0  0.34547  0.77538  0.63064  1.0000
  N   N42       1.0  0.37990  0.56474  0.82199  1.0000
  H   H502      1.0  0.37528  0.91475  0.59850  1.0000
  H   H503      1.0  0.64533  0.95927  0.55960  1.0000
  Fe  Fe88      1.0  0.65614  0.70504  0.75465  1.0000
  H   H504      1.0  0.36564  0.55592  0.86158  1.0000
  H   H505      1.0  0.57971  0.80891  0.92263  1.0000
  C   C514      1.0  0.36892  0.88856  0.60062  1.0000
  H   H506      1.0  0.37624  0.61429  0.84607  1.0000
  H   H507      1.0  0.58559  0.70821  0.98187  1.0000
  C   C515      1.0  0.64987  0.65729  0.65594  1.0000
  S   S172      1.0  0.42922  0.87329  0.00219  1.0000
  H   H508      1.0  0.45028  0.79719  0.66187  1.0000
  H   H509      1.0  0.36509  0.89367  0.64738  1.0000
  C   C516      1.0  0.64161  0.88050  0.59636  1.0000
  H   H510      1.0  0.55463  0.89641  0.51367  1.0000
  C   C517      1.0  0.36645  0.86650  0.57583  1.0000
  C   C518      1.0  0.61774  0.92056  0.60893  1.0000
  C   C519      1.0  0.57057  0.71098  0.98187  1.0000
  H   H511      1.0  0.62982  0.84432  0.64154  1.0000
  N   N43       1.0  0.38184  0.94659  0.99113  1.0000
  C   C520      1.0  0.54027  0.90038  0.51733  1.0000
  H   H512      1.0  0.61080  0.87289  0.64903  1.0000
  H   H513      1.0  0.65174  0.69757  0.93035  1.0000
  H   H514      1.0  0.65135  0.60076  0.72652  1.0000
  H   H515      1.0  0.60519  0.92610  0.62019  1.0000
  H   H516      1.0  0.53770  0.74032  0.98375  1.0000
  H   H517      1.0  0.38625  0.00379  0.55264  1.0000
  H   H518      1.0  0.41538  0.96644  0.92928  1.0000
  S   S173      1.0  0.66922  0.74047  0.78969  1.0000
  C   C521      1.0  0.42449  0.97153  0.52115  1.0000
  C   C522      1.0  0.34450  0.78574  0.60781  1.0000
  H   H519      1.0  0.51252  0.86263  0.00369  1.0000
  H   H520      1.0  0.48187  0.78299  0.51278  1.0000
  H   H521      1.0  0.35077  0.83375  0.65127  1.0000
  C   C523      1.0  0.37427  0.50615  0.84166  1.0000
  C   C524      1.0  0.35518  0.51497  0.74758  1.0000
  H   H522      1.0  0.48917  0.91368  0.53051  1.0000
  C   C525      1.0  0.50353  0.91009  0.52651  1.0000
  C   C526      1.0  0.33982  0.54270  0.78852  1.0000
  C   C527      1.0  0.64021  0.93941  0.57461  1.0000
  H   H523      1.0  0.66055  0.89950  0.56451  1.0000
  H   H524      1.0  0.57566  0.00092  0.56057  1.0000
  S   S174      1.0  0.54843  0.77336  0.51285  1.0000
  H   H525      1.0  0.61594  0.94220  0.51250  1.0000
  C   C528      1.0  0.66623  0.61843  0.68934  1.0000
  C   C529      1.0  0.33678  0.50816  0.80006  1.0000
  H   H526      1.0  0.38063  0.00354  0.99793  1.0000
  C   C530      1.0  0.39929  0.00391  0.54219  1.0000
  C   C531      1.0  0.66944  0.53416  0.79669  1.0000
  H   H527      1.0  0.35498  0.93794  0.00510  1.0000
  Fe  Fe89      1.0  0.85728  0.19939  0.30694  1.0000
  S   S175      1.0  0.82841  0.17943  0.30624  1.0000
  S   S176      1.0  0.87661  0.20398  0.34699  1.0000
  Fe  Fe90      1.0  0.85953  0.19603  0.23915  1.0000
  S   S177      1.0  0.83098  0.17525  0.23368  1.0000
  S   S178      1.0  0.88101  0.20210  0.20384  1.0000
  Fe  Fe91      1.0  0.82391  0.21690  0.26822  1.0000
  S   S179      1.0  0.80065  0.25644  0.25959  1.0000
  Fe  Fe92      1.0  0.83747  0.13883  0.27193  1.0000
  S   S180      1.0  0.82605  0.08146  0.27461  1.0000
  S   S181      1.0  0.85225  0.23991  0.27135  1.0000
  S   S182      1.0  0.86647  0.15641  0.27498  1.0000
  H   H528      1.0  0.99770  0.35203  0.44848  1.0000
  S   S183      1.0  0.92548  0.36442  0.06255  1.0000
  H   H529      1.0  0.87840  0.12587  0.35355  1.0000
  H   H530      1.0  0.76748  0.21878  0.18319  1.0000
  S   S184      1.0  0.92757  0.27853  0.04165  1.0000
  S   S185      1.0  0.88615  0.32082  0.45140  1.0000
  Fe  Fe93      1.0  0.90636  0.31717  0.05867  1.0000
  S   S186      1.0  0.88529  0.30909  0.09449  1.0000
  Fe  Fe94      1.0  0.94617  0.32677  0.04295  1.0000
  S   S187      1.0  0.97446  0.33184  0.06383  1.0000
  H   H531      1.0  0.96981  0.37242  0.47298  1.0000
  H   H532      1.0  0.70931  0.28246  0.18875  1.0000
  Fe  Fe95      1.0  0.69582  0.28535  0.29439  1.0000
  H   H533      1.0  0.96634  0.39558  0.03142  1.0000
  S   S188      1.0  0.72034  0.25165  0.30837  1.0000
  H   H534      1.0  0.90452  0.20618  0.25665  1.0000
  S   S189      1.0  0.67920  0.31585  0.32750  1.0000
  S   S190      1.0  0.69269  0.32801  0.26003  1.0000
  C   C532      1.0  0.83353  0.10635  0.35663  1.0000
  N   N44       1.0  0.83405  0.07079  0.34840  1.0000
  C   C533      1.0  0.85024  0.05444  0.34230  1.0000
  C   C534      1.0  0.91161  0.47615  0.04090  1.0000
  C   C535      1.0  0.84949  0.12646  0.35907  1.0000
  H   H535      1.0  0.90987  0.45222  0.05385  1.0000
  C   C536      1.0  0.96237  0.42624  0.07114  1.0000
  C   C537      1.0  0.67120  0.46287  0.26219  1.0000
  C   C538      1.0  0.96322  0.42198  0.04058  1.0000
  H   H536      1.0  0.82068  0.11951  0.36092  1.0000
  C   C539      1.0  0.86642  0.07396  0.34392  1.0000
  C   C540      1.0  0.91387  0.47296  0.01052  1.0000
  C   C541      1.0  0.77880  0.25595  0.27512  1.0000
  C   C542      1.0  0.77329  0.22829  0.29341  1.0000
  C   C543      1.0  0.75545  0.22790  0.30390  1.0000
  C   C544      1.0  0.74288  0.25483  0.29595  1.0000
  C   C545      1.0  0.74839  0.28252  0.27766  1.0000
  C   C546      1.0  0.76630  0.28316  0.26748  1.0000
  H   H537      1.0  0.78275  0.20716  0.29940  1.0000
  H   H538      1.0  0.75130  0.20638  0.31805  1.0000
  H   H539      1.0  0.73886  0.30341  0.27141  1.0000
  H   H540      1.0  0.77046  0.30472  0.25339  1.0000
  C   C547      1.0  0.83664  0.03824  0.27367  1.0000
  H   H541      1.0  0.95627  0.42257  0.50353  1.0000
  C   C548      1.0  0.85543  0.03386  0.27189  1.0000
  C   C549      1.0  0.99568  0.31211  0.01649  1.0000
  H   H542      1.0  0.86396  0.05728  0.26976  1.0000
  C   C550      1.0  0.88188  0.23218  0.17360  1.0000
  C   C551      1.0  0.86840  0.25799  0.16815  1.0000
  C   C552      1.0  0.86974  0.28127  0.14397  1.0000
  C   C553      1.0  0.88456  0.27924  0.12492  1.0000
  C   C554      1.0  0.89815  0.25371  0.13061  1.0000
  C   C555      1.0  0.89680  0.23039  0.15478  1.0000
  H   H543      1.0  0.85684  0.25981  0.18236  1.0000
  H   H544      1.0  0.85914  0.30086  0.13981  1.0000
  H   H545      1.0  0.90963  0.25173  0.11624  1.0000
  H   H546      1.0  0.90734  0.21061  0.15874  1.0000
  C   C556      1.0  0.87876  0.23670  0.37596  1.0000
  C   C557      1.0  0.89197  0.23139  0.39830  1.0000
  C   C558      1.0  0.89440  0.25668  0.42154  1.0000
  C   C559      1.0  0.88366  0.28780  0.42270  1.0000
  C   C560      1.0  0.87051  0.29318  0.40023  1.0000
  C   C561      1.0  0.86804  0.26784  0.37702  1.0000
  H   H547      1.0  0.90041  0.20752  0.39770  1.0000
  H   H548      1.0  0.90459  0.25214  0.43856  1.0000
  H   H549      1.0  0.86210  0.31710  0.40092  1.0000
  H   H550      1.0  0.85779  0.27237  0.36010  1.0000
  C   C562      1.0  0.81704  0.05059  0.34590  1.0000
  Fe  Fe96      1.0  0.90497  0.32255  0.49228  1.0000
  H   H551      1.0  0.92235  0.22660  0.27913  1.0000
  S   S191      1.0  0.93015  0.35688  0.49361  1.0000
  H   H552      1.0  0.87230  0.34799  0.27270  1.0000
  H   H553      1.0  0.81124  0.01035  0.27771  1.0000
  H   H554      1.0  0.81931  0.02212  0.33899  1.0000
  H   H555      1.0  0.80802  0.06300  0.32890  1.0000
  H   H556      1.0  0.87914  0.06118  0.33821  1.0000
  C   C563      1.0  0.98285  0.38251  0.48088  1.0000
  H   H557      1.0  0.95726  0.46347  0.10679  1.0000
  H   H558      1.0  0.84904  0.15473  0.36548  1.0000
  H   H559      1.0  0.81008  0.05078  0.36731  1.0000
  H   H560      1.0  0.87942  0.31966  0.32102  1.0000
  S   S192      1.0  0.89640  0.33297  0.01301  1.0000
  H   H561      1.0  0.90276  0.20645  0.29574  1.0000
  C   C564      1.0  0.99511  0.32659  0.04501  1.0000
  H   H562      1.0  0.88259  0.31807  0.22644  1.0000
  N   N45       1.0  0.95992  0.45048  0.02250  1.0000
  C   C565      1.0  0.95645  0.48395  0.03411  1.0000
  C   C566      1.0  0.86600  0.11020  0.35242  1.0000
  H   H563      1.0  0.98321  0.30448  0.00513  1.0000
  H   H564      1.0  0.74237  0.27618  0.17998  1.0000
  N   N46       1.0  0.74619  0.23461  0.21142  1.0000
  C   C567      1.0  0.73824  0.21332  0.23180  1.0000
  C   C568      1.0  0.73606  0.25918  0.19600  1.0000
  C   C569      1.0  0.71970  0.21654  0.23728  1.0000
  C   C570      1.0  0.71745  0.26290  0.20080  1.0000
  C   C571      1.0  0.70928  0.24135  0.22153  1.0000
  C   C572      1.0  0.76557  0.23076  0.20541  1.0000
  H   H565      1.0  0.74628  0.19446  0.24462  1.0000
  H   H566      1.0  0.69490  0.24415  0.22552  1.0000
  H   H567      1.0  0.71356  0.20069  0.25429  1.0000
  Fe  Fe97      1.0  0.91730  0.37694  0.01603  1.0000
  H   H568      1.0  0.85067  0.02637  0.33535  1.0000
  H   H569      1.0  0.71101  0.48345  0.27704  1.0000
  H   H570      1.0  0.77238  0.25743  0.20682  1.0000
  H   H571      1.0  0.77267  0.21340  0.22179  1.0000
  N   N47       1.0  0.89818  0.25740  0.27577  1.0000
  C   C573      1.0  0.89502  0.27350  0.24925  1.0000
  C   C574      1.0  0.89318  0.27423  0.30135  1.0000
  C   C575      1.0  0.88562  0.30621  0.24769  1.0000
  C   C576      1.0  0.88382  0.30704  0.30067  1.0000
  C   C577      1.0  0.87987  0.32291  0.27360  1.0000
  C   C578      1.0  0.90750  0.22250  0.27691  1.0000
  H   H572      1.0  0.89945  0.26073  0.22901  1.0000
  H   H573      1.0  0.89612  0.26198  0.32245  1.0000
  C   C579      1.0  0.95829  0.46001  0.08315  1.0000
  H   H574      1.0  0.96465  0.40327  0.08531  1.0000
  C   C580      1.0  0.67256  0.45842  0.29268  1.0000
  S   S193      1.0  0.67455  0.41520  0.30920  1.0000
  S   S194      1.0  0.67207  0.25279  0.27749  1.0000
  C   C581      1.0  0.82580  0.00735  0.27639  1.0000
  H   H575      1.0  0.67604  0.16759  0.47193  1.0000
  C   C582      1.0  0.99859  0.37085  0.46692  1.0000
  C   C583      1.0  0.95544  0.48918  0.06457  1.0000
  Fe  Fe98      1.0  0.67404  0.35663  0.29163  1.0000
  H   H576      1.0  0.67383  0.48639  0.33458  1.0000
  C   C584      1.0  0.67279  0.48940  0.31097  1.0000
  H   H577      1.0  0.67099  0.43941  0.24780  1.0000
  C   C585      1.0  0.67019  0.49779  0.25026  1.0000
  S   S195      1.0  0.97130  0.29148  0.50405  1.0000
  N   N48       1.0  0.98390  0.40523  0.50480  1.0000
  H   H578      1.0  0.71713  0.50404  0.32842  1.0000
  Fe  Fe99      1.0  0.85100  0.20586  0.81668  1.0000
  S   S196      1.0  0.83153  0.16056  0.80533  1.0000
  S   S197      1.0  0.85262  0.22693  0.86430  1.0000
  Fe  Fe100     1.0  0.86006  0.21784  0.75132  1.0000
  S   S198      1.0  0.84158  0.17325  0.73587  1.0000
  S   S199      1.0  0.87370  0.25993  0.72271  1.0000
  Fe  Fe101     1.0  0.82163  0.19604  0.76836  1.0000
  S   S200      1.0  0.79267  0.20396  0.75074  1.0000
  Fe  Fe102     1.0  0.85287  0.14121  0.77405  1.0000
  S   S201      1.0  0.86444  0.08373  0.76968  1.0000
  S   S202      1.0  0.83947  0.24224  0.78180  1.0000
  S   S203      1.0  0.87302  0.18480  0.78759  1.0000
  Fe  Fe103     1.0  0.92124  0.37564  0.53825  1.0000
  S   S204      1.0  0.93607  0.33135  0.56267  1.0000
  S   S205      1.0  0.92871  0.43179  0.55554  1.0000
  H   H579      1.0  0.89992  0.30456  0.84908  1.0000
  S   S206      1.0  0.91457  0.43046  0.99242  1.0000
  N   N49       1.0  0.87479  0.10715  0.84692  1.0000
  Fe  Fe104     1.0  0.91028  0.29944  0.55693  1.0000
  S   S207      1.0  0.89921  0.25748  0.58875  1.0000
  H   H580      1.0  0.94063  0.50401  0.56712  1.0000
  H   H581      1.0  0.69274  0.40537  0.85355  1.0000
  S   S208      1.0  0.89481  0.34506  0.53561  1.0000
  C   C586      1.0  0.70761  0.23847  0.85279  1.0000
  Fe  Fe105     1.0  0.70030  0.30907  0.78852  1.0000
  H   H582      1.0  0.81475  0.26438  0.72920  1.0000
  S   S209      1.0  0.72988  0.30333  0.80384  1.0000
  H   H583      1.0  0.94168  0.20777  0.52505  1.0000
  S   S210      1.0  0.68185  0.32964  0.82398  1.0000
  S   S211      1.0  0.69034  0.34976  0.75568  1.0000
  H   H584      1.0  0.73316  0.37543  0.77828  1.0000
  C   C587      1.0  0.69850  0.24547  0.87897  1.0000
  C   C588      1.0  0.92067  0.47366  0.54199  1.0000
  H   H585      1.0  0.81515  0.30620  0.70985  1.0000
  H   H586      1.0  0.87217  0.05317  0.83081  1.0000
  H   H587      1.0  0.73582  0.43254  0.75066  1.0000
  C   C589      1.0  0.67789  0.47216  0.76344  1.0000
  C   C590      1.0  0.89300  0.11132  0.83513  1.0000
  C   C591      1.0  0.72740  0.40028  0.78693  1.0000
  N   N50       1.0  0.70168  0.21204  0.83368  1.0000
  C   C592      1.0  0.96090  0.44538  0.99054  1.0000
  H   H588      1.0  0.97998  0.33849  0.55442  1.0000
  C   C593      1.0  0.77548  0.23200  0.76582  1.0000
  C   C594      1.0  0.77829  0.25222  0.79171  1.0000
  C   C595      1.0  0.76423  0.27400  0.80290  1.0000
  C   C596      1.0  0.74722  0.27592  0.78837  1.0000
  C   C597      1.0  0.74445  0.25589  0.76237  1.0000
  C   C598      1.0  0.75849  0.23403  0.75124  1.0000
  H   H589      1.0  0.79127  0.25094  0.80320  1.0000
  H   H590      1.0  0.76656  0.28936  0.82301  1.0000
  H   H591      1.0  0.73152  0.25727  0.75074  1.0000
  H   H592      1.0  0.75617  0.21861  0.73115  1.0000
  C   C599      1.0  0.85531  0.03981  0.77486  1.0000
  C   C600      1.0  0.89234  0.31746  0.86652  1.0000
  C   C601      1.0  0.83754  0.03430  0.78396  1.0000
  H   H593      1.0  0.67604  0.23021  0.90576  1.0000
  H   H594      1.0  0.82866  0.05720  0.78724  1.0000
  C   C602      1.0  0.88144  0.25811  0.68581  1.0000
  C   C603      1.0  0.88101  0.22646  0.66874  1.0000
  C   C604      1.0  0.88665  0.22682  0.63923  1.0000
  C   C605      1.0  0.89274  0.25874  0.62632  1.0000
  C   C606      1.0  0.89328  0.29033  0.64344  1.0000
  C   C607      1.0  0.88769  0.28995  0.67298  1.0000
  H   H595      1.0  0.87624  0.20176  0.67822  1.0000
  H   H596      1.0  0.88618  0.20219  0.62625  1.0000
  H   H597      1.0  0.89791  0.31511  0.63391  1.0000
  H   H598      1.0  0.88812  0.31461  0.68593  1.0000
  C   C608      1.0  0.87119  0.23595  0.88888  1.0000
  C   C609      1.0  0.88920  0.22991  0.88107  1.0000
  C   C610      1.0  0.90345  0.23853  0.90112  1.0000
  C   C611      1.0  0.89992  0.25376  0.92898  1.0000
  C   C612      1.0  0.88191  0.25979  0.93676  1.0000
  C   C613      1.0  0.86766  0.25063  0.91691  1.0000
  H   H599      1.0  0.89219  0.21896  0.85953  1.0000
  H   H600      1.0  0.91735  0.23378  0.89490  1.0000
  H   H601      1.0  0.87897  0.27124  0.95817  1.0000
  H   H602      1.0  0.85378  0.25532  0.92324  1.0000
  N   N51       1.0  0.82776  0.26270  0.68740  1.0000
  C   C614      1.0  0.83883  0.27938  0.66808  1.0000
  C   C615      1.0  0.82107  0.22908  0.68112  1.0000
  C   C616      1.0  0.84348  0.26240  0.64161  1.0000
  C   C617      1.0  0.82567  0.21107  0.65505  1.0000
  C   C618      1.0  0.83697  0.22790  0.63523  1.0000
  H   H603      1.0  0.84453  0.30561  0.67345  1.0000
  H   H604      1.0  0.81227  0.21578  0.69642  1.0000
  H   H605      1.0  0.85258  0.27542  0.62662  1.0000
  H   H606      1.0  0.89915  0.45173  0.51464  1.0000
  Fe  Fe106     1.0  0.94343  0.31128  0.51779  1.0000
  C   C619      1.0  0.99249  0.33034  0.54423  1.0000
  H   H607      1.0  0.68126  0.44847  0.75053  1.0000
  C   C620      1.0  0.84963  0.13096  0.87383  1.0000
  C   C621      1.0  0.72894  0.43231  0.77151  1.0000
  H   H608      1.0  0.89354  0.09975  0.81243  1.0000
  H   H609      1.0  0.84339  0.15330  0.88560  1.0000
  H   H610      1.0  0.71938  0.25448  0.84770  1.0000
  H   H611      1.0  0.90310  0.09736  0.84941  1.0000
  H   H612      1.0  0.70354  0.18899  0.79030  1.0000
  S   S212      1.0  0.91893  0.27543  0.51334  1.0000
  C   C622      1.0  0.96725  0.41583  0.51971  1.0000
  H   H613      1.0  0.69071  0.45298  0.85334  1.0000
  C   C623      1.0  0.68347  0.22475  0.88580  1.0000
  H   H614      1.0  0.68202  0.17098  0.82496  1.0000
  N   N52       1.0  0.95816  0.22900  0.56028  1.0000
  C   C624      1.0  0.97452  0.24482  0.56667  1.0000
  C   C625      1.0  0.94414  0.23251  0.57935  1.0000
  H   H615      1.0  0.96454  0.21650  0.51568  1.0000
  C   C626      1.0  0.94609  0.25341  0.60507  1.0000
  C   C627      1.0  0.96255  0.27053  0.61131  1.0000
  H   H616      1.0  0.89681  0.14015  0.83359  1.0000
  C   C628      1.0  0.67772  0.19746  0.86642  1.0000
  H   H617      1.0  0.93124  0.21954  0.57454  1.0000
  N   N53       1.0  0.71042  0.43124  0.82415  1.0000
  C   C629      1.0  0.84028  0.09872  0.86920  1.0000
  H   H618      1.0  0.00132  0.43281  0.53562  1.0000
  H   H619      1.0  0.72446  0.19009  0.81188  1.0000
  C   C630      1.0  0.95590  0.20663  0.53362  1.0000
  S   S213      1.0  0.91847  0.26541  0.95280  1.0000
  C   C631      1.0  0.82306  0.28145  0.71480  1.0000
  H   H620      1.0  0.83564  0.28887  0.72734  1.0000
  H   H621      1.0  0.70298  0.26699  0.89374  1.0000
  H   H622      1.0  0.93474  0.25678  0.61973  1.0000
  C   C632      1.0  0.90174  0.36271  0.93916  1.0000
  C   C633      1.0  0.68694  0.19160  0.84021  1.0000
  H   H623      1.0  0.98569  0.24180  0.55166  1.0000
  H   H624      1.0  0.96411  0.28735  0.63091  1.0000
  H   H625      1.0  0.84091  0.21414  0.61511  1.0000
  H   H626      1.0  0.86570  0.35881  0.93090  1.0000
  H   H627      1.0  0.82061  0.18415  0.65045  1.0000
  C   C634      1.0  0.87328  0.34777  0.91266  1.0000
  C   C635      1.0  0.97692  0.26610  0.59209  1.0000
  H   H628      1.0  0.71691  0.37518  0.82517  1.0000
  C   C636      1.0  0.99202  0.30744  0.51956  1.0000
  C   C637      1.0  0.90138  0.33229  0.89118  1.0000
  H   H629      1.0  0.87409  0.15990  0.86612  1.0000
  H   H630      1.0  0.95955  0.17829  0.53844  1.0000
  H   H631      1.0  0.98978  0.27944  0.59655  1.0000
  H   H632      1.0  0.91606  0.33066  0.89269  1.0000
  H   H633      1.0  0.86624  0.30504  0.84675  1.0000
  H   H634      1.0  0.90938  0.34103  0.95056  1.0000
  C   C638      1.0  0.87343  0.31782  0.86518  1.0000
  H   H635      1.0  0.91146  0.38356  0.93220  1.0000
  N   N54       1.0  0.89183  0.34753  0.91365  1.0000
  C   C639      1.0  0.86380  0.33294  0.88841  1.0000
  H   H636      1.0  0.89260  0.37568  0.95534  1.0000
  H   H637      1.0  0.71518  0.23052  0.79601  1.0000
  C   C640      1.0  0.71810  0.40027  0.81343  1.0000
  H   H638      1.0  0.84910  0.33211  0.88799  1.0000
  C   C641      1.0  0.90588  0.47602  0.52236  1.0000
  S   S214      1.0  0.93925  0.34254  0.99682  1.0000
  C   C642      1.0  0.86701  0.13467  0.86255  1.0000
  C   C643      1.0  0.86593  0.07509  0.84303  1.0000
  C   C644      1.0  0.71169  0.20485  0.80669  1.0000
  H   H639      1.0  0.82666  0.09573  0.87737  1.0000
  C   C645      1.0  0.84849  0.07047  0.85383  1.0000
  S   S215      1.0  0.68082  0.26599  0.77319  1.0000
  H   H640      1.0  0.84135  0.04530  0.84987  1.0000
  H   H641      1.0  0.96919  0.44002  0.53408  1.0000
  H   H642      1.0  0.96250  0.39346  0.53354  1.0000
  H   H643      1.0  0.71049  0.43261  0.87083  1.0000
  H   H644      1.0  0.95209  0.46510  0.97879  1.0000
  H   H645      1.0  0.97512  0.44826  0.98345  1.0000
  C   C646      1.0  0.70074  0.43058  0.85198  1.0000
  C   C647      1.0  0.00041  0.41615  0.51587  1.0000
  C   C648      1.0  0.72146  0.46397  0.78298  1.0000
  H   H646      1.0  0.72234  0.48902  0.77107  1.0000
  H   H647      1.0  0.70618  0.48759  0.81800  1.0000
  H   H648      1.0  0.95580  0.41827  0.98384  1.0000
  C   C649      1.0  0.71230  0.46298  0.80960  1.0000
  Fe  Fe107     1.0  0.91881  0.29761  0.99627  1.0000
  Fe  Fe108     1.0  0.67053  0.36758  0.78976  1.0000
  H   H649      1.0  0.91771  0.50213  0.97044  1.0000
  H   H650      1.0  0.88041  0.01336  0.76393  1.0000
  C   C650      1.0  0.91603  0.50434  0.99399  1.0000
  C   C651      1.0  0.86661  0.00952  0.77080  1.0000
  Fe  Fe109     1.0  0.85104  0.86829  0.27892  1.0000
  S   S216      1.0  0.87067  0.82236  0.27037  1.0000
  S   S217      1.0  0.86309  0.92520  0.27808  1.0000
  Fe  Fe110     1.0  0.81871  0.81682  0.28236  1.0000
  S   S218      1.0  0.83580  0.76799  0.27374  1.0000
  S   S219      1.0  0.78824  0.81831  0.28992  1.0000
  Fe  Fe111     1.0  0.85596  0.79313  0.30597  1.0000
  S   S220      1.0  0.86970  0.75283  0.33713  1.0000
  Fe  Fe112     1.0  0.84935  0.80058  0.23902  1.0000
  S   S221      1.0  0.85212  0.77831  0.19197  1.0000
  S   S222      1.0  0.83794  0.84040  0.31688  1.0000
  S   S223      1.0  0.83062  0.84808  0.24540  1.0000
  C   C652      1.0  0.99650  0.69444  0.01153  1.0000
  H   H651      1.0  0.80145  0.68979  0.34823  1.0000
  Fe  Fe113     1.0  0.91013  0.71687  0.50047  1.0000
  Fe  Fe114     1.0  0.92049  0.71469  0.06548  1.0000
  S   S224      1.0  0.89812  0.68262  0.04397  1.0000
  S   S225      1.0  0.91955  0.74549  0.10938  1.0000
  Fe  Fe115     1.0  0.91921  0.63931  0.03729  1.0000
  S   S226      1.0  0.91382  0.58411  0.05662  1.0000
  H   H652      1.0  0.82989  0.73094  0.37255  1.0000
  C   C653      1.0  0.92447  0.81627  0.42964  1.0000
  S   S227      1.0  0.94129  0.67041  0.06122  1.0000
  H   H653      1.0  0.91529  0.81549  0.40993  1.0000
  Fe  Fe116     1.0  0.70078  0.68862  0.28529  1.0000
  S   S228      1.0  0.89674  0.76015  0.47177  1.0000
  S   S229      1.0  0.73184  0.68813  0.28445  1.0000
  H   H654      1.0  0.77049  0.80737  0.35814  1.0000
  S   S230      1.0  0.68570  0.66936  0.24441  1.0000
  S   S231      1.0  0.68906  0.64531  0.31347  1.0000
  H   H655      1.0  0.72561  0.61134  0.29755  1.0000
  S   S232      1.0  0.67029  0.57211  0.25204  1.0000
  H   H656      1.0  0.98695  0.66956  0.05071  1.0000
  H   H657      1.0  0.93427  0.83855  0.42711  1.0000
  C   C654      1.0  0.94154  0.72210  0.41724  1.0000
  C   C655      1.0  0.77719  0.78133  0.35712  1.0000
  C   C656      1.0  0.72253  0.58323  0.29289  1.0000
  N   N55       1.0  0.80462  0.74660  0.35317  1.0000
  C   C657      1.0  0.77261  0.78218  0.28542  1.0000
  C   C658      1.0  0.77830  0.74676  0.28002  1.0000
  C   C659      1.0  0.76557  0.71847  0.27917  1.0000
  C   C660      1.0  0.74701  0.72520  0.28352  1.0000
  C   C661      1.0  0.74128  0.76070  0.28835  1.0000
  C   C662      1.0  0.75402  0.78896  0.28938  1.0000
  H   H658      1.0  0.79254  0.74110  0.27696  1.0000
  H   H659      1.0  0.77017  0.69114  0.27534  1.0000
  H   H660      1.0  0.72707  0.76634  0.29174  1.0000
  H   H661      1.0  0.74946  0.81624  0.29359  1.0000
  C   C663      1.0  0.87630  0.75517  0.37502  1.0000
  C   C664      1.0  0.87410  0.78638  0.39219  1.0000
  C   C665      1.0  0.87995  0.78702  0.42197  1.0000
  C   C666      1.0  0.88809  0.75660  0.43497  1.0000
  C   C667      1.0  0.89003  0.72523  0.41792  1.0000
  C   C668      1.0  0.88420  0.72460  0.38814  1.0000
  H   H662      1.0  0.86802  0.81009  0.38248  1.0000
  H   H663      1.0  0.87831  0.81140  0.43497  1.0000
  H   H664      1.0  0.89621  0.70158  0.42757  1.0000
  H   H665      1.0  0.88590  0.70024  0.37512  1.0000
  C   C669      1.0  0.90057  0.75491  0.13175  1.0000
  C   C670      1.0  0.90352  0.76982  0.16010  1.0000
  C   C671      1.0  0.88894  0.77673  0.17902  1.0000
  C   C672      1.0  0.87115  0.76938  0.16956  1.0000
  C   C673      1.0  0.86819  0.75470  0.14114  1.0000
  C   C674      1.0  0.88279  0.74734  0.12237  1.0000
  H   H666      1.0  0.91722  0.77574  0.16758  1.0000
  H   H667      1.0  0.89149  0.78777  0.20085  1.0000
  H   H668      1.0  0.85449  0.74902  0.13355  1.0000
  H   H669      1.0  0.88029  0.73603  0.10061  1.0000
  C   C675      1.0  0.82446  0.74442  0.35254  1.0000
  C   C676      1.0  0.91377  0.54181  0.03808  1.0000
  C   C677      1.0  0.93220  0.75464  0.41347  1.0000
  S   S233      1.0  0.67937  0.72986  0.29726  1.0000
  C   C678      1.0  0.72198  0.55914  0.31626  1.0000
  C   C679      1.0  0.83360  0.97261  0.27775  1.0000
  C   C680      1.0  0.85241  0.96827  0.27634  1.0000
  H   H670      1.0  0.86541  0.61985  0.11431  1.0000
  H   H671      1.0  0.82506  0.94921  0.28000  1.0000
  H   H672      1.0  0.83084  0.77142  0.35162  1.0000
  H   H673      1.0  0.81074  0.93726  0.19078  1.0000
  C   C681      1.0  0.95312  0.71799  0.44163  1.0000
  S   S234      1.0  0.92856  0.74012  0.02312  1.0000
  H   H674      1.0  0.94644  0.79942  0.47433  1.0000
  C   C682      1.0  0.79470  0.71557  0.35100  1.0000
  C   C683      1.0  0.79612  0.77922  0.35620  1.0000
  C   C684      1.0  0.71910  0.59707  0.24028  1.0000
  H   H675      1.0  0.72201  0.62507  0.24800  1.0000
  H   H676      1.0  0.80386  0.80399  0.35693  1.0000
  N   N56       1.0  0.85676  0.88721  0.18887  1.0000
  C   C685      1.0  0.84181  0.87210  0.17541  1.0000
  C   C686      1.0  0.85549  0.91981  0.20312  1.0000
  C   C687      1.0  0.82506  0.88994  0.17570  1.0000
  H   H677      1.0  0.81317  0.87749  0.16553  1.0000
  Fe  Fe117     1.0  0.94747  0.69294  0.01704  1.0000
  C   C688      1.0  0.87389  0.86713  0.18967  1.0000
  H   H678      1.0  0.84268  0.84570  0.16495  1.0000
  H   H679      1.0  0.86717  0.93130  0.21468  1.0000
  H   H680      1.0  0.76783  0.69230  0.34889  1.0000
  H   H681      1.0  0.93631  0.85204  0.02035  1.0000
  H   H682      1.0  0.92307  0.75746  0.39460  1.0000
  H   H683      1.0  0.87370  0.84744  0.20780  1.0000
  H   H684      1.0  0.87591  0.85211  0.16864  1.0000
  H   H685      1.0  0.88570  0.88528  0.19325  1.0000
  C   C689      1.0  0.99873  0.67730  0.03858  1.0000
  H   H686      1.0  0.96694  0.82367  0.01923  1.0000
  Fe  Fe118     1.0  0.67287  0.62825  0.27343  1.0000
  H   H687      1.0  0.93961  0.70008  0.40158  1.0000
  C   C690      1.0  0.83900  0.93850  0.20365  1.0000
  C   C691      1.0  0.95501  0.74609  0.46213  1.0000
  H   H688      1.0  0.72438  0.56861  0.33868  1.0000
  H   H689      1.0  0.71158  0.52733  0.23661  1.0000
  C   C692      1.0  0.77574  0.71673  0.35168  1.0000
  N   N57       1.0  0.88912  0.64927  0.12698  1.0000
  C   C693      1.0  0.88220  0.66487  0.15180  1.0000
  C   C694      1.0  0.90741  0.64924  0.12254  1.0000
  C   C695      1.0  0.89371  0.68031  0.17328  1.0000
  C   C696      1.0  0.91931  0.66459  0.14348  1.0000
  C   C697      1.0  0.91238  0.68020  0.16899  1.0000
  C   C698      1.0  0.87673  0.63460  0.10425  1.0000
  H   H690      1.0  0.86766  0.66628  0.15480  1.0000
  H   H691      1.0  0.91290  0.63786  0.10251  1.0000
  H   H692      1.0  0.88813  0.69357  0.19253  1.0000
  H   H693      1.0  0.93372  0.66567  0.13932  1.0000
  H   H694      1.0  0.92141  0.69338  0.18487  1.0000
  H   H695      1.0  0.88376  0.61518  0.08944  1.0000
  H   H696      1.0  0.87115  0.65686  0.09069  1.0000
  N   N58       1.0  0.71891  0.57167  0.26467  1.0000
  C   C699      1.0  0.71463  0.51134  0.28162  1.0000
  H   H697      1.0  0.96036  0.69281  0.44504  1.0000
  C   C700      1.0  0.86324  0.99911  0.27330  1.0000
  N   N59       1.0  0.93415  0.78208  0.43371  1.0000
  C   C701      1.0  0.94525  0.77803  0.45793  1.0000
  H   H698      1.0  0.82889  0.72903  0.33279  1.0000
  C   C702      1.0  0.76697  0.74986  0.35476  1.0000
  H   H699      1.0  0.96377  0.74287  0.48142  1.0000
  S   S235      1.0  0.92517  0.66802  0.48456  1.0000
  H   H700      1.0  0.87780  0.99612  0.27207  1.0000
  H   H701      1.0  0.70563  0.59731  0.22886  1.0000
  H   H702      1.0  0.75226  0.75127  0.35417  1.0000
  C   C703      1.0  0.71499  0.53626  0.25886  1.0000
  C   C704      1.0  0.82369  0.92336  0.18995  1.0000
  H   H703      1.0  0.95201  0.51553  0.07356  1.0000
  H   H704      1.0  0.67207  0.54777  0.31344  1.0000
  H   H705      1.0  0.72968  0.58918  0.22440  1.0000
  H   H706      1.0  0.83806  0.96425  0.21514  1.0000
  C   C705      1.0  0.91613  0.53862  0.00771  1.0000
  H   H707      1.0  0.88786  0.51155  0.49839  1.0000
  H   H708      1.0  0.90952  0.51264  0.07803  1.0000
  H   H709      1.0  0.91588  0.82200  0.44901  1.0000
  C   C706      1.0  0.71799  0.52297  0.31052  1.0000
  S   S236      1.0  0.97573  0.67298  0.50283  1.0000
  C   C707      1.0  0.67177  0.52432  0.29904  1.0000
  C   C708      1.0  0.91143  0.51044  0.05454  1.0000
  C   C709      1.0  0.67054  0.52875  0.26854  1.0000
  H   H710      1.0  0.95388  0.50664  0.01982  1.0000
  Fe  Fe119     1.0  0.84296  0.86592  0.78525  1.0000
  S   S237      1.0  0.86987  0.84308  0.77112  1.0000
  S   S238      1.0  0.83356  0.92489  0.79107  1.0000
  Fe  Fe120     1.0  0.82559  0.79032  0.78912  1.0000
  S   S239      1.0  0.85125  0.76265  0.77478  1.0000
  S   S240      1.0  0.80293  0.75366  0.80472  1.0000
  Fe  Fe121     1.0  0.86560  0.80103  0.80615  1.0000
  S   S241      1.0  0.88837  0.77704  0.83489  1.0000
  Fe  Fe122     1.0  0.85361  0.80585  0.74106  1.0000
  S   S242      1.0  0.85726  0.79694  0.69134  1.0000
  S   S243      1.0  0.83993  0.82636  0.82235  1.0000
  S   S244      1.0  0.82675  0.83108  0.75324  1.0000
  Fe  Fe123     1.0  0.94680  0.68291  0.51838  1.0000
  H   H711      1.0  0.94565  0.72445  0.94950  1.0000
  C   C710      1.0  0.68672  0.76880  0.88066  1.0000
  Fe  Fe124     1.0  0.91846  0.70062  0.56550  1.0000
  S   S245      1.0  0.89507  0.68659  0.53502  1.0000
  S   S246      1.0  0.91688  0.71381  0.61488  1.0000
  H   H712      1.0  0.86745  0.87351  0.70838  1.0000
  H   H713      1.0  0.84496  0.93392  0.72664  1.0000
  C   C711      1.0  0.86817  0.68394  0.86785  1.0000
  C   C712      1.0  0.81935  0.74355  0.87719  1.0000
  S   S247      1.0  0.93436  0.65022  0.55405  1.0000
  S   S248      1.0  0.93273  0.73422  0.53202  1.0000
  Fe  Fe125     1.0  0.69560  0.71464  0.77605  1.0000
  C   C713      1.0  0.83547  0.91679  0.71453  1.0000
  S   S249      1.0  0.71889  0.75314  0.76687  1.0000
  C   C714      1.0  0.88857  0.60451  0.58443  1.0000
  H   H714      1.0  0.94415  0.75506  0.91879  1.0000
  S   S250      1.0  0.69393  0.66966  0.80850  1.0000
  C   C715      1.0  0.86902  0.66150  0.60800  1.0000
  S   S251      1.0  0.92672  0.65879  0.99232  1.0000
  H   H715      1.0  0.99889  0.62697  0.55167  1.0000
  C   C716      1.0  0.87216  0.61481  0.57099  1.0000
  H   H716      1.0  0.67857  0.60443  0.69601  1.0000
  S   S252      1.0  0.88639  0.73066  0.96974  1.0000
  H   H717      1.0  0.98479  0.73338  0.54290  1.0000
  H   H718      1.0  0.86399  0.87310  0.66925  1.0000
  C   C717      1.0  0.77970  0.75351  0.79331  1.0000
  C   C718      1.0  0.77233  0.77994  0.77495  1.0000
  C   C719      1.0  0.75374  0.77919  0.76700  1.0000
  C   C720      1.0  0.74231  0.75192  0.77705  1.0000
  C   C721      1.0  0.74968  0.72536  0.79532  1.0000
  C   C722      1.0  0.76825  0.72629  0.80348  1.0000
  H   H719      1.0  0.78093  0.80108  0.76702  1.0000
  H   H720      1.0  0.74818  0.79989  0.75290  1.0000
  H   H721      1.0  0.74112  0.70409  0.80309  1.0000
  H   H722      1.0  0.77381  0.70563  0.81760  1.0000
  C   C723      1.0  0.88794  0.76575  0.87277  1.0000
  C   C724      1.0  0.90200  0.74433  0.88471  1.0000
  C   C725      1.0  0.90184  0.73348  0.91434  1.0000
  C   C726      1.0  0.88777  0.74456  0.93258  1.0000
  C   C727      1.0  0.87389  0.76650  0.92079  1.0000
  C   C728      1.0  0.87390  0.77689  0.89105  1.0000
  H   H723      1.0  0.91289  0.73550  0.87072  1.0000
  H   H724      1.0  0.91246  0.71619  0.92295  1.0000
  H   H725      1.0  0.86295  0.77526  0.93470  1.0000
  H   H726      1.0  0.86307  0.79354  0.88226  1.0000
  C   C729      1.0  0.90021  0.73753  0.63555  1.0000
  C   C730      1.0  0.88480  0.75301  0.62236  1.0000
  C   C731      1.0  0.87183  0.77088  0.63981  1.0000
  C   C732      1.0  0.87398  0.77338  0.67065  1.0000
  C   C733      1.0  0.88929  0.75758  0.68386  1.0000
  C   C734      1.0  0.90230  0.73984  0.66640  1.0000
  H   H727      1.0  0.88294  0.75143  0.59870  1.0000
  H   H728      1.0  0.86006  0.78295  0.62928  1.0000
  H   H729      1.0  0.89120  0.75925  0.70750  1.0000
  H   H730      1.0  0.91413  0.72793  0.67691  1.0000
  C   C735      1.0  0.92300  0.53951  0.54237  1.0000
  H   H731      1.0  0.71786  0.72572  0.89727  1.0000
  H   H732      1.0  0.92053  0.63665  0.62885  1.0000
  H   H733      1.0  0.92969  0.56378  0.55014  1.0000
  H   H734      1.0  0.83783  0.70829  0.91949  1.0000
  C   C736      1.0  0.86029  0.97424  0.77569  1.0000
  C   C737      1.0  0.84252  0.96873  0.78481  1.0000
  C   C738      1.0  0.84391  0.71991  0.84721  1.0000
  H   H735      1.0  0.86921  0.95138  0.77260  1.0000
  N   N60       1.0  0.83618  0.72282  0.87420  1.0000
  H   H736      1.0  0.91786  0.56256  0.99478  1.0000
  N   N61       1.0  0.84155  0.89201  0.69446  1.0000
  H   H737      1.0  0.96559  0.74655  0.93694  1.0000
  Fe  Fe126     1.0  0.91198  0.63863  0.52127  1.0000
  H   H738      1.0  0.80168  0.85306  0.67447  1.0000
  H   H739      1.0  0.92110  0.59686  0.60635  1.0000
  H   H740      1.0  0.81659  0.75055  0.90050  1.0000
  C   C739      1.0  0.81102  0.87157  0.68545  1.0000
  H   H741      1.0  0.86754  0.91532  0.68834  1.0000
  C   C740      1.0  0.95081  0.75006  0.94051  1.0000
  H   H742      1.0  0.81233  0.93900  0.73681  1.0000
  H   H743      1.0  0.86168  0.68420  0.61731  1.0000
  C   C741      1.0  0.80471  0.89691  0.70579  1.0000
  H   H744      1.0  0.68138  0.75785  0.90071  1.0000
  C   C742      1.0  0.84383  0.70587  0.89799  1.0000
  C   C743      1.0  0.82960  0.86947  0.68003  1.0000
  C   C744      1.0  0.88543  0.65031  0.62091  1.0000
  C   C745      1.0  0.96032  0.78993  0.98151  1.0000
  H   H745      1.0  0.67946  0.83801  0.83365  1.0000
  H   H746      1.0  0.91030  0.59558  0.64170  1.0000
  S   S253      1.0  0.68249  0.68219  0.73919  1.0000
  H   H747      1.0  0.86734  0.60088  0.55118  1.0000
  H   H748      1.0  0.91987  0.78638  0.94628  1.0000
  H   H749      1.0  0.71838  0.75214  0.83015  1.0000
  C   C746      1.0  0.99700  0.72444  0.53217  1.0000
  S   S254      1.0  0.97469  0.70387  0.99603  1.0000
  H   H750      1.0  0.67782  0.64165  0.65086  1.0000
  H   H751      1.0  0.89607  0.58214  0.57504  1.0000
  H   H752      1.0  0.88104  0.67005  0.86558  1.0000
  C   C747      1.0  0.86242  0.64372  0.58274  1.0000
  H   H753      1.0  0.71567  0.70259  0.86207  1.0000
  H   H754      1.0  0.83770  0.73299  0.82837  1.0000
  C   C748      1.0  0.81698  0.91979  0.72035  1.0000
  C   C749      1.0  0.85995  0.68624  0.89519  1.0000
  C   C750      1.0  0.91262  0.61231  0.62211  1.0000
  H   H755      1.0  0.80777  0.72796  0.86761  1.0000
  C   C751      1.0  0.86109  0.88846  0.68982  1.0000
  H   H756      1.0  0.82021  0.76929  0.86503  1.0000
  H   H757      1.0  0.89055  0.66440  0.64041  1.0000
  N   N62       1.0  0.89521  0.62282  0.60861  1.0000
  C   C752      1.0  0.90799  0.54190  0.52314  1.0000
  N   N63       1.0  0.70045  0.75149  0.86639  1.0000
  H   H758      1.0  0.83443  0.84912  0.66469  1.0000
  C   C753      1.0  0.95664  0.81629  0.00287  1.0000
  C   C754      1.0  0.70730  0.76546  0.84127  1.0000
  H   H759      1.0  0.84989  0.65248  0.57214  1.0000
  C   C755      1.0  0.86008  0.70076  0.84364  1.0000
  H   H760      1.0  0.86640  0.67415  0.91436  1.0000
  H   H761      1.0  0.86660  0.70007  0.82244  1.0000
  C   C756      1.0  0.93946  0.83211  0.00351  1.0000
  C   C757      1.0  0.70833  0.71865  0.87890  1.0000
  C   C758      1.0  0.67818  0.53802  0.76991  1.0000
  C   C759      1.0  0.93037  0.79503  0.96180  1.0000
  C   C760      1.0  0.67896  0.80016  0.86916  1.0000
  H   H762      1.0  0.68906  0.50939  0.73259  1.0000
  S   S255      1.0  0.68466  0.58087  0.75639  1.0000
  H   H763      1.0  0.69747  0.70100  0.88725  1.0000
  H   H764      1.0  0.79040  0.89834  0.71074  1.0000
  N   N64       1.0  0.94724  0.77962  0.96133  1.0000
  S   S256      1.0  0.89881  0.58408  0.51230  1.0000
  C   C761      1.0  0.68554  0.81407  0.84312  1.0000
  Fe  Fe127     1.0  0.90751  0.70503  0.00081  1.0000
  C   C762      1.0  0.83124  0.99904  0.78891  1.0000
  C   C763      1.0  0.99615  0.69628  0.51144  1.0000
  H   H765      1.0  0.97359  0.77718  0.98164  1.0000
  Fe  Fe128     1.0  0.67874  0.63856  0.77280  1.0000
  H   H766      1.0  0.91269  0.83303  0.98339  1.0000
  C   C764      1.0  0.68233  0.50679  0.75336  1.0000
  H   H767      1.0  0.70512  0.80716  0.80879  1.0000
  C   C765      1.0  0.89950  0.51001  0.51320  1.0000
  C   C766      1.0  0.69991  0.79682  0.82918  1.0000
  H   H768      1.0  0.81746  0.99520  0.79593  1.0000
  C   C767      1.0  0.92623  0.82153  0.98280  1.0000
  C   C768      1.0  0.92919  0.50557  0.55190  1.0000
