data_image0
_chemical_formula_structural       CNSC3FeSHFeS2FeSFeS5CFeSHFeNFeCHC2SC2SCHC8SH3CH2CH2C2H2C6H5C4HC4SH3S2HCH2CH3CH2CNHC2NCHC2H3SC2HCH11C2HSCH7C4FeSCHCFeH3CH2CH2SCH4C3HCHFeCFeSCFeS2FeCSHFeSC5HC7H4C6H5SFeS2FeCSFeSH2S2CSCFeSCFeHFeSNH2C2HCNH5CHNCSHSFeNH3CFeCFeCSC2NH3SH2CH3CH2CHCH3SCHCSC3HSFe2H2SC4H3SCHCHCHCHCH2C4FeSHFeS2FeSFeHS2FeS2FeS2FeSFeS3HC2H4C2H2C7H3C3H4C2H3C6H3CSHC3NH3SC3H2CHCHC2NHNC6H8C3HCH3C5HCHC6HNSH5NCNCH5CHC2HC3HCSHCH3CNCHCHCH5CHNCH3FeHSHCSFeSHFeS2FeSFeS3HSHFeSFe2HFeHCHCS2FeSCNH2C6H2CHC4H4C8H5C3HCHC3H7CHNH2SC2FeHC2H2C2NC4H2SH4CHNC3HC2H2CH2C2HCHS3CHC2S2CHSH2CH2SHFeSCFeCSHCSHC2HNC8H4C6H5CFeS2FeS2FeSFeCS2CSHFeSHFeHFeS2CHC2HC2H4CH4CNC5H2NH4CFeC2H4SHSH2CH7SCHCHCHCNCSC3HSHCHCHCSC2SFe2SHFeSHFeS2FeSFeHS2FeS2FeS2FeSFeS3C5H2CHC3HC5H2C6NCH2CH2C2HC3H3C6HCH3C3H2CH2NCH2C3HCH2CHC3H2C2HC2HCH5CN2CHCNCH3CH4C2H2C3H3CNHCH4C3HC2H2SH2CSCSCNHSC3HCH3CH2NCHCSHCHC2H4NCSFeH2FeS2FeS2FeHFeCS2HSHCS2CHFeSCSHCH2SFeH2CHCFeCHNC2HC4H2SH3C2HFeSH2SHC3HCHC6H4C2NHC2H4C2SC2HCH2NC6H2C2HSH3CHSH2SH2CH2C2HC8H4CH2FeC3HSHCH2CH2CH5CFeS2FeS2FeCSC2SCSNSC2H7C2H3CH4C5HCH3FeS2Fe2SFeS2CHSCHC2HFeCHNH2CHSH2CHCHCSHC6HNCHC2H2CH3C2HC2HC4HCHC3NC2HNC3H2CH3CH3CSH2CHCNHSCHC3HCNCH3CH2C3H2SCH3C3S2FeS2FeSCFeS2FeHFeS3HSC2FeSFeSFeHFeCFeS2FeCSC2HC5H3CHCH2C3H2NCHFeHC3HS2H2CHSC6H7Fe2HNC6H10C4NSCSC3HC2SC3H2CH2CH3CHNH3C2H2C2H2FeS2HCS2C2H3SH5CFeS2C2FeS2FeSHFeCFeS3HSH3SCSFeSCFeSH2FeC2HCHSCHC2H4C4H2C2SHC3H2C2NFeNHCHCHC6H5NC6HCH4CSHCSH2CH6C2HSCHC2H3CH2N2C3HCHC4HC2H2CH2C2HC2H3C2HCHC2HCHCHCH2CHNHFeS2FeS2FeHSC2SCHCHC2H6CSC3HC2H4C2NCHCH2CFeS2FeHSFeS2H2SCFeSC2N2CH2CNH3C3HCHC8H3C2HCHFeCHCSCHC2NC3H2CHC4H2CNHCHCHSC4H3SC2HC6HCH2CH3C2HSH4CH2CH5C2HCH5FeS2FeS2NSCFeSHFeHFeSHS3H2CSHSFeSCSFeHSCHSCSHC3SFeH8SC3FeHSHFeCSC2HCHCH4C6H4C3H2SNC3H2CHCHSH2NHFe3SCSHCHCNC6H2C4HC2SHC2HCH2CFeH4C
_chemical_formula_sum              "C768 N64 S256 Fe128 H768"
_cell_length_a       31.8191
_cell_length_b       44.9254
_cell_length_c       40.5072
_cell_angle_alpha    89.859
_cell_angle_beta     89.6422
_cell_angle_gamma    89.9633

_space_group_name_H-M_alt    "P 1"
_space_group_IT_number       1

loop_
  _space_group_symop_operation_xyz
  'x, y, z'

loop_
  _atom_site_type_symbol
  _atom_site_label
  _atom_site_symmetry_multiplicity
  _atom_site_fract_x
  _atom_site_fract_y
  _atom_site_fract_z
  _atom_site_occupancy
  C   C1        1.0  0.11645  0.30749  0.04138  1.0000
  N   N1        1.0  0.29490  0.14531  0.24965  1.0000
  S   S1        1.0  0.21414  0.30827  0.31434  1.0000
  C   C2        1.0  0.23068  0.33528  0.18809  1.0000
  C   C3        1.0  0.36309  0.22899  0.29954  1.0000
  C   C4        1.0  0.50236  0.18544  0.30464  1.0000
  Fe  Fe1       1.0  0.30266  0.24066  0.08881  1.0000
  S   S2        1.0  0.30145  0.19795  0.11798  1.0000
  H   H1        1.0  0.41468  0.14428  0.03431  1.0000
  Fe  Fe2       1.0  0.35259  0.27183  0.14207  1.0000
  S   S3        1.0  0.35595  0.23164  0.17469  1.0000
  S   S4        1.0  0.37840  0.31469  0.16162  1.0000
  Fe  Fe3       1.0  0.36947  0.20696  0.12768  1.0000
  S   S5        1.0  0.41490  0.16814  0.12752  1.0000
  Fe  Fe4       1.0  0.28805  0.22656  0.16205  1.0000
  S   S6        1.0  0.24164  0.21274  0.20147  1.0000
  S   S7        1.0  0.37206  0.24786  0.09583  1.0000
  S   S8        1.0  0.28317  0.26860  0.13234  1.0000
  S   S9        1.0  0.27534  0.23733  0.03729  1.0000
  S   S10       1.0  0.09338  0.98787  0.09284  1.0000
  C   C5        1.0  0.13150  0.03327  0.29092  1.0000
  Fe  Fe5       1.0  0.15881  0.97490  0.17254  1.0000
  S   S11       1.0  0.16720  0.01569  0.14099  1.0000
  H   H2        1.0  0.50680  0.19404  0.16630  1.0000
  Fe  Fe6       1.0  0.09657  0.01505  0.13918  1.0000
  N   N2        1.0  0.26573  0.38961  0.16964  1.0000
  Fe  Fe7       1.0  0.16350  0.98456  0.09777  1.0000
  C   C6        1.0  0.29124  0.36557  0.17510  1.0000
  H   H3        1.0  0.06065  0.00329  0.23970  1.0000
  C   C7        1.0  0.22313  0.38718  0.17370  1.0000
  C   C8        1.0  0.43313  0.07469  0.05420  1.0000
  S   S12       1.0  0.36806  0.08147  0.33360  1.0000
  C   C9        1.0  0.23187  0.03954  0.05251  1.0000
  C   C10       1.0  0.05165  0.34519  0.33684  1.0000
  S   S13       1.0  0.25284  0.07748  0.30144  1.0000
  C   C11       1.0  0.36724  0.13834  0.26457  1.0000
  H   H4        1.0  0.23359  0.16422  0.24784  1.0000
  C   C12       1.0  0.32445  0.13813  0.27276  1.0000
  C   C13       1.0  0.08859  0.98045  0.28076  1.0000
  C   C14       1.0  0.21116  0.99608  0.24223  1.0000
  C   C15       1.0  0.23364  0.99206  0.27165  1.0000
  C   C16       1.0  0.24797  0.01680  0.28969  1.0000
  C   C17       1.0  0.23959  0.04565  0.27840  1.0000
  C   C18       1.0  0.21746  0.04957  0.24887  1.0000
  C   C19       1.0  0.20331  0.02493  0.23088  1.0000
  S   S14       1.0  0.16621  0.44254  0.09846  1.0000
  H   H5        1.0  0.26490  0.01356  0.31251  1.0000
  H   H6        1.0  0.21071  0.07177  0.24000  1.0000
  H   H7        1.0  0.18584  0.02834  0.20846  1.0000
  C   C20       1.0  0.45415  0.16720  0.09672  1.0000
  H   H8        1.0  0.17117  0.35817  0.18599  1.0000
  H   H9        1.0  0.09658  0.38404  0.33622  1.0000
  C   C21       1.0  0.45827  0.19020  0.07365  1.0000
  H   H10       1.0  0.12162  0.07379  0.24595  1.0000
  H   H11       1.0  0.43726  0.20903  0.07447  1.0000
  C   C22       1.0  0.30677  0.15196  0.21796  1.0000
  C   C23       1.0  0.33658  0.28762  0.30433  1.0000
  H   H12       1.0  0.31592  0.41619  0.14997  1.0000
  H   H13       1.0  0.35327  0.16148  0.06606  1.0000
  C   C24       1.0  0.22057  0.28141  0.28314  1.0000
  C   C25       1.0  0.19785  0.25478  0.28333  1.0000
  C   C26       1.0  0.20447  0.23370  0.25819  1.0000
  C   C27       1.0  0.23394  0.23913  0.23296  1.0000
  C   C28       1.0  0.25699  0.26558  0.23305  1.0000
  C   C29       1.0  0.25005  0.28676  0.25792  1.0000
  H   H14       1.0  0.17512  0.25048  0.30275  1.0000
  H   H15       1.0  0.18648  0.21327  0.25819  1.0000
  H   H16       1.0  0.28007  0.26970  0.21389  1.0000
  H   H17       1.0  0.26772  0.30732  0.25771  1.0000
  H   H18       1.0  0.31175  0.21852  0.33269  1.0000
  C   C30       1.0  0.46334  0.18763  0.32081  1.0000
  C   C31       1.0  0.44291  0.16201  0.33238  1.0000
  C   C32       1.0  0.46207  0.13420  0.32835  1.0000
  C   C33       1.0  0.25010  0.14454  0.25823  1.0000
  H   H19       1.0  0.41275  0.14567  0.22569  1.0000
  C   C34       1.0  0.34928  0.15241  0.20893  1.0000
  C   C35       1.0  0.42847  0.33082  0.21287  1.0000
  C   C36       1.0  0.42151  0.30985  0.18806  1.0000
  C   C37       1.0  0.44858  0.28536  0.18500  1.0000
  S   S15       1.0  0.05809  0.40224  0.09612  1.0000
  H   H20       1.0  0.40782  0.34984  0.21526  1.0000
  H   H21       1.0  0.44354  0.26923  0.16565  1.0000
  H   H22       1.0  0.38818  0.29718  0.27139  1.0000
  S   S16       1.0  0.09810  0.29027  0.35008  1.0000
  S   S17       1.0  0.06043  0.05740  0.14660  1.0000
  H   H23       1.0  0.28326  0.15695  0.19944  1.0000
  C   C38       1.0  0.02227  0.05744  0.17801  1.0000
  H   H24       1.0  0.21470  0.33821  0.02888  1.0000
  H   H25       1.0  0.39050  0.13256  0.28298  1.0000
  C   C39       1.0  0.13845  0.00910  0.31203  1.0000
  H   H26       1.0  0.25553  0.08461  0.05219  1.0000
  H   H27       1.0  0.14007  0.30943  0.06046  1.0000
  H   H28       1.0  0.23986  0.96977  0.28057  1.0000
  C   C40       1.0  0.37968  0.14563  0.23246  1.0000
  H   H29       1.0  0.35850  0.15779  0.18376  1.0000
  H   H30       1.0  0.37318  0.20599  0.29796  1.0000
  C   C41       1.0  0.48182  0.14290  0.09531  1.0000
  N   N3        1.0  0.38428  0.25088  0.28280  1.0000
  H   H31       1.0  0.26414  0.43050  0.14285  1.0000
  C   C42       1.0  0.46182  0.32715  0.23493  1.0000
  C   C43       1.0  0.48272  0.28208  0.20671  1.0000
  N   N4        1.0  0.10453  0.03078  0.26486  1.0000
  C   C44       1.0  0.27409  0.33808  0.18428  1.0000
  H   H32       1.0  0.09604  0.40825  0.03253  1.0000
  C   C45       1.0  0.50111  0.13200  0.31221  1.0000
  C   C46       1.0  0.08269  0.00498  0.25993  1.0000
  H   H33       1.0  0.30980  0.17811  0.04517  1.0000
  H   H34       1.0  0.12204  0.96355  0.32297  1.0000
  H   H35       1.0  0.49587  0.07235  0.07404  1.0000
  S   S18       1.0  0.08850  0.97640  0.17358  1.0000
  C   C47       1.0  0.23026  0.01245  0.03557  1.0000
  C   C48       1.0  0.31488  0.26546  0.32157  1.0000
  H   H36       1.0  0.05374  0.34072  0.31060  1.0000
  C   C49       1.0  0.24182  0.29429  0.03322  1.0000
  H   H37       1.0  0.32604  0.31057  0.30581  1.0000
  H   H38       1.0  0.21599  0.04182  0.07606  1.0000
  H   H39       1.0  0.29449  0.31909  0.18837  1.0000
  H   H40       1.0  0.28621  0.43261  0.18359  1.0000
  H   H41       1.0  0.08204  0.34648  0.05680  1.0000
  H   H42       1.0  0.21705  0.31404  0.19521  1.0000
  H   H43       1.0  0.23575  0.12394  0.24828  1.0000
  H   H44       1.0  0.44912  0.20924  0.32452  1.0000
  H   H45       1.0  0.41460  0.24971  0.23617  1.0000
  H   H46       1.0  0.14866  0.05378  0.29513  1.0000
  H   H47       1.0  0.50361  0.26334  0.20410  1.0000
  C   C50       1.0  0.48994  0.18899  0.04941  1.0000
  C   C51       1.0  0.28407  0.41857  0.16108  1.0000
  H   H48       1.0  0.31501  0.13194  0.29764  1.0000
  S   S19       1.0  0.39262  0.16510  0.35029  1.0000
  C   C52       1.0  0.37142  0.27989  0.28487  1.0000
  H   H49       1.0  0.25439  0.29810  0.05760  1.0000
  H   H50       1.0  0.44895  0.25601  0.27092  1.0000
  H   H51       1.0  0.20296  0.40635  0.16990  1.0000
  H   H52       1.0  0.32039  0.13910  0.03933  1.0000
  H   H53       1.0  0.32511  0.36742  0.17229  1.0000
  H   H54       1.0  0.42866  0.21946  0.26299  1.0000
  H   H55       1.0  0.24496  0.14466  0.28541  1.0000
  C   C53       1.0  0.09794  0.05594  0.24235  1.0000
  C   C54       1.0  0.20495  0.35999  0.18285  1.0000
  C   C55       1.0  0.32820  0.23594  0.31924  1.0000
  C   C56       1.0  0.11689  0.98251  0.30681  1.0000
  Fe  Fe8       1.0  0.09586  0.44471  0.09964  1.0000
  S   S20       1.0  0.19176  0.96496  0.22063  1.0000
  C   C57       1.0  0.48453  0.03780  0.03844  1.0000
  H   H56       1.0  0.07140  0.95998  0.27673  1.0000
  C   C58       1.0  0.47339  0.06265  0.05713  1.0000
  Fe  Fe9       1.0  0.29900  0.07688  0.34379  1.0000
  H   H57       1.0  0.37332  0.07114  0.03013  1.0000
  H   H58       1.0  0.28755  0.27119  0.33647  1.0000
  H   H59       1.0  0.47906  0.12517  0.11333  1.0000
  C   C59       1.0  0.42088  0.24355  0.26223  1.0000
  H   H60       1.0  0.06608  0.06551  0.24628  1.0000
  H   H61       1.0  0.46665  0.34333  0.25430  1.0000
  C   C60       1.0  0.48917  0.30289  0.23194  1.0000
  H   H62       1.0  0.10086  0.04850  0.21624  1.0000
  H   H63       1.0  0.16091  0.01091  0.33198  1.0000
  S   S21       1.0  0.20330  0.98120  0.05147  1.0000
  C   C61       1.0  0.25434  0.06374  0.03895  1.0000
  H   H64       1.0  0.49304  0.20698  0.03172  1.0000
  H   H65       1.0  0.01476  0.96210  0.32958  1.0000
  H   H66       1.0  0.42389  0.09365  0.06915  1.0000
  H   H67       1.0  0.02403  0.10515  0.18268  1.0000
  C   C62       1.0  0.08402  0.32832  0.03920  1.0000
  C   C63       1.0  0.51346  0.14165  0.07098  1.0000
  C   C64       1.0  0.33523  0.16126  0.04263  1.0000
  H   H68       1.0  0.44684  0.11435  0.33758  1.0000
  C   C65       1.0  0.07661  0.37025  0.35167  1.0000
  H   H69       1.0  0.01711  0.44953  0.05903  1.0000
  Fe  Fe10      1.0  0.16595  0.30235  0.35515  1.0000
  C   C66       1.0  0.40475  0.06191  0.03208  1.0000
  Fe  Fe11      1.0  0.10652  0.26704  0.39846  1.0000
  S   S22       1.0  0.08884  0.30627  0.42922  1.0000
  C   C67       1.0  0.16316  0.14932  0.47119  1.0000
  Fe  Fe12      1.0  0.15725  0.31634  0.42798  1.0000
  S   S23       1.0  0.19183  0.33230  0.47287  1.0000
  S   S24       1.0  0.17615  0.27508  0.40085  1.0000
  Fe  Fe13      1.0  0.30919  0.08961  0.41770  1.0000
  C   C68       1.0  0.43185  0.03393  0.50074  1.0000
  S   S25       1.0  0.27953  0.09667  0.46815  1.0000
  H   H70       1.0  0.14455  0.12911  0.47234  1.0000
  Fe  Fe14      1.0  0.37693  0.05632  0.38108  1.0000
  S   S26       1.0  0.37891  0.09669  0.41320  1.0000
  C   C69       1.0  0.46192  0.04716  0.52104  1.0000
  C   C70       1.0  0.20259  0.15047  0.48621  1.0000
  C   C71       1.0  0.46537  0.02255  0.41535  1.0000
  C   C72       1.0  0.47997  0.05022  0.42645  1.0000
  C   C73       1.0  0.26791  0.17605  0.50016  1.0000
  H   H71       1.0  0.46548  0.07049  0.41766  1.0000
  C   C74       1.0  0.41538  0.08900  0.52879  1.0000
  C   C75       1.0  0.20586  0.02005  0.51621  1.0000
  C   C76       1.0  0.21350  0.04625  0.53376  1.0000
  C   C77       1.0  0.23650  0.06953  0.51894  1.0000
  C   C78       1.0  0.25153  0.06686  0.48640  1.0000
  C   C79       1.0  0.24387  0.04063  0.46897  1.0000
  C   C80       1.0  0.22129  0.01729  0.48386  1.0000
  H   H72       1.0  0.20194  0.04848  0.55880  1.0000
  H   H73       1.0  0.24274  0.08955  0.53284  1.0000
  H   H74       1.0  0.25483  0.03836  0.44387  1.0000
  H   H75       1.0  0.21538  0.99713  0.47010  1.0000
  C   C81       1.0  0.20440  0.30230  0.49900  1.0000
  C   C82       1.0  0.23924  0.30398  0.51998  1.0000
  C   C83       1.0  0.24927  0.28002  0.54095  1.0000
  C   C84       1.0  0.22432  0.25440  0.54099  1.0000
  C   C85       1.0  0.18917  0.25296  0.52039  1.0000
  C   C86       1.0  0.17950  0.27668  0.49917  1.0000
  H   H76       1.0  0.25894  0.32358  0.51956  1.0000
  H   H77       1.0  0.27658  0.28120  0.55669  1.0000
  H   H78       1.0  0.16942  0.23337  0.52072  1.0000
  H   H79       1.0  0.15239  0.27528  0.48325  1.0000
  H   H80       1.0  0.14398  0.42282  0.48954  1.0000
  S   S27       1.0  0.42339  0.01907  0.38752  1.0000
  Fe  Fe15      1.0  0.28885  0.22726  0.60279  1.0000
  S   S28       1.0  0.29517  0.18644  0.63445  1.0000
  S   S29       1.0  0.23666  0.22332  0.56553  1.0000
  Fe  Fe16      1.0  0.35890  0.25870  0.63982  1.0000
  C   C87       1.0  0.51368  0.05159  0.44889  1.0000
  S   S30       1.0  0.39666  0.30037  0.64732  1.0000
  Fe  Fe17      1.0  0.36462  0.19298  0.62795  1.0000
  S   S31       1.0  0.40836  0.15411  0.61963  1.0000
  H   H81       1.0  0.03754  0.43250  0.54618  1.0000
  H   H82       1.0  0.47690  0.08550  0.55046  1.0000
  S   S32       1.0  0.35821  0.23166  0.59318  1.0000
  S   S33       1.0  0.28847  0.25878  0.64561  1.0000
  C   C88       1.0  0.14668  0.35049  0.56648  1.0000
  S   S34       1.0  0.07790  0.00821  0.58779  1.0000
  C   C89       1.0  0.14826  0.14202  0.63476  1.0000
  Fe  Fe18      1.0  0.15340  0.98167  0.65723  1.0000
  S   S35       1.0  0.16684  0.02266  0.62727  1.0000
  C   C90       1.0  0.18753  0.16549  0.67706  1.0000
  Fe  Fe19      1.0  0.09781  0.03157  0.63416  1.0000
  H   H83       1.0  0.14515  0.41232  0.68613  1.0000
  Fe  Fe20      1.0  0.14623  0.99553  0.58368  1.0000
  S   S36       1.0  0.17757  0.99015  0.53377  1.0000
  N   N5        1.0  0.16798  0.14080  0.66467  1.0000
  H   H84       1.0  0.12923  0.33319  0.57927  1.0000
  H   H85       1.0  0.35615  0.08607  0.50385  1.0000
  C   C91       1.0  0.45194  0.15961  0.59331  1.0000
  C   C92       1.0  0.45885  0.27157  0.68295  1.0000
  H   H86       1.0  0.09464  0.40671  0.50193  1.0000
  C   C93       1.0  0.45580  0.18511  0.57364  1.0000
  N   N6        1.0  0.04328  0.35885  0.40827  1.0000
  H   H87       1.0  0.43189  0.20206  0.57447  1.0000
  H   H88       1.0  0.16107  0.21951  0.44010  1.0000
  H   H89       1.0  0.21418  0.13094  0.49897  1.0000
  H   H90       1.0  0.34360  0.01827  0.48885  1.0000
  H   H91       1.0  0.13384  0.16901  0.59202  1.0000
  C   C94       1.0  0.49041  0.18844  0.55225  1.0000
  H   H92       1.0  0.11857  0.43533  0.52677  1.0000
  N   N7        1.0  0.14750  0.39315  0.53058  1.0000
  C   C95       1.0  0.38596  0.07509  0.50838  1.0000
  S   S37       1.0  0.07784  0.22229  0.40875  1.0000
  H   H93       1.0  0.06565  0.37373  0.45475  1.0000
  S   S38       1.0  0.30777  0.04734  0.38820  1.0000
  Fe  Fe21      1.0  0.36459  0.12138  0.36643  1.0000
  N   N8        1.0  0.39472  0.04810  0.49427  1.0000
  H   H94       1.0  0.44892  0.25117  0.67131  1.0000
  H   H95       1.0  0.49214  0.25118  0.57408  1.0000
  H   H96       1.0  0.29042  0.16279  0.48510  1.0000
  C   C96       1.0  0.43854  0.29845  0.67545  1.0000
  Fe  Fe22      1.0  0.07238  0.96791  0.62034  1.0000
  C   C97       1.0  0.48455  0.99649  0.42667  1.0000
  Fe  Fe23      1.0  0.08966  0.44525  0.60870  1.0000
  C   C98       1.0  0.07180  0.37673  0.38832  1.0000
  S   S39       1.0  0.29501  0.11867  0.37406  1.0000
  C   C99       1.0  0.36331  0.03343  0.47358  1.0000
  C   C100      1.0  0.18857  0.19206  0.65897  1.0000
  N   N9        1.0  0.22640  0.17579  0.48467  1.0000
  H   H97       1.0  0.48040  0.11790  0.60691  1.0000
  H   H98       1.0  0.20753  0.41238  0.52048  1.0000
  H   H99       1.0  0.43870  0.01242  0.48980  1.0000
  S   S40       1.0  0.05000  0.40363  0.61002  1.0000
  H   H100      1.0  0.17050  0.21368  0.61369  1.0000
  H   H101      1.0  0.47801  0.29540  0.60900  1.0000
  C   C101      1.0  0.17272  0.19996  0.45288  1.0000
  H   H102      1.0  0.11745  0.17388  0.44292  1.0000
  H   H103      1.0  0.23111  0.22031  0.46643  1.0000
  H   H104      1.0  0.09162  0.37060  0.54589  1.0000
  C   C102      1.0  0.21234  0.37425  0.55231  1.0000
  H   H105      1.0  0.40854  0.11050  0.53988  1.0000
  H   H106      1.0  0.24630  0.37541  0.55383  1.0000
  C   C103      1.0  0.21223  0.20024  0.46786  1.0000
  H   H107      1.0  0.20720  0.33525  0.58317  1.0000
  C   C104      1.0  0.02712  0.22292  0.42658  1.0000
  H   H108      1.0  0.26606  0.16638  0.52542  1.0000
  H   H109      1.0  0.49279  0.20792  0.53660  1.0000
  H   H110      1.0  0.13183  0.12266  0.62533  1.0000
  S   S41       1.0  0.07728  0.07649  0.65220  1.0000
  C   C105      1.0  0.16943  0.19329  0.62813  1.0000
  H   H111      1.0  0.20447  0.21149  0.66875  1.0000
  C   C106      1.0  0.12559  0.37161  0.54730  1.0000
  S   S42       1.0  0.36964  0.22036  0.67398  1.0000
  C   C107      1.0  0.12489  0.41553  0.51120  1.0000
  C   C108      1.0  0.50794  0.28384  0.61070  1.0000
  C   C109      1.0  0.19035  0.35180  0.56885  1.0000
  H   H112      1.0  0.49168  0.03607  0.52563  1.0000
  S   S43       1.0  0.08610  0.99244  0.66712  1.0000
  Fe  Fe24      1.0  0.29939  0.21834  0.67678  1.0000
  Fe  Fe25      1.0  0.07971  0.33286  0.38016  1.0000
  H   H113      1.0  0.08804  0.39555  0.39895  1.0000
  H   H114      1.0  0.28020  0.19907  0.50298  1.0000
  S   S44       1.0  0.15977  0.44190  0.60575  1.0000
  C   C110      1.0  0.19026  0.39494  0.53325  1.0000
  C   C111      1.0  0.14810  0.17433  0.45458  1.0000
  C   C112      1.0  0.48310  0.13762  0.59163  1.0000
  C   C113      1.0  0.45367  0.07494  0.53493  1.0000
  H   H115      1.0  0.47354  0.97505  0.41815  1.0000
  H   H116      1.0  0.34238  0.04993  0.46158  1.0000
  H   H117      1.0  0.37861  0.02054  0.45337  1.0000
  S   S45       1.0  0.15144  0.34431  0.38269  1.0000
  C   C114      1.0  0.14901  0.16818  0.61592  1.0000
  H   H118      1.0  0.02473  0.17529  0.43241  1.0000
  C   C115      1.0  0.03402  0.07383  0.67933  1.0000
  H   H119      1.0  0.16884  0.09342  0.66786  1.0000
  C   C116      1.0  0.03570  0.36789  0.44252  1.0000
  H   H120      1.0  0.01900  0.27030  0.42327  1.0000
  C   C117      1.0  0.01890  0.33438  0.39480  1.0000
  H   H121      1.0  0.02064  0.34977  0.45714  1.0000
  C   C118      1.0  0.16620  0.11327  0.68415  1.0000
  H   H122      1.0  0.43722  0.34569  0.68412  1.0000
  H   H123      1.0  0.01896  0.96434  0.55839  1.0000
  C   C119      1.0  0.01770  0.39533  0.57602  1.0000
  C   C120      1.0  0.02268  0.32685  0.35867  1.0000
  C   C121      1.0  0.01797  0.41293  0.54748  1.0000
  C   C122      1.0  0.45257  0.32482  0.68992  1.0000
  Fe  Fe26      1.0  0.08034  0.29588  0.87812  1.0000
  S   S46       1.0  0.07345  0.33398  0.91319  1.0000
  H   H124      1.0  0.19230  0.11203  0.70220  1.0000
  Fe  Fe27      1.0  0.15390  0.32361  0.84147  1.0000
  S   S47       1.0  0.15279  0.36394  0.87417  1.0000
  S   S48       1.0  0.19885  0.32669  0.79814  1.0000
  Fe  Fe28      1.0  0.14379  0.33180  0.91615  1.0000
  S   S49       1.0  0.17239  0.34035  0.96635  1.0000
  Fe  Fe29      1.0  0.08294  0.36221  0.86816  1.0000
  H   H125      1.0  0.03590  0.40527  0.99354  1.0000
  S   S50       1.0  0.15041  0.29133  0.88402  1.0000
  S   S51       1.0  0.08439  0.32426  0.83253  1.0000
  Fe  Fe30      1.0  0.38098  0.12042  0.88791  1.0000
  S   S52       1.0  0.37763  0.08262  0.85240  1.0000
  S   S53       1.0  0.41389  0.16328  0.87516  1.0000
  Fe  Fe31      1.0  0.32948  0.08784  0.94008  1.0000
  S   S54       1.0  0.32304  0.04773  0.90820  1.0000
  S   S55       1.0  0.30348  0.09155  0.99196  1.0000
  Fe  Fe32      1.0  0.39086  0.05502  0.89697  1.0000
  S   S56       1.0  0.43242  0.01492  0.89538  1.0000
  Fe  Fe33      1.0  0.30583  0.07864  0.86365  1.0000
  S   S57       1.0  0.22645  0.06656  0.80567  1.0000
  S   S58       1.0  0.39870  0.09303  0.93189  1.0000
  S   S59       1.0  0.31215  0.11933  0.89949  1.0000
  H   H126      1.0  0.17307  0.02865  0.70105  1.0000
  C   C123      1.0  0.05748  0.30218  0.99170  1.0000
  C   C124      1.0  0.47582  0.01619  0.92183  1.0000
  H   H127      1.0  0.21050  0.39297  0.70574  1.0000
  H   H128      1.0  0.43470  0.18415  0.93928  1.0000
  H   H129      1.0  0.09482  0.96313  0.74498  1.0000
  H   H130      1.0  0.04823  0.11528  0.70337  1.0000
  C   C125      1.0  0.19181  0.42087  0.94793  1.0000
  C   C126      1.0  0.36897  0.29954  0.74648  1.0000
  H   H131      1.0  0.20952  0.21830  0.78124  1.0000
  H   H132      1.0  0.13115  0.00544  0.77076  1.0000
  C   C127      1.0  0.09278  0.39062  0.76891  1.0000
  C   C128      1.0  0.45532  0.02552  0.01668  1.0000
  C   C129      1.0  0.27484  0.06107  0.00829  1.0000
  C   C130      1.0  0.27301  0.03396  0.99148  1.0000
  C   C131      1.0  0.25102  0.00977  0.00510  1.0000
  C   C132      1.0  0.48999  0.04312  0.93503  1.0000
  C   C133      1.0  0.06779  0.39962  0.74250  1.0000
  H   H133      1.0  0.28865  0.03139  0.96809  1.0000
  H   H134      1.0  0.24996  0.98889  0.99190  1.0000
  H   H135      1.0  0.21256  0.43108  0.96678  1.0000
  C   C134      1.0  0.22336  0.98641  0.75824  1.0000
  C   C135      1.0  0.23140  0.00841  0.78191  1.0000
  C   C136      1.0  0.21926  0.03798  0.77621  1.0000
  H   H136      1.0  0.21391  0.37637  0.74597  1.0000
  H   H137      1.0  0.46426  0.00614  0.00230  1.0000
  H   H138      1.0  0.48207  0.24595  0.78607  1.0000
  H   H139      1.0  0.24587  0.00192  0.80470  1.0000
  C   C137      1.0  0.13641  0.38912  0.76483  1.0000
  C   C138      1.0  0.07680  0.98201  0.75385  1.0000
  H   H140      1.0  0.46157  0.15478  0.98667  1.0000
  H   H141      1.0  0.07867  0.06833  0.81028  1.0000
  H   H142      1.0  0.15557  0.38200  0.78550  1.0000
  C   C139      1.0  0.21600  0.29401  0.77814  1.0000
  C   C140      1.0  0.20405  0.26568  0.78915  1.0000
  C   C141      1.0  0.21870  0.24014  0.77254  1.0000
  C   C142      1.0  0.24506  0.24284  0.74477  1.0000
  C   C143      1.0  0.25695  0.27120  0.73390  1.0000
  C   C144      1.0  0.24254  0.29664  0.75054  1.0000
  H   H143      1.0  0.18366  0.26344  0.81049  1.0000
  H   H144      1.0  0.19254  0.43571  0.92597  1.0000
  H   H145      1.0  0.25200  0.31847  0.74196  1.0000
  C   C145      1.0  0.20300  0.31225  0.98518  1.0000
  S   S60       1.0  0.26365  0.21057  0.72447  1.0000
  H   H146      1.0  0.40219  0.01322  0.96960  1.0000
  C   C146      1.0  0.06760  0.40860  0.98432  1.0000
  C   C147      1.0  0.23171  0.26212  0.98615  1.0000
  C   C148      1.0  0.20933  0.28475  0.96987  1.0000
  N   N10       1.0  0.15471  0.39638  0.73524  1.0000
  H   H147      1.0  0.02398  0.96466  0.82733  1.0000
  H   H148      1.0  0.18768  0.06761  0.74261  1.0000
  H   H149      1.0  0.19697  0.28083  0.94551  1.0000
  S   S61       1.0  0.04748  0.40503  0.86011  1.0000
  C   C149      1.0  0.48109  0.18566  0.84064  1.0000
  C   C150      1.0  0.45952  0.15992  0.85054  1.0000
  C   C151      1.0  0.47416  0.13207  0.84013  1.0000
  H   H150      1.0  0.47016  0.20724  0.84884  1.0000
  H   H151      1.0  0.45832  0.11205  0.84807  1.0000
  C   C152      1.0  0.37301  0.18985  0.96071  1.0000
  H   H152      1.0  0.12583  0.24966  0.96705  1.0000
  C   C153      1.0  0.49313  0.27124  0.70481  1.0000
  H   H153      1.0  0.36570  0.00864  0.00382  1.0000
  C   C154      1.0  0.09751  0.05675  0.79100  1.0000
  C   C155      1.0  0.11604  0.41572  0.93895  1.0000
  N   N11       1.0  0.41636  0.03800  0.01321  1.0000
  H   H154      1.0  0.10376  0.07248  0.77034  1.0000
  N   N12       1.0  0.30397  0.05859  0.81992  1.0000
  C   C156      1.0  0.28066  0.04164  0.84453  1.0000
  C   C157      1.0  0.29911  0.09064  0.81590  1.0000
  C   C158      1.0  0.24930  0.05738  0.86690  1.0000
  C   C159      1.0  0.26858  0.10737  0.83765  1.0000
  C   C160      1.0  0.24338  0.09046  0.86333  1.0000
  C   C161      1.0  0.33109  0.04239  0.79671  1.0000
  H   H155      1.0  0.28521  0.01786  0.84698  1.0000
  H   H156      1.0  0.31568  0.10240  0.79640  1.0000
  H   H157      1.0  0.23068  0.04491  0.88465  1.0000
  H   H158      1.0  0.26347  0.13101  0.83398  1.0000
  H   H159      1.0  0.22026  0.10197  0.87838  1.0000
  H   H160      1.0  0.31204  0.03406  0.77582  1.0000
  H   H161      1.0  0.35616  0.05700  0.78649  1.0000
  H   H162      1.0  0.34671  0.02330  0.80912  1.0000
  C   C162      1.0  0.07496  0.41136  0.95047  1.0000
  C   C163      1.0  0.21945  0.31698  0.01686  1.0000
  C   C164      1.0  0.13057  0.40580  0.70936  1.0000
  H   H163      1.0  0.36585  0.04223  0.97931  1.0000
  C   C165      1.0  0.48604  0.32439  0.71219  1.0000
  H   H164      1.0  0.36080  0.29826  0.71984  1.0000
  H   H165      1.0  0.23645  0.24091  0.97408  1.0000
  H   H166      1.0  0.44411  0.19774  0.77945  1.0000
  C   C166      1.0  0.36830  0.24558  0.75379  1.0000
  C   C167      1.0  0.19800  0.04501  0.74698  1.0000
  C   C168      1.0  0.20061  0.39550  0.73195  1.0000
  C   C169      1.0  0.20258  0.99361  0.72894  1.0000
  C   C170      1.0  0.14193  0.41445  0.99379  1.0000
  H   H167      1.0  0.01671  0.96429  0.73918  1.0000
  C   C171      1.0  0.34738  0.18392  0.98817  1.0000
  H   H168      1.0  0.23280  0.96364  0.76288  1.0000
  C   C172      1.0  0.41433  0.17942  0.96024  1.0000
  C   C173      1.0  0.09320  0.25840  0.96904  1.0000
  C   C174      1.0  0.42958  0.27220  0.76900  1.0000
  C   C175      1.0  0.08674  0.40722  0.71244  1.0000
  C   C176      1.0  0.18979  0.02297  0.72336  1.0000
  C   C177      1.0  0.40275  0.15707  0.01369  1.0000
  H   H169      1.0  0.07854  0.38480  0.79244  1.0000
  N   N13       1.0  0.38953  0.27187  0.75684  1.0000
  S   S62       1.0  0.19068  0.96529  0.70067  1.0000
  H   H170      1.0  0.12143  0.41774  0.91257  1.0000
  H   H171      1.0  0.21426  0.41657  0.74139  1.0000
  H   H172      1.0  0.33654  0.24530  0.74438  1.0000
  H   H173      1.0  0.03399  0.30003  0.97260  1.0000
  H   H174      1.0  0.44654  0.29300  0.77165  1.0000
  N   N14       1.0  0.14883  0.41744  0.96058  1.0000
  C   C178      1.0  0.42868  0.21862  0.77357  1.0000
  N   N15       1.0  0.07515  0.03061  0.77850  1.0000
  C   C179      1.0  0.02743  0.09626  0.70267  1.0000
  H   H175      1.0  0.33975  0.30314  0.76114  1.0000
  H   H176      1.0  0.37052  0.19782  0.75909  1.0000
  H   H177      1.0  0.47546  0.06379  0.92784  1.0000
  H   H178      1.0  0.07167  0.23994  0.97598  1.0000
  H   H179      1.0  0.03385  0.40075  0.74540  1.0000
  C   C180      1.0  0.03239  0.03150  0.77527  1.0000
  H   H180      1.0  0.36101  0.20247  0.93992  1.0000
  C   C181      1.0  0.42936  0.16284  0.98680  1.0000
  C   C182      1.0  0.38747  0.21860  0.76206  1.0000
  H   H181      1.0  0.38968  0.31924  0.74963  1.0000
  C   C183      1.0  0.09733  0.00622  0.76816  1.0000
  C   C184      1.0  0.10125  0.41019  0.00617  1.0000
  C   C185      1.0  0.44988  0.24558  0.77730  1.0000
  H   H182      1.0  0.12806  0.05045  0.80232  1.0000
  C   C186      1.0  0.38607  0.02478  0.99042  1.0000
  S   S63       1.0  0.03869  0.25561  0.88094  1.0000
  H   H183      1.0  0.20270  0.16482  0.70099  1.0000
  C   C187      1.0  0.49585  0.98962  0.93051  1.0000
  H   H184      1.0  0.27765  0.27365  0.71290  1.0000
  H   H185      1.0  0.04909  0.41015  0.93317  1.0000
  H   H186      1.0  0.48512  0.96873  0.92031  1.0000
  C   C188      1.0  0.50940  0.13009  0.81915  1.0000
  N   N16       1.0  0.09017  0.28245  0.99336  1.0000
  C   C189      1.0  0.50662  0.29772  0.71962  1.0000
  H   H187      1.0  0.20474  0.39868  0.94123  1.0000
  C   C190      1.0  0.24802  0.26675  0.01786  1.0000
  H   H188      1.0  0.16799  0.41549  0.01092  1.0000
  C   C191      1.0  0.03320  0.98274  0.75046  1.0000
  H   H189      1.0  0.49614  0.34493  0.72362  1.0000
  H   H190      1.0  0.08453  0.26654  0.94404  1.0000
  H   H191      1.0  0.13563  0.11196  0.69749  1.0000
  H   H192      1.0  0.31536  0.19234  0.98857  1.0000
  H   H193      1.0  0.02854  0.34141  0.01251  1.0000
  C   C192      1.0  0.05412  0.32555  0.01434  1.0000
  H   H194      1.0  0.50830  0.25044  0.71072  1.0000
  N   N17       1.0  0.36259  0.16797  0.01434  1.0000
  C   C193      1.0  0.11886  0.28440  0.01830  1.0000
  H   H195      1.0  0.14450  0.26853  0.02001  1.0000
  H   H196      1.0  0.01467  0.05101  0.78289  1.0000
  H   H197      1.0  0.06768  0.41416  0.69162  1.0000
  Fe  Fe34      1.0  0.17083  0.83223  0.32775  1.0000
  H   H198      1.0  0.31351  0.79224  0.27660  1.0000
  S   S64       1.0  0.21523  0.83540  0.28390  1.0000
  H   H199      1.0  0.41367  0.70960  0.25899  1.0000
  C   C194      1.0  0.20399  0.88633  0.20673  1.0000
  S   S65       1.0  0.10100  0.83419  0.32030  1.0000
  Fe  Fe35      1.0  0.31132  0.73945  0.07746  1.0000
  S   S66       1.0  0.30997  0.69926  0.11073  1.0000
  H   H200      1.0  0.06432  0.47235  0.23557  1.0000
  Fe  Fe36      1.0  0.37133  0.77173  0.12302  1.0000
  S   S67       1.0  0.37471  0.73419  0.15922  1.0000
  S   S68       1.0  0.40728  0.81362  0.13303  1.0000
  Fe  Fe37      1.0  0.37962  0.70552  0.11422  1.0000
  S   S69       1.0  0.42297  0.66579  0.11306  1.0000
  Fe  Fe38      1.0  0.30509  0.73196  0.15247  1.0000
  S   S70       1.0  0.26562  0.72289  0.19797  1.0000
  S   S71       1.0  0.38175  0.74337  0.07822  1.0000
  S   S72       1.0  0.30077  0.77182  0.11908  1.0000
  H   H201      1.0  0.30633  0.74629  0.30956  1.0000
  S   S73       1.0  0.09216  0.48227  0.06328  1.0000
  H   H202      1.0  0.29842  0.66300  0.17615  1.0000
  Fe  Fe39      1.0  0.16455  0.47543  0.14017  1.0000
  S   S74       1.0  0.16666  0.51526  0.10663  1.0000
  Fe  Fe40      1.0  0.36400  0.61373  0.35009  1.0000
  Fe  Fe41      1.0  0.09606  0.51120  0.10828  1.0000
  H   H203      1.0  0.45043  0.70583  0.32339  1.0000
  Fe  Fe42      1.0  0.16270  0.48239  0.06486  1.0000
  H   H204      1.0  0.13363  0.88833  0.17169  1.0000
  C   C195      1.0  0.49404  0.63208  0.03884  1.0000
  H   H205      1.0  0.35703  0.70465  0.30127  1.0000
  C   C196      1.0  0.09505  0.54286  0.21784  1.0000
  S   S75       1.0  0.36639  0.57665  0.31332  1.0000
  S   S76       1.0  0.09430  0.47365  0.14463  1.0000
  Fe  Fe43      1.0  0.29670  0.57322  0.32139  1.0000
  S   S77       1.0  0.25310  0.57691  0.27745  1.0000
  C   C197      1.0  0.49191  0.83673  0.20191  1.0000
  N   N18       1.0  0.29335  0.64864  0.22627  1.0000
  H   H206      1.0  0.50256  0.85722  0.21313  1.0000
  H   H207      1.0  0.01891  0.86656  0.32626  1.0000
  C   C198      1.0  0.21928  0.49842  0.21021  1.0000
  C   C199      1.0  0.20683  0.52741  0.20227  1.0000
  C   C200      1.0  0.21753  0.55122  0.22309  1.0000
  C   C201      1.0  0.24117  0.54631  0.25179  1.0000
  C   C202      1.0  0.25412  0.51738  0.25951  1.0000
  C   C203      1.0  0.24306  0.49350  0.23882  1.0000
  H   H208      1.0  0.18894  0.53149  0.18011  1.0000
  H   H209      1.0  0.20759  0.57355  0.21688  1.0000
  C   C204      1.0  0.37023  0.80349  0.22867  1.0000
  H   H210      1.0  0.21389  0.90635  0.19252  1.0000
  C   C205      1.0  0.45502  0.66294  0.07768  1.0000
  C   C206      1.0  0.46903  0.63488  0.06735  1.0000
  C   C207      1.0  0.10447  0.91831  0.03249  1.0000
  C   C208      1.0  0.46690  0.68826  0.05979  1.0000
  H   H211      1.0  0.45995  0.61521  0.08113  1.0000
  H   H212      1.0  0.20546  0.86637  0.19064  1.0000
  H   H213      1.0  0.37486  0.63426  0.27706  1.0000
  H   H214      1.0  0.41491  0.64704  0.22605  1.0000
  C   C209      1.0  0.08702  0.89478  0.20954  1.0000
  C   C210      1.0  0.01595  0.54943  0.14636  1.0000
  C   C211      1.0  0.22697  0.80389  0.25972  1.0000
  C   C212      1.0  0.25097  0.80761  0.23081  1.0000
  C   C213      1.0  0.26261  0.78291  0.21162  1.0000
  C   C214      1.0  0.25032  0.75428  0.22119  1.0000
  C   C215      1.0  0.22629  0.75052  0.25009  1.0000
  C   C216      1.0  0.21456  0.77527  0.26932  1.0000
  H   H215      1.0  0.26095  0.82964  0.22337  1.0000
  H   H216      1.0  0.28123  0.78605  0.18949  1.0000
  H   H217      1.0  0.21661  0.72844  0.25763  1.0000
  H   H218      1.0  0.19611  0.77220  0.29160  1.0000
  H   H219      1.0  0.05832  0.58207  0.22834  1.0000
  C   C217      1.0  0.46335  0.68532  0.31369  1.0000
  C   C218      1.0  0.44307  0.65823  0.32028  1.0000
  C   C219      1.0  0.02715  0.54190  0.24472  1.0000
  H   H220      1.0  0.51048  0.76227  0.20291  1.0000
  C   C220      1.0  0.25045  0.79228  0.02394  1.0000
  H   H221      1.0  0.22692  0.88289  0.22702  1.0000
  C   C221      1.0  0.45997  0.83757  0.17832  1.0000
  C   C222      1.0  0.44605  0.81132  0.16356  1.0000
  C   C223      1.0  0.46423  0.78408  0.17255  1.0000
  H   H222      1.0  0.09174  0.92258  0.05691  1.0000
  H   H223      1.0  0.34657  0.82064  0.23558  1.0000
  H   H224      1.0  0.45445  0.76379  0.16063  1.0000
  H   H225      1.0  0.23403  0.65050  0.20162  1.0000
  H   H226      1.0  0.29714  0.63502  0.27664  1.0000
  H   H227      1.0  0.44484  0.61079  0.31293  1.0000
  H   H228      1.0  0.06102  0.89497  0.19230  1.0000
  C   C224      1.0  0.31440  0.64099  0.25438  1.0000
  H   H229      1.0  0.41905  0.75578  0.22572  1.0000
  N   N19       1.0  0.36646  0.77654  0.24898  1.0000
  H   H230      1.0  0.48593  0.80205  0.09093  1.0000
  H   H231      1.0  0.37609  0.66145  0.17522  1.0000
  S   S78       1.0  0.05536  0.55145  0.11587  1.0000
  C   C225      1.0  0.06292  0.49645  0.23425  1.0000
  C   C226      1.0  0.49693  0.63253  0.28860  1.0000
  Fe  Fe44      1.0  0.09106  0.94900  0.12746  1.0000
  H   H232      1.0  0.44608  0.85869  0.17144  1.0000
  C   C227      1.0  0.35906  0.65570  0.19765  1.0000
  C   C228      1.0  0.31508  0.65623  0.19821  1.0000
  H   H233      1.0  0.23401  0.63032  0.23989  1.0000
  H   H234      1.0  0.27230  0.51336  0.28156  1.0000
  C   C229      1.0  0.49657  0.78327  0.19606  1.0000
  C   C230      1.0  0.46007  0.63180  0.30783  1.0000
  N   N20       1.0  0.16121  0.89052  0.21952  1.0000
  C   C231      1.0  0.12823  0.89100  0.19799  1.0000
  C   C232      1.0  0.15440  0.89444  0.25262  1.0000
  C   C233      1.0  0.11363  0.89810  0.26501  1.0000
  C   C234      1.0  0.07972  0.89812  0.24334  1.0000
  H   H235      1.0  0.25282  0.47115  0.24515  1.0000
  H   H236      1.0  0.18056  0.89454  0.26967  1.0000
  S   S79       1.0  0.05081  0.90821  0.12036  1.0000
  H   H237      1.0  0.10852  0.90063  0.29129  1.0000
  H   H238      1.0  0.45388  0.54368  0.03663  1.0000
  H   H239      1.0  0.04789  0.90065  0.25276  1.0000
  H   H240      1.0  0.45689  0.70999  0.06792  1.0000
  C   C235      1.0  0.33546  0.77413  0.27242  1.0000
  H   H241      1.0  0.12405  0.49994  0.21093  1.0000
  N   N21       1.0  0.02846  0.51145  0.24589  1.0000
  C   C236      1.0  0.33135  0.74818  0.29133  1.0000
  C   C237      1.0  0.38079  0.64770  0.22615  1.0000
  C   C238      1.0  0.24732  0.65005  0.22692  1.0000
  H   H242      1.0  0.23701  0.67064  0.23979  1.0000
  C   C239      1.0  0.39136  0.72755  0.26279  1.0000
  C   C240      1.0  0.09677  0.51191  0.22020  1.0000
  H   H243      1.0  0.16854  0.92217  0.04819  1.0000
  H   H244      1.0  0.36544  0.79797  0.20220  1.0000
  C   C241      1.0  0.35837  0.64045  0.25476  1.0000
  H   H245      1.0  0.40196  0.81349  0.23155  1.0000
  H   H246      1.0  0.26257  0.79536  0.04859  1.0000
  C   C242      1.0  0.35959  0.72479  0.28650  1.0000
  C   C243      1.0  0.39431  0.75373  0.24412  1.0000
  H   H247      1.0  0.50371  0.61030  0.03059  1.0000
  C   C244      1.0  0.50026  0.68604  0.29448  1.0000
  H   H248      1.0  0.50142  0.51212  0.32166  1.0000
  S   S80       1.0  0.16097  0.94346  0.12952  1.0000
  S   S81       1.0  0.06918  0.91526  0.35154  1.0000
  S   S82       1.0  0.20481  0.46782  0.18535  1.0000
  C   C245      1.0  0.06013  0.55801  0.23028  1.0000
  H   H249      1.0  0.12069  0.55507  0.20634  1.0000
  C   C246      1.0  0.02143  0.91435  0.32992  1.0000
  C   C247      1.0  0.51067  0.80970  0.21058  1.0000
  S   S83       1.0  0.29401  0.61264  0.35558  1.0000
  S   S84       1.0  0.39590  0.65816  0.34322  1.0000
  C   C248      1.0  0.49199  0.68548  0.03132  1.0000
  H   H250      1.0  0.50972  0.61209  0.27867  1.0000
  S   S85       1.0  0.27842  0.73404  0.02832  1.0000
  H   H251      1.0  0.19512  0.54196  0.03097  1.0000
  H   H252      1.0  0.51087  0.75134  0.07577  1.0000
  C   C249      1.0  0.14797  0.91812  0.02740  1.0000
  H   H253      1.0  0.01483  0.95708  0.08262  1.0000
  H   H254      1.0  0.50609  0.70270  0.52409  1.0000
  S   S86       1.0  0.09262  0.84132  0.40155  1.0000
  H   H255      1.0  0.15875  0.90797  0.42869  1.0000
  Fe  Fe45      1.0  0.16288  0.83822  0.40306  1.0000
  S   S87       1.0  0.19347  0.84503  0.45278  1.0000
  C   C250      1.0  0.36312  0.52623  0.45801  1.0000
  Fe  Fe46      1.0  0.30426  0.57978  0.39661  1.0000
  C   C251      1.0  0.06183  0.82663  0.49990  1.0000
  S   S88       1.0  0.27512  0.58620  0.44734  1.0000
  H   H256      1.0  0.11739  0.81455  0.47262  1.0000
  C   C252      1.0  0.36847  0.57014  0.49321  1.0000
  S   S89       1.0  0.37435  0.58467  0.39425  1.0000
  H   H257      1.0  0.34126  0.65024  0.66230  1.0000
  C   C253      1.0  0.13653  0.92377  0.50792  1.0000
  C   C254      1.0  0.45469  0.50925  0.39107  1.0000
  H   H258      1.0  0.36019  0.48669  0.42786  1.0000
  N   N22       1.0  0.15979  0.91841  0.48007  1.0000
  C   C255      1.0  0.46548  0.78025  0.66952  1.0000
  C   C256      1.0  0.50349  0.48161  0.42533  1.0000
  C   C257      1.0  0.21331  0.50789  0.50239  1.0000
  C   C258      1.0  0.21488  0.53615  0.51679  1.0000
  C   C259      1.0  0.23368  0.56003  0.49959  1.0000
  C   C260      1.0  0.25064  0.55591  0.46782  1.0000
  C   C261      1.0  0.24880  0.52770  0.45339  1.0000
  C   C262      1.0  0.23046  0.50378  0.47070  1.0000
  H   H259      1.0  0.20178  0.53956  0.54120  1.0000
  H   H260      1.0  0.23491  0.58175  0.51099  1.0000
  H   H261      1.0  0.26133  0.52423  0.42885  1.0000
  H   H262      1.0  0.22926  0.48202  0.45935  1.0000
  C   C263      1.0  0.21352  0.81376  0.47412  1.0000
  C   C264      1.0  0.20849  0.78495  0.46178  1.0000
  C   C265      1.0  0.22393  0.76038  0.47956  1.0000
  C   C266      1.0  0.24484  0.76440  0.50966  1.0000
  C   C267      1.0  0.24994  0.79321  0.52201  1.0000
  C   C268      1.0  0.23415  0.81780  0.50434  1.0000
  H   H263      1.0  0.19297  0.78157  0.43846  1.0000
  H   H264      1.0  0.22000  0.73817  0.46980  1.0000
  H   H265      1.0  0.26596  0.79655  0.54519  1.0000
  H   H266      1.0  0.23818  0.84000  0.51408  1.0000
  H   H267      1.0  0.31304  0.64795  0.43117  1.0000
  C   C269      1.0  0.37065  0.65475  0.45750  1.0000
  Fe  Fe47      1.0  0.30275  0.73686  0.57750  1.0000
  S   S90       1.0  0.30164  0.69623  0.61012  1.0000
  S   S91       1.0  0.26367  0.73279  0.53104  1.0000
  Fe  Fe48      1.0  0.36945  0.76603  0.61994  1.0000
  S   S92       1.0  0.37370  0.72771  0.65505  1.0000
  S   S93       1.0  0.40757  0.80735  0.62830  1.0000
  Fe  Fe49      1.0  0.37178  0.69978  0.60942  1.0000
  S   S94       1.0  0.40956  0.65753  0.60507  1.0000
  Fe  Fe50      1.0  0.30341  0.72807  0.65269  1.0000
  C   C270      1.0  0.14035  0.91285  0.45066  1.0000
  S   S95       1.0  0.37328  0.73814  0.57403  1.0000
  S   S96       1.0  0.29874  0.76861  0.62034  1.0000
  C   C271      1.0  0.50057  0.62894  0.54245  1.0000
  S   S97       1.0  0.08501  0.48254  0.57211  1.0000
  H   H268      1.0  0.08023  0.74127  0.44206  1.0000
  Fe  Fe51      1.0  0.16079  0.47528  0.64694  1.0000
  S   S98       1.0  0.16266  0.51480  0.61286  1.0000
  H   H269      1.0  0.22099  0.91662  0.45762  1.0000
  Fe  Fe52      1.0  0.09210  0.51205  0.61632  1.0000
  H   H270      1.0  0.03839  0.91946  0.47544  1.0000
  Fe  Fe53      1.0  0.15577  0.48157  0.57179  1.0000
  S   S99       1.0  0.19087  0.47702  0.52315  1.0000
  S   S100      1.0  0.09088  0.47493  0.65314  1.0000
  C   C272      1.0  0.09645  0.91323  0.44851  1.0000
  H   H271      1.0  0.45828  0.60956  0.57835  1.0000
  C   C273      1.0  0.45013  0.65710  0.57534  1.0000
  C   C274      1.0  0.46873  0.62994  0.56659  1.0000
  H   H272      1.0  0.15201  0.92824  0.53121  1.0000
  C   C275      1.0  0.46376  0.68334  0.56001  1.0000
  C   C276      1.0  0.40956  0.48418  0.46401  1.0000
  H   H273      1.0  0.44996  0.70441  0.56682  1.0000
  H   H274      1.0  0.07458  0.92884  0.52888  1.0000
  H   H275      1.0  0.38991  0.58084  0.51119  1.0000
  H   H276      1.0  0.42018  0.46232  0.45625  1.0000
  C   C277      1.0  0.44759  0.80683  0.65802  1.0000
  H   H277      1.0  0.11206  0.77240  0.43144  1.0000
  H   H278      1.0  0.18919  0.53106  0.67972  1.0000
  H   H279      1.0  0.45439  0.75912  0.66040  1.0000
  H   H280      1.0  0.43386  0.53926  0.51758  1.0000
  C   C278      1.0  0.08664  0.80724  0.48106  1.0000
  N   N23       1.0  0.30164  0.66105  0.48106  1.0000
  C   C279      1.0  0.32682  0.65411  0.45464  1.0000
  C   C280      1.0  0.31899  0.66786  0.51091  1.0000
  C   C281      1.0  0.36263  0.66856  0.51471  1.0000
  C   C282      1.0  0.38861  0.66206  0.48779  1.0000
  C   C283      1.0  0.25579  0.65989  0.47801  1.0000
  H   H281      1.0  0.29901  0.67311  0.53193  1.0000
  H   H282      1.0  0.37605  0.67430  0.53839  1.0000
  N   N24       1.0  0.07223  0.77952  0.47305  1.0000
  H   H283      1.0  0.24393  0.63839  0.48799  1.0000
  H   H284      1.0  0.24087  0.67858  0.49176  1.0000
  H   H285      1.0  0.24582  0.66173  0.45184  1.0000
  H   H286      1.0  0.51429  0.60784  0.53559  1.0000
  C   C284      1.0  0.07248  0.91895  0.47677  1.0000
  Fe  Fe54      1.0  0.37120  0.54724  0.35801  1.0000
  C   C285      1.0  0.47336  0.48232  0.40028  1.0000
  C   C286      1.0  0.09062  0.90624  0.68650  1.0000
  H   H287      1.0  0.33695  0.53671  0.44554  1.0000
  H   H288      1.0  0.36573  0.58512  0.47147  1.0000
  H   H289      1.0  0.26775  0.65134  0.67658  1.0000
  H   H290      1.0  0.21707  0.93870  0.49453  1.0000
  S   S101      1.0  0.41634  0.50882  0.36006  1.0000
  H   H291      1.0  0.45381  0.55666  0.39886  1.0000
  S   S102      1.0  0.05380  0.55341  0.62417  1.0000
  H   H292      1.0  0.46403  0.46184  0.38835  1.0000
  H   H293      1.0  0.07323  0.84872  0.50582  1.0000
  C   C287      1.0  0.46723  0.53570  0.40639  1.0000
  H   H294      1.0  0.45791  0.48925  0.50064  1.0000
  H   H295      1.0  0.50666  0.55536  0.44362  1.0000
  H   H296      1.0  0.49031  0.79409  0.59001  1.0000
  H   H297      1.0  0.39044  0.64973  0.43627  1.0000
  H   H298      1.0  0.09168  0.91020  0.66007  1.0000
  H   H299      1.0  0.27070  0.78223  0.68721  1.0000
  H   H300      1.0  0.42256  0.66277  0.49045  1.0000
  S   S103      1.0  0.16794  0.79883  0.36924  1.0000
  C   C288      1.0  0.09263  0.92417  0.50672  1.0000
  H   H301      1.0  0.33682  0.56798  0.50480  1.0000
  C   C289      1.0  0.20576  0.91806  0.48233  1.0000
  H   H302      1.0  0.12464  0.75065  0.46781  1.0000
  C   C290      1.0  0.09862  0.75991  0.45277  1.0000
  H   H303      1.0  0.08119  0.90926  0.42501  1.0000
  C   C291      1.0  0.49566  0.68235  0.53591  1.0000
  N   N25       1.0  0.38356  0.54074  0.48284  1.0000
  C   C292      1.0  0.41709  0.52770  0.49823  1.0000
  S   S104      1.0  0.13907  0.95336  0.61323  1.0000
  C   C293      1.0  0.43060  0.49925  0.48903  1.0000
  C   C294      1.0  0.37585  0.49781  0.44814  1.0000
  C   C295      1.0  0.46271  0.83407  0.66955  1.0000
  H   H304      1.0  0.41469  0.65755  0.67979  1.0000
  S   S105      1.0  0.30136  0.54001  0.36310  1.0000
  H   H305      1.0  0.44910  0.85468  0.66071  1.0000
  C   C296      1.0  0.49785  0.53504  0.43129  1.0000
  H   H306      1.0  0.21600  0.89834  0.49684  1.0000
  C   C297      1.0  0.03410  0.76985  0.48463  1.0000
  H   H307      1.0  0.02275  0.74776  0.47863  1.0000
  C   C298      1.0  0.34845  0.65027  0.68846  1.0000
  S   S106      1.0  0.17175  0.87145  0.36214  1.0000
  C   C299      1.0  0.51425  0.65517  0.52715  1.0000
  C   C300      1.0  0.02229  0.81732  0.51093  1.0000
  S   S107      1.0  0.05713  0.76368  0.36814  1.0000
  Fe  Fe55      1.0  0.09783  0.80433  0.36484  1.0000
  Fe  Fe56      1.0  0.10173  0.87098  0.35754  1.0000
  S   S108      1.0  0.02145  0.93310  0.62140  1.0000
  H   H308      1.0  0.02299  0.90637  0.68903  1.0000
  Fe  Fe57      1.0  0.09454  0.80549  0.86567  1.0000
  S   S109      1.0  0.09174  0.84329  0.90152  1.0000
  H   H309      1.0  0.11490  0.50026  0.73454  1.0000
  Fe  Fe58      1.0  0.17179  0.82914  0.83007  1.0000
  S   S110      1.0  0.17530  0.86875  0.86379  1.0000
  S   S111      1.0  0.21681  0.83064  0.78657  1.0000
  Fe  Fe59      1.0  0.16147  0.83662  0.90493  1.0000
  S   S112      1.0  0.18923  0.84244  0.95586  1.0000
  Fe  Fe60      1.0  0.10565  0.87166  0.85725  1.0000
  H   H310      1.0  0.16131  0.88796  0.78165  1.0000
  S   S113      1.0  0.16371  0.79649  0.87195  1.0000
  S   S114      1.0  0.10273  0.83440  0.82078  1.0000
  Fe  Fe61      1.0  0.36940  0.61546  0.84829  1.0000
  S   S115      1.0  0.37170  0.57910  0.81058  1.0000
  S   S116      1.0  0.40653  0.65816  0.84616  1.0000
  Fe  Fe62      1.0  0.30197  0.58403  0.88999  1.0000
  S   S117      1.0  0.29838  0.54506  0.85552  1.0000
  S   S118      1.0  0.26636  0.59120  0.93780  1.0000
  Fe  Fe63      1.0  0.36901  0.54872  0.85470  1.0000
  S   S119      1.0  0.40874  0.50761  0.85901  1.0000
  Fe  Fe64      1.0  0.30129  0.57901  0.81462  1.0000
  S   S120      1.0  0.26041  0.58305  0.76924  1.0000
  S   S121      1.0  0.37220  0.58518  0.89218  1.0000
  S   S122      1.0  0.29911  0.61798  0.84931  1.0000
  C   C301      1.0  0.25630  0.77868  0.71109  1.0000
  C   C302      1.0  0.16405  0.53846  0.79522  1.0000
  C   C303      1.0  0.45133  0.50873  0.88635  1.0000
  C   C304      1.0  0.46443  0.53532  0.90105  1.0000
  C   C305      1.0  0.05203  0.90412  0.70283  1.0000
  H   H311      1.0  0.44982  0.55608  0.89428  1.0000
  H   H312      1.0  0.13010  0.79238  0.95317  1.0000
  C   C306      1.0  0.47132  0.48204  0.89466  1.0000
  H   H313      1.0  0.32025  0.78927  0.79398  1.0000
  C   C307      1.0  0.26918  0.66070  0.97585  1.0000
  C   C308      1.0  0.09482  0.90768  0.97469  1.0000
  C   C309      1.0  0.36041  0.82551  0.71334  1.0000
  H   H314      1.0  0.38428  0.74476  0.76372  1.0000
  C   C310      1.0  0.24737  0.55975  0.95952  1.0000
  C   C311      1.0  0.25368  0.53099  0.94736  1.0000
  C   C312      1.0  0.23927  0.50623  0.96545  1.0000
  C   C313      1.0  0.34234  0.84322  0.73786  1.0000
  C   C314      1.0  0.20864  0.52847  0.70128  1.0000
  H   H315      1.0  0.26949  0.52780  0.92398  1.0000
  H   H316      1.0  0.24446  0.48406  0.95593  1.0000
  C   C315      1.0  0.50582  0.65740  0.02087  1.0000
  C   C316      1.0  0.21020  0.91269  0.99220  1.0000
  C   C317      1.0  0.22244  0.55375  0.71843  1.0000
  C   C318      1.0  0.24701  0.55079  0.74690  1.0000
  C   C319      1.0  0.25824  0.52235  0.75789  1.0000
  C   C320      1.0  0.49901  0.78113  0.69207  1.0000
  N   N26       1.0  0.07968  0.76230  0.96255  1.0000
  C   C321      1.0  0.13853  0.90773  0.97048  1.0000
  H   H317      1.0  0.27723  0.51985  0.77980  1.0000
  H   H318      1.0  0.26800  0.61659  0.69973  1.0000
  C   C322      1.0  0.24426  0.49701  0.74077  1.0000
  H   H319      1.0  0.10315  0.83103  0.99087  1.0000
  H   H320      1.0  0.22286  0.89115  0.00129  1.0000
  C   C323      1.0  0.22619  0.79911  0.76172  1.0000
  C   C324      1.0  0.24412  0.80322  0.73031  1.0000
  H   H321      1.0  0.16560  0.58626  0.79887  1.0000
  C   C325      1.0  0.25042  0.74976  0.72304  1.0000
  C   C326      1.0  0.23160  0.74558  0.75416  1.0000
  C   C327      1.0  0.21944  0.77019  0.77348  1.0000
  H   H322      1.0  0.24938  0.82551  0.72102  1.0000
  H   H323      1.0  0.22687  0.72326  0.76356  1.0000
  H   H324      1.0  0.20573  0.76680  0.79771  1.0000
  C   C328      1.0  0.21476  0.81230  0.97548  1.0000
  C   C329      1.0  0.21890  0.78465  0.95999  1.0000
  C   C330      1.0  0.23842  0.76087  0.97653  1.0000
  C   C331      1.0  0.25438  0.76461  0.00849  1.0000
  C   C332      1.0  0.49561  0.83492  0.69228  1.0000
  C   C333      1.0  0.23051  0.81600  0.00751  1.0000
  H   H325      1.0  0.20732  0.78157  0.93523  1.0000
  C   C334      1.0  0.15352  0.56727  0.78539  1.0000
  H   H326      1.0  0.18438  0.53502  0.81632  1.0000
  H   H327      1.0  0.22113  0.58576  0.99930  1.0000
  H   H328      1.0  0.25268  0.47507  0.74957  1.0000
  C   C335      1.0  0.47031  0.68601  0.81267  1.0000
  C   C336      1.0  0.45079  0.65877  0.81987  1.0000
  C   C337      1.0  0.46663  0.63261  0.80586  1.0000
  H   H329      1.0  0.45804  0.70635  0.82328  1.0000
  H   H330      1.0  0.45196  0.61148  0.81136  1.0000
  C   C338      1.0  0.02701  0.77863  0.00129  1.0000
  H   H331      1.0  0.07444  0.90353  0.95380  1.0000
  H   H332      1.0  0.18176  0.91813  0.75670  1.0000
  N   N27       1.0  0.11553  0.54757  0.73926  1.0000
  C   C339      1.0  0.38116  0.67455  0.99852  1.0000
  H   H333      1.0  0.11210  0.74966  0.91855  1.0000
  H   H334      1.0  0.50097  0.70514  0.01747  1.0000
  C   C340      1.0  0.05104  0.89910  0.73684  1.0000
  C   C341      1.0  0.14963  0.51421  0.77706  1.0000
  C   C342      1.0  0.12513  0.51919  0.74901  1.0000
  H   H335      1.0  0.34236  0.55571  0.95942  1.0000
  C   C343      1.0  0.27399  0.64092  0.70099  1.0000
  H   H336      1.0  0.02652  0.73626  0.97700  1.0000
  H   H337      1.0  0.15160  0.90309  0.94621  1.0000
  C   C344      1.0  0.36803  0.64949  0.75503  1.0000
  H   H338      1.0  0.24153  0.73956  0.96439  1.0000
  C   C345      1.0  0.09693  0.73937  0.94062  1.0000
  C   C346      1.0  0.33737  0.67235  0.00008  1.0000
  C   C347      1.0  0.36403  0.79482  0.71848  1.0000
  H   H339      1.0  0.12050  0.72577  0.95401  1.0000
  H   H340      1.0  0.15775  0.90527  0.69160  1.0000
  C   C348      1.0  0.39016  0.65438  0.69823  1.0000
  C   C349      1.0  0.12782  0.90328  0.70444  1.0000
  H   H341      1.0  0.18764  0.87988  0.74365  1.0000
  C   C350      1.0  0.21919  0.50000  0.71254  1.0000
  C   C351      1.0  0.39993  0.65406  0.73178  1.0000
  H   H342      1.0  0.35130  0.73777  0.72824  1.0000
  C   C352      1.0  0.08887  0.89630  0.75406  1.0000
  H   H343      1.0  0.31317  0.84351  0.78611  1.0000
  H   H344      1.0  0.46148  0.46143  0.88325  1.0000
  H   H345      1.0  0.08785  0.89256  0.78052  1.0000
  H   H346      1.0  0.39847  0.68219  0.01981  1.0000
  H   H347      1.0  0.43623  0.66877  0.96784  1.0000
  C   C353      1.0  0.08918  0.55229  0.71018  1.0000
  N   N28       1.0  0.34942  0.78206  0.74705  1.0000
  N   N29       1.0  0.12659  0.89825  0.73775  1.0000
  C   C354      1.0  0.33226  0.79933  0.77145  1.0000
  H   H348      1.0  0.39713  0.46969  0.94215  1.0000
  C   C355      1.0  0.32830  0.83012  0.76718  1.0000
  N   N30       1.0  0.43022  0.52517  0.99206  1.0000
  C   C356      1.0  0.35360  0.74986  0.75206  1.0000
  H   H349      1.0  0.32769  0.74115  0.76792  1.0000
  H   H350      1.0  0.26077  0.64025  0.98989  1.0000
  H   H351      1.0  0.37812  0.78131  0.69926  1.0000
  C   C357      1.0  0.36581  0.51182  0.94843  1.0000
  H   H352      1.0  0.40051  0.56748  0.99760  1.0000
  H   H353      1.0  0.25576  0.68047  0.98866  1.0000
  H   H354      1.0  0.25134  0.65110  0.71869  1.0000
  H   H355      1.0  0.33886  0.86699  0.73400  1.0000
  C   C358      1.0  0.16616  0.89602  0.75592  1.0000
  C   C359      1.0  0.39705  0.49088  0.95496  1.0000
  H   H356      1.0  0.07176  0.72464  0.93103  1.0000
  H   H357      1.0  0.22736  0.83724  0.01976  1.0000
  C   C360      1.0  0.22624  0.56358  0.98975  1.0000
  C   C361      1.0  0.42919  0.49793  0.97702  1.0000
  C   C362      1.0  0.46541  0.53311  0.01353  1.0000
  H   H358      1.0  0.31770  0.64753  0.92352  1.0000
  H   H359      1.0  0.12108  0.59395  0.74967  1.0000
  H   H360      1.0  0.37520  0.64877  0.78113  1.0000
  C   C363      1.0  0.39953  0.54579  0.98593  1.0000
  N   N31       1.0  0.31501  0.66321  0.97322  1.0000
  H   H361      1.0  0.09529  0.53507  0.69107  1.0000
  C   C364      1.0  0.40219  0.66706  0.96936  1.0000
  H   H362      1.0  0.25424  0.65924  0.95118  1.0000
  H   H363      1.0  0.21339  0.57564  0.70990  1.0000
  H   H364      1.0  0.05546  0.55149  0.71743  1.0000
  H   H365      1.0  0.02116  0.89734  0.74975  1.0000
  C   C365      1.0  0.04347  0.75701  0.98000  1.0000
  C   C366      1.0  0.33534  0.65538  0.94463  1.0000
  C   C367      1.0  0.12884  0.57146  0.75729  1.0000
  H   H366      1.0  0.37128  0.83538  0.69032  1.0000
  C   C368      1.0  0.37917  0.65742  0.94217  1.0000
  C   C369      1.0  0.36669  0.53934  0.96427  1.0000
  H   H367      1.0  0.45406  0.48182  0.98119  1.0000
  H   H368      1.0  0.39512  0.65169  0.91926  1.0000
  S   S123      1.0  0.04907  0.76729  0.86742  1.0000
  H   H369      1.0  0.22507  0.93124  0.00605  1.0000
  H   H370      1.0  0.15853  0.49176  0.78399  1.0000
  C   C370      1.0  0.21803  0.51002  0.99565  1.0000
  S   S124      1.0  0.20044  0.47821  0.01741  1.0000
  C   C371      1.0  0.32670  0.64542  0.74441  1.0000
  S   S125      1.0  0.07714  0.91679  0.84807  1.0000
  C   C372      1.0  0.04833  0.80553  0.00517  1.0000
  N   N32       1.0  0.16445  0.91326  0.99662  1.0000
  H   H371      1.0  0.09572  0.57410  0.69817  1.0000
  S   S126      1.0  0.26850  0.71869  0.70041  1.0000
  C   C373      1.0  0.08583  0.81040  0.98791  1.0000
  C   C374      1.0  0.21147  0.53880  0.00774  1.0000
  C   C375      1.0  0.10110  0.78839  0.96661  1.0000
  H   H372      1.0  0.30217  0.64140  0.76262  1.0000
  C   C376      1.0  0.07774  0.91311  0.00594  1.0000
  H   H373      1.0  0.51288  0.76066  0.70081  1.0000
  H   H374      1.0  0.21934  0.91510  0.96582  1.0000
  H   H375      1.0  0.34138  0.50683  0.93072  1.0000
  C   C377      1.0  0.51427  0.80856  0.70329  1.0000
  H   H376      1.0  0.43218  0.65703  0.73976  1.0000
  H   H377      1.0  0.50715  0.85616  0.70094  1.0000
  N   N33       1.0  0.31731  0.64623  0.71151  1.0000
  C   C378      1.0  0.49636  0.53498  0.92487  1.0000
  H   H378      1.0  0.04391  0.91330  0.00961  1.0000
  C   C379      1.0  0.02729  0.91680  0.82965  1.0000
  S   S127      1.0  0.19920  0.46792  0.69306  1.0000
  H   H379      1.0  0.48682  0.54872  0.00035  1.0000
  C   C380      1.0  0.50206  0.63370  0.78502  1.0000
  H   H380      1.0  0.50510  0.55538  0.93705  1.0000
  C   C381      1.0  0.50301  0.48166  0.91849  1.0000
  C   C382      1.0  0.50560  0.68711  0.79169  1.0000
  H   H381      1.0  0.02120  0.86905  0.82852  1.0000
  H   H382      1.0  0.48437  0.51327  0.02055  1.0000
  H   H383      1.0  0.32129  0.67824  0.02286  1.0000
  H   H384      1.0  0.03580  0.82250  0.02153  1.0000
  N   N34       1.0  0.89298  0.05253  0.15121  1.0000
  C   C383      1.0  0.86972  0.07286  0.17291  1.0000
  S   S128      1.0  0.76817  0.33165  0.09037  1.0000
  Fe  Fe65      1.0  0.79717  0.99920  0.29551  1.0000
  H   H385      1.0  0.53490  0.12307  0.07030  1.0000
  H   H386      1.0  0.00109  0.35611  0.07756  1.0000
  Fe  Fe66      1.0  0.63791  0.23306  0.20695  1.0000
  S   S129      1.0  0.64554  0.27428  0.23753  1.0000
  S   S130      1.0  0.66287  0.22656  0.15499  1.0000
  Fe  Fe67      1.0  0.59593  0.19871  0.26380  1.0000
  S   S131      1.0  0.60050  0.23714  0.29861  1.0000
  S   S132      1.0  0.57060  0.15450  0.28087  1.0000
  Fe  Fe68      1.0  0.57953  0.26400  0.25464  1.0000
  H   H387      1.0  0.94736  0.96169  0.29922  1.0000
  Fe  Fe69      1.0  0.66552  0.24318  0.27805  1.0000
  C   C384      1.0  0.56190  0.16652  0.16020  1.0000
  S   S133      1.0  0.57050  0.22486  0.22128  1.0000
  S   S134      1.0  0.66236  0.20255  0.24619  1.0000
  H   H388      1.0  0.64712  0.14590  0.09071  1.0000
  S   S135      1.0  0.80273  0.03096  0.25281  1.0000
  H   H389      1.0  0.83297  0.35065  0.20555  1.0000
  C   C385      1.0  0.80294  0.31834  0.23719  1.0000
  S   S136      1.0  0.60482  0.08735  0.04928  1.0000
  S   S137      1.0  0.88463  0.39990  0.23650  1.0000
  C   C386      1.0  0.73180  0.26539  0.34190  1.0000
  H   H390      1.0  0.74076  0.37951  0.13650  1.0000
  Fe  Fe70      1.0  0.87231  0.02338  0.25797  1.0000
  S   S138      1.0  0.91586  0.06245  0.25383  1.0000
  C   C387      1.0  0.81106  0.31246  0.17830  1.0000
  S   S139      1.0  0.86663  0.99536  0.30378  1.0000
  H   H391      1.0  0.55632  0.15369  0.18253  1.0000
  C   C388      1.0  0.96960  0.38644  0.32624  1.0000
  H   H392      1.0  0.85648  0.06062  0.19447  1.0000
  H   H393      1.0  0.89377  0.40584  0.16247  1.0000
  S   S140      1.0  0.71100  0.09866  0.09530  1.0000
  Fe  Fe71      1.0  0.80537  0.99022  0.22085  1.0000
  H   H394      1.0  0.96150  0.33955  0.31625  1.0000
  H   H395      1.0  0.75264  0.09105  0.15699  1.0000
  C   C389      1.0  0.53440  0.18935  0.15132  1.0000
  H   H396      1.0  0.72234  0.24848  0.20666  1.0000
  C   C390      1.0  0.00945  0.08473  0.19118  1.0000
  Fe  Fe72      1.0  0.67477  0.09395  0.04786  1.0000
  C   C391      1.0  0.64372  0.06329  0.32084  1.0000
  H   H397      1.0  0.77598  0.06188  0.32787  1.0000
  N   N35       1.0  0.77792  0.27400  0.21062  1.0000
  C   C392      1.0  0.95242  0.04203  0.11620  1.0000
  C   C393      1.0  0.75610  0.24530  0.21230  1.0000
  H   H398      1.0  0.91798  0.34723  0.26693  1.0000
  C   C394      1.0  0.97761  0.08580  0.21513  1.0000
  C   C395      1.0  0.95783  0.05965  0.22569  1.0000
  C   C396      1.0  0.97099  0.03221  0.21293  1.0000
  C   C397      1.0  0.00076  0.42893  0.05465  1.0000
  H   H399      1.0  0.96770  0.10706  0.22504  1.0000
  H   H400      1.0  0.96945  0.43427  0.32978  1.0000
  S   S141      1.0  0.77414  0.98342  0.17141  1.0000
  H   H401      1.0  0.66636  0.06076  0.30089  1.0000
  H   H402      1.0  0.64377  0.17774  0.31995  1.0000
  H   H403      1.0  0.76936  0.22927  0.19415  1.0000
  C   C398      1.0  0.92966  0.36626  0.28037  1.0000
  C   C399      1.0  0.91837  0.39503  0.27042  1.0000
  H   H404      1.0  0.73386  0.41639  0.11949  1.0000
  Fe  Fe73      1.0  0.79636  0.32756  0.03913  1.0000
  S   S142      1.0  0.79411  0.95874  0.26306  1.0000
  H   H405      1.0  0.82106  0.32091  0.15436  1.0000
  H   H406      1.0  0.65391  0.01926  0.33968  1.0000
  S   S143      1.0  0.86618  0.32233  0.03326  1.0000
  H   H407      1.0  0.77695  0.04642  0.18736  1.0000
  C   C400      1.0  0.72787  0.06628  0.11604  1.0000
  C   C401      1.0  0.76184  0.04386  0.16380  1.0000
  C   C402      1.0  0.74803  0.06915  0.14655  1.0000
  H   H408      1.0  0.70629  0.03549  0.07920  1.0000
  C   C403      1.0  0.99155  0.37634  0.06510  1.0000
  H   H409      1.0  0.98250  0.04882  0.10579  1.0000
  C   C404      1.0  0.73663  0.30270  0.10632  1.0000
  C   C405      1.0  0.71297  0.30784  0.13508  1.0000
  C   C406      1.0  0.68972  0.28476  0.14981  1.0000
  C   C407      1.0  0.69007  0.25629  0.13599  1.0000
  C   C408      1.0  0.71325  0.25121  0.10693  1.0000
  C   C409      1.0  0.73650  0.27436  0.09210  1.0000
  H   H410      1.0  0.71264  0.32969  0.14617  1.0000
  H   H411      1.0  0.67129  0.28914  0.17171  1.0000
  H   H412      1.0  0.71373  0.22924  0.09609  1.0000
  H   H413      1.0  0.75488  0.27015  0.07004  1.0000
  C   C410      1.0  0.62167  0.08992  0.32473  1.0000
  C   C411      1.0  0.95766  0.37571  0.04309  1.0000
  N   N36       1.0  0.60414  0.17679  0.11213  1.0000
  H   H414      1.0  0.77130  0.28253  0.26224  1.0000
  C   C412      1.0  0.59306  0.09289  0.35076  1.0000
  C   C413      1.0  0.94542  0.40165  0.02662  1.0000
  H   H415      1.0  0.94166  0.35501  0.03843  1.0000
  H   H416      1.0  0.63689  0.17815  0.06597  1.0000
  H   H417      1.0  0.61873  0.14316  0.14745  1.0000
  H   H418      1.0  0.85953  0.39822  0.06024  1.0000
  C   C414      1.0  0.72178  0.03790  0.10275  1.0000
  C   C415      1.0  0.93342  0.41949  0.28803  1.0000
  S   S144      1.0  0.87536  0.98497  0.22287  1.0000
  C   C416      1.0  0.73587  0.01256  0.11996  1.0000
  C   C417      1.0  0.87640  0.02520  0.14426  1.0000
  H   H419      1.0  0.95638  0.01189  0.22139  1.0000
  C   C418      1.0  0.64557  0.18035  0.34653  1.0000
  H   H420      1.0  0.52184  0.22439  0.11631  1.0000
  H   H421      1.0  0.94318  0.08307  0.14222  1.0000
  N   N37       1.0  0.79719  0.40339  0.12791  1.0000
  C   C419      1.0  0.82731  0.40494  0.15183  1.0000
  C   C420      1.0  0.80848  0.40098  0.09540  1.0000
  C   C421      1.0  0.87004  0.40454  0.14336  1.0000
  C   C422      1.0  0.85088  0.40044  0.08605  1.0000
  C   C423      1.0  0.88182  0.40229  0.11021  1.0000
  C   C424      1.0  0.75254  0.40273  0.13704  1.0000
  H   H422      1.0  0.81848  0.40658  0.17764  1.0000
  H   H423      1.0  0.78453  0.39890  0.07658  1.0000
  C   C425      1.0  0.64119  0.17027  0.09175  1.0000
  C   C426      1.0  0.79130  0.28470  0.18070  1.0000
  H   H424      1.0  0.91484  0.40172  0.10327  1.0000
  S   S145      1.0  0.72677  0.24388  0.30590  1.0000
  H   H425      1.0  0.80721  0.33136  0.25948  1.0000
  H   H426      1.0  0.96209  0.95781  0.03774  1.0000
  H   H427      1.0  0.73113  0.99073  0.10948  1.0000
  C   C427      1.0  0.54277  0.20638  0.12322  1.0000
  H   H428      1.0  0.78621  0.27191  0.15836  1.0000
  S   S146      1.0  0.75123  0.99970  0.33830  1.0000
  H   H429      1.0  0.88436  0.98375  0.11811  1.0000
  H   H430      1.0  0.84657  0.01854  0.15496  1.0000
  S   S147      1.0  0.78531  0.44834  0.22981  1.0000
  H   H431      1.0  0.62655  0.10816  0.30749  1.0000
  H   H432      1.0  0.67312  0.28876  0.33643  1.0000
  C   C428      1.0  0.51758  0.16472  0.04795  1.0000
  H   H433      1.0  0.79185  0.24612  0.35407  1.0000
  H   H434      1.0  0.74698  0.41242  0.16192  1.0000
  C   C429      1.0  0.75582  0.01546  0.15059  1.0000
  C   C430      1.0  0.81726  0.32922  0.20684  1.0000
  H   H435      1.0  0.75874  0.23500  0.23721  1.0000
  C   C431      1.0  0.89771  0.00541  0.12342  1.0000
  C   C432      1.0  0.63657  0.03987  0.34300  1.0000
  C   C433      1.0  0.93010  0.06130  0.13701  1.0000
  C   C434      1.0  0.95863  0.41520  0.31595  1.0000
  C   C435      1.0  0.93615  0.01387  0.10951  1.0000
  C   C436      1.0  0.59702  0.16063  0.14028  1.0000
  C   C437      1.0  0.78286  0.29064  0.23860  1.0000
  C   C438      1.0  0.57805  0.19979  0.10380  1.0000
  H   H436      1.0  0.92582  0.44173  0.28014  1.0000
  H   H437      1.0  0.66923  0.18125  0.10243  1.0000
  H   H438      1.0  0.89046  0.09039  0.18325  1.0000
  H   H439      1.0  0.84367  0.08356  0.15909  1.0000
  C   C439      1.0  0.95498  0.36194  0.30827  1.0000
  H   H440      1.0  0.95328  0.99870  0.09352  1.0000
  H   H441      1.0  0.58422  0.21300  0.08186  1.0000
  Fe  Fe74      1.0  0.85521  0.44545  0.23370  1.0000
  C   C440      1.0  0.52128  0.15760  0.30029  1.0000
  C   C441      1.0  0.96691  0.42829  0.03257  1.0000
  C   C442      1.0  0.75688  0.06039  0.35001  1.0000
  H   H442      1.0  0.51552  0.11040  0.30881  1.0000
  S   S148      1.0  0.52922  0.29873  0.26146  1.0000
  H   H443      1.0  0.75101  0.42190  0.34888  1.0000
  C   C443      1.0  0.00326  0.03109  0.18909  1.0000
  H   H444      1.0  0.71120  0.19116  0.34580  1.0000
  H   H445      1.0  0.81905  0.44443  0.33243  1.0000
  C   C444      1.0  0.81844  0.42595  0.34975  1.0000
  H   H446      1.0  0.00432  0.30882  0.34844  1.0000
  H   H447      1.0  0.51776  0.20534  0.29562  1.0000
  C   C445      1.0  0.70108  0.28601  0.35122  1.0000
  H   H448      1.0  0.88541  0.42470  0.35566  1.0000
  H   H449      1.0  0.01228  0.01000  0.17848  1.0000
  H   H450      1.0  0.57542  0.11337  0.35373  1.0000
  H   H451      1.0  0.51570  0.02811  0.04065  1.0000
  H   H452      1.0  0.57973  0.17181  0.35472  1.0000
  C   C446      1.0  0.01358  0.40284  0.07058  1.0000
  Fe  Fe75      1.0  0.87058  0.26746  0.48680  1.0000
  S   S149      1.0  0.87058  0.30496  0.45008  1.0000
  S   S150      1.0  0.89694  0.22216  0.47544  1.0000
  Fe  Fe76      1.0  0.80415  0.31180  0.46716  1.0000
  S   S151      1.0  0.75039  0.32336  0.43337  1.0000
  S   S152      1.0  0.80233  0.27201  0.50072  1.0000
  Fe  Fe77      1.0  0.67285  0.10759  0.46610  1.0000
  C   C447      1.0  0.73566  0.01555  0.62040  1.0000
  S   S153      1.0  0.70886  0.11706  0.41891  1.0000
  C   C448      1.0  0.82471  0.16015  0.46882  1.0000
  C   C449      1.0  0.73764  0.06846  0.60787  1.0000
  S   S154      1.0  0.60249  0.10651  0.46628  1.0000
  C   C450      1.0  0.72144  0.08459  0.39640  1.0000
  S   S155      1.0  0.67646  0.21658  0.65840  1.0000
  N   N38       1.0  0.81643  0.38520  0.62033  1.0000
  S   S156      1.0  0.57322  0.02517  0.48960  1.0000
  C   C451      1.0  0.88818  0.37112  0.63023  1.0000
  C   C452      1.0  0.70653  0.05686  0.40687  1.0000
  H   H453      1.0  0.65315  0.19029  0.44085  1.0000
  H   H454      1.0  0.59275  0.29939  0.68114  1.0000
  H   H455      1.0  0.76139  0.25576  0.56654  1.0000
  H   H456      1.0  0.68635  0.05523  0.42824  1.0000
  H   H457      1.0  0.99655  0.32241  0.41017  1.0000
  H   H458      1.0  0.89925  0.96802  0.63163  1.0000
  H   H459      1.0  0.79556  0.05217  0.67643  1.0000
  C   C453      1.0  0.96834  0.19607  0.45113  1.0000
  C   C454      1.0  0.94696  0.22288  0.45658  1.0000
  H   H460      1.0  0.72415  0.22400  0.41751  1.0000
  H   H461      1.0  0.83312  0.16244  0.56730  1.0000
  H   H462      1.0  0.75286  0.19755  0.39281  1.0000
  C   C455      1.0  0.00834  0.19610  0.43631  1.0000
  H   H463      1.0  0.88955  0.37056  0.42385  1.0000
  H   H464      1.0  0.01104  0.03231  0.65997  1.0000
  H   H465      1.0  0.77683  0.15658  0.56695  1.0000
  H   H466      1.0  0.81217  0.12569  0.57272  1.0000
  C   C456      1.0  0.51743  0.99782  0.44940  1.0000
  C   C457      1.0  0.74318  0.30034  0.39875  1.0000
  C   C458      1.0  0.77348  0.27927  0.38975  1.0000
  C   C459      1.0  0.00537  0.24969  0.43144  1.0000
  C   C460      1.0  0.65120  0.18756  0.41429  1.0000
  H   H467      1.0  0.70359  0.03620  0.57933  1.0000
  C   C461      1.0  0.77974  0.38629  0.59866  1.0000
  H   H468      1.0  0.80150  0.27659  0.40445  1.0000
  H   H469      1.0  0.94933  0.27051  0.45085  1.0000
  H   H470      1.0  0.85580  0.36391  0.58460  1.0000
  Fe  Fe78      1.0  0.82565  0.30323  0.53970  1.0000
  S   S157      1.0  0.82218  0.34372  0.50723  1.0000
  S   S158      1.0  0.80291  0.30879  0.59233  1.0000
  Fe  Fe79      1.0  0.88888  0.33320  0.49350  1.0000
  Fe  Fe80      1.0  0.61076  0.06665  0.49877  1.0000
  S   S159      1.0  0.89409  0.29501  0.52895  1.0000
  Fe  Fe81      1.0  0.60611  0.13196  0.51383  1.0000
  S   S160      1.0  0.60910  0.09182  0.54664  1.0000
  S   S161      1.0  0.56546  0.17196  0.52454  1.0000
  C   C462      1.0  0.79018  0.11760  0.51057  1.0000
  H   H471      1.0  0.62828  0.30582  0.64664  1.0000
  S   S162      1.0  0.67596  0.13753  0.51023  1.0000
  C   C463      1.0  0.81278  0.39518  0.65210  1.0000
  H   H472      1.0  0.69837  0.13624  0.63838  1.0000
  C   C464      1.0  0.96716  0.37974  0.52173  1.0000
  C   C465      1.0  0.72584  0.20020  0.41009  1.0000
  H   H473      1.0  0.53200  0.31279  0.64815  1.0000
  Fe  Fe82      1.0  0.67899  0.09555  0.54046  1.0000
  C   C466      1.0  0.63543  0.15835  0.60300  1.0000
  H   H474      1.0  0.77472  0.09489  0.64120  1.0000
  N   N39       1.0  0.60894  0.04316  0.36879  1.0000
  H   H475      1.0  0.78903  0.38490  0.57221  1.0000
  H   H476      1.0  0.75874  0.36713  0.60426  1.0000
  C   C467      1.0  0.66943  0.13848  0.65244  1.0000
  H   H477      1.0  0.75010  0.37894  0.38836  1.0000
  S   S163      1.0  0.93680  0.37008  0.48704  1.0000
  H   H478      1.0  0.62303  0.99954  0.38753  1.0000
  H   H479      1.0  0.83945  0.18378  0.51323  1.0000
  C   C468      1.0  0.71720  0.03101  0.38938  1.0000
  H   H480      1.0  0.80513  0.13170  0.42887  1.0000
  C   C469      1.0  0.96558  0.24973  0.44674  1.0000
  H   H481      1.0  0.81687  0.36021  0.41118  1.0000
  C   C470      1.0  0.60190  0.01877  0.39228  1.0000
  S   S164      1.0  0.68156  0.06592  0.49597  1.0000
  H   H482      1.0  0.90720  0.36271  0.38220  1.0000
  C   C471      1.0  0.76787  0.28275  0.61003  1.0000
  C   C472      1.0  0.75550  0.28639  0.64307  1.0000
  C   C473      1.0  0.72773  0.26612  0.65812  1.0000
  C   C474      1.0  0.71195  0.24209  0.64020  1.0000
  C   C475      1.0  0.72414  0.23846  0.60708  1.0000
  C   C476      1.0  0.75208  0.25872  0.59202  1.0000
  H   H483      1.0  0.76775  0.30483  0.65718  1.0000
  N   N40       1.0  0.85487  0.39184  0.38537  1.0000
  C   C477      1.0  0.53856  0.29350  0.63287  1.0000
  H   H484      1.0  0.99339  0.41871  0.49831  1.0000
  C   C478      1.0  0.00662  0.04943  0.67838  1.0000
  C   C479      1.0  0.89430  0.38017  0.39877  1.0000
  H   H485      1.0  0.77412  0.09363  0.46616  1.0000
  H   H486      1.0  0.62748  0.27054  0.66789  1.0000
  C   C480      1.0  0.76792  0.26201  0.36124  1.0000
  H   H487      1.0  0.56886  0.01087  0.39067  1.0000
  H   H488      1.0  0.56491  0.07161  0.39302  1.0000
  H   H489      1.0  0.95409  0.17523  0.45858  1.0000
  C   C481      1.0  0.82528  0.16381  0.50312  1.0000
  C   C482      1.0  0.81754  0.37880  0.39404  1.0000
  H   H490      1.0  0.56117  0.22520  0.57792  1.0000
  C   C483      1.0  0.77961  0.38932  0.38111  1.0000
  C   C484      1.0  0.85576  0.41478  0.36309  1.0000
  H   H491      1.0  0.72478  0.99339  0.61452  1.0000
  C   C485      1.0  0.55445  0.24431  0.59348  1.0000
  C   C486      1.0  0.99298  0.40504  0.52034  1.0000
  C   C487      1.0  0.59775  0.15306  0.65581  1.0000
  C   C488      1.0  0.99210  0.36997  0.57731  1.0000
  H   H492      1.0  0.60376  0.15816  0.59164  1.0000
  C   C489      1.0  0.51780  0.14104  0.57039  1.0000
  H   H493      1.0  0.70557  0.00966  0.39782  1.0000
  C   C490      1.0  0.84696  0.39370  0.67359  1.0000
  C   C491      1.0  0.78893  0.11330  0.47640  1.0000
  C   C492      1.0  0.80629  0.13475  0.45544  1.0000
  N   N41       1.0  0.68614  0.19127  0.39484  1.0000
  C   C493      1.0  0.72359  0.03977  0.60046  1.0000
  C   C494      1.0  0.96664  0.36233  0.55040  1.0000
  H   H494      1.0  0.54159  0.12406  0.56963  1.0000
  N   N42       1.0  0.57583  0.27853  0.63574  1.0000
  C   C495      1.0  0.53230  0.02526  0.46050  1.0000
  C   C496      1.0  0.60762  0.28918  0.65893  1.0000
  C   C497      1.0  0.70696  0.30363  0.37948  1.0000
  H   H495      1.0  0.91724  0.36119  0.62148  1.0000
  H   H496      1.0  0.83859  0.17696  0.45282  1.0000
  C   C498      1.0  0.80769  0.14713  0.55935  1.0000
  H   H497      1.0  0.77635  0.10088  0.52666  1.0000
  H   H498      1.0  0.64875  0.18112  0.60098  1.0000
  H   H499      1.0  0.91152  0.38036  0.67914  1.0000
  C   C499      1.0  0.74205  0.03265  0.36077  1.0000
  H   H500      1.0  0.56979  0.16215  0.64436  1.0000
  H   H501      1.0  0.76209  0.40747  0.60216  1.0000
  H   H502      1.0  0.58478  0.17759  0.41579  1.0000
  C   C500      1.0  0.58437  0.25460  0.61594  1.0000
  S   S165      1.0  0.72411  0.09948  0.58322  1.0000
  H   H503      1.0  0.94718  0.34270  0.55170  1.0000
  H   H504      1.0  0.71211  0.21993  0.59303  1.0000
  C   C501      1.0  0.76357  0.07279  0.63536  1.0000
  H   H505      1.0  0.61446  0.24332  0.61743  1.0000
  C   C502      1.0  0.60968  0.17687  0.36610  1.0000
  N   N43       1.0  0.80842  0.14253  0.52352  1.0000
  H   H506      1.0  0.99221  0.35601  0.59912  1.0000
  S   S166      1.0  0.77643  0.98891  0.67224  1.0000
  C   C503      1.0  0.76155  0.01987  0.64796  1.0000
  H   H507      1.0  0.91818  0.39808  0.40133  1.0000
  C   C504      1.0  0.88492  0.38170  0.66252  1.0000
  C   C505      1.0  0.85335  0.37292  0.60939  1.0000
  C   C506      1.0  0.77542  0.04860  0.65539  1.0000
  H   H508      1.0  0.65550  0.14291  0.58844  1.0000
  C   C507      1.0  0.61246  0.18029  0.40025  1.0000
  N   N44       1.0  0.63388  0.14924  0.63776  1.0000
  C   C508      1.0  0.74662  0.08633  0.36787  1.0000
  H   H509      1.0  0.75820  0.10771  0.35952  1.0000
  H   H510      1.0  0.60791  0.02649  0.41791  1.0000
  H   H511      1.0  0.68338  0.31987  0.38640  1.0000
  C   C509      1.0  0.68370  0.18786  0.36134  1.0000
  H   H512      1.0  0.78327  0.40440  0.66098  1.0000
  H   H513      1.0  0.53154  0.97740  0.45830  1.0000
  C   C510      1.0  0.58714  0.06918  0.37277  1.0000
  C   C511      1.0  0.66918  0.13061  0.68588  1.0000
  C   C512      1.0  0.51587  0.25896  0.59112  1.0000
  H   H514      1.0  0.73225  0.18612  0.43210  1.0000
  H   H515      1.0  0.01405  0.38732  0.44292  1.0000
  S   S167      1.0  0.99746  0.38244  0.36368  1.0000
  C   C513      1.0  0.52156  0.16646  0.55059  1.0000
  H   H516      1.0  0.52439  0.07289  0.45781  1.0000
  H   H517      1.0  0.71906  0.26897  0.68370  1.0000
  H   H518      1.0  0.90741  0.95836  0.57154  1.0000
  C   C514      1.0  0.59642  0.14544  0.68934  1.0000
  C   C515      1.0  0.78014  0.41321  0.35897  1.0000
  C   C516      1.0  0.85499  0.40627  0.90305  1.0000
  S   S168      1.0  0.85177  0.33345  0.95312  1.0000
  S   S169      1.0  0.87961  0.25152  0.97525  1.0000
  Fe  Fe83      1.0  0.78327  0.33696  0.96508  1.0000
  S   S170      1.0  0.73702  0.34590  0.92444  1.0000
  S   S171      1.0  0.78041  0.29655  0.99761  1.0000
  Fe  Fe84      1.0  0.65529  0.22526  0.71095  1.0000
  S   S172      1.0  0.66190  0.26820  0.73868  1.0000
  C   C517      1.0  0.52931  0.98985  0.95283  1.0000
  Fe  Fe85      1.0  0.60515  0.19593  0.76711  1.0000
  S   S173      1.0  0.60800  0.23647  0.79917  1.0000
  S   S174      1.0  0.57417  0.15278  0.78199  1.0000
  Fe  Fe86      1.0  0.59388  0.26096  0.75196  1.0000
  H   H519      1.0  0.95470  0.96553  0.79950  1.0000
  Fe  Fe87      1.0  0.67547  0.23934  0.78286  1.0000
  S   S175      1.0  0.73049  0.24307  0.81794  1.0000
  S   S176      1.0  0.58630  0.22019  0.72117  1.0000
  S   S177      1.0  0.67365  0.19666  0.75394  1.0000
  H   H520      1.0  0.52026  0.10851  0.81088  1.0000
  S   S178      1.0  0.81151  0.03731  0.75144  1.0000
  C   C518      1.0  0.68755  0.24033  0.91549  1.0000
  C   C519      1.0  0.97287  0.04744  0.70091  1.0000
  Fe  Fe88      1.0  0.81337  0.99665  0.71915  1.0000
  S   S179      1.0  0.89982  0.40375  0.75565  1.0000
  Fe  Fe89      1.0  0.85017  0.29519  0.98861  1.0000
  S   S180      1.0  0.76169  0.00229  0.83799  1.0000
  Fe  Fe90      1.0  0.88129  0.02908  0.75570  1.0000
  H   H521      1.0  0.87248  0.40090  0.92525  1.0000
  Fe  Fe91      1.0  0.86182  0.36107  0.99845  1.0000
  C   C520      1.0  0.60701  0.03021  0.89513  1.0000
  Fe  Fe92      1.0  0.67725  0.10274  0.97302  1.0000
  S   S181      1.0  0.54732  0.29855  0.74884  1.0000
  S   S182      1.0  0.71542  0.11345  0.92726  1.0000
  Fe  Fe93      1.0  0.86446  0.44667  0.74661  1.0000
  C   C521      1.0  0.71044  0.19033  0.90341  1.0000
  S   S183      1.0  0.60759  0.09788  0.96840  1.0000
  C   C522      1.0  0.72998  0.08243  0.90316  1.0000
  C   C523      1.0  0.62340  0.11375  0.84755  1.0000
  H   H522      1.0  0.71389  0.25989  0.95895  1.0000
  C   C524      1.0  0.75158  0.03339  0.86320  1.0000
  C   C525      1.0  0.72846  0.02929  0.89246  1.0000
  C   C526      1.0  0.71764  0.05371  0.91235  1.0000
  C   C527      1.0  0.76414  0.06209  0.85401  1.0000
  C   C528      1.0  0.71254  0.24003  0.94380  1.0000
  H   H523      1.0  0.71856  0.00717  0.89968  1.0000
  H   H524      1.0  0.69951  0.05028  0.93467  1.0000
  H   H525      1.0  0.78186  0.06544  0.83141  1.0000
  C   C529      1.0  0.97557  0.22858  0.91501  1.0000
  H   H526      1.0  0.84395  0.40158  0.69875  1.0000
  C   C530      1.0  0.64335  0.06236  0.85479  1.0000
  H   H527      1.0  0.95765  0.44838  0.01975  1.0000
  H   H528      1.0  0.54439  0.96915  0.95970  1.0000
  C   C531      1.0  0.75331  0.08657  0.87397  1.0000
  C   C532      1.0  0.96028  0.37773  0.79384  1.0000
  C   C533      1.0  0.94110  0.40451  0.78443  1.0000
  H   H529      1.0  0.62706  0.01245  0.88427  1.0000
  H   H530      1.0  0.95011  0.35700  0.78292  1.0000
  N   N45       1.0  0.73537  0.21527  0.95194  1.0000
  C   C534      1.0  0.01077  0.00746  0.76158  1.0000
  H   H531      1.0  0.82097  0.22480  0.82649  1.0000
  Fe  Fe94      1.0  0.61562  0.05998  0.00375  1.0000
  H   H532      1.0  0.97685  0.00839  0.75901  1.0000
  C   C535      1.0  0.58587  0.08184  0.88555  1.0000
  C   C536      1.0  0.92433  0.25379  0.94969  1.0000
  C   C537      1.0  0.94398  0.28104  0.94270  1.0000
  H   H533      1.0  0.53323  0.06407  0.96838  1.0000
  S   S184      1.0  0.58416  0.01608  0.99500  1.0000
  S   S185      1.0  0.68611  0.06270  0.00553  1.0000
  H   H534      1.0  0.92540  0.20650  0.94125  1.0000
  H   H535      1.0  0.93198  0.30131  0.95351  1.0000
  C   C538      1.0  0.99432  0.09397  0.72552  1.0000
  H   H536      1.0  0.76294  0.10874  0.86672  1.0000
  S   S186      1.0  0.87535  0.00089  0.80146  1.0000
  C   C539      1.0  0.73516  0.31746  0.89473  1.0000
  C   C540      1.0  0.76380  0.29387  0.89576  1.0000
  C   C541      1.0  0.76194  0.27122  0.87204  1.0000
  C   C542      1.0  0.73146  0.27196  0.84717  1.0000
  C   C543      1.0  0.70269  0.29547  0.84616  1.0000
  C   C544      1.0  0.70466  0.31825  0.86987  1.0000
  H   H537      1.0  0.78726  0.29297  0.91495  1.0000
  H   H538      1.0  0.78369  0.25279  0.87342  1.0000
  H   H539      1.0  0.67902  0.29616  0.82709  1.0000
  H   H540      1.0  0.68229  0.33640  0.86907  1.0000
  H   H541      1.0  0.66407  0.04406  0.84839  1.0000
  H   H542      1.0  0.99395  0.30307  0.91593  1.0000
  H   H543      1.0  0.79401  0.22469  0.97416  1.0000
  Fe  Fe95      1.0  0.80589  0.00529  0.79410  1.0000
  Fe  Fe96      1.0  0.60263  0.12584  0.01408  1.0000
  H   H544      1.0  0.76668  0.19295  0.99145  1.0000
  N   N46       1.0  0.86715  0.25883  0.83449  1.0000
  C   C545      1.0  0.84253  0.28009  0.81994  1.0000
  C   C546      1.0  0.90470  0.26644  0.84844  1.0000
  C   C547      1.0  0.85487  0.30999  0.81985  1.0000
  C   C548      1.0  0.91822  0.29608  0.84845  1.0000
  C   C549      1.0  0.89296  0.31798  0.83424  1.0000
  C   C550      1.0  0.85426  0.22749  0.83429  1.0000
  H   H545      1.0  0.81295  0.27406  0.80849  1.0000
  H   H546      1.0  0.92454  0.24954  0.85958  1.0000
  H   H547      1.0  0.83505  0.32680  0.80855  1.0000
  H   H548      1.0  0.94821  0.30191  0.85931  1.0000
  H   H549      1.0  0.90299  0.34107  0.83420  1.0000
  H   H550      1.0  0.79474  0.39844  0.92572  1.0000
  H   H551      1.0  0.87446  0.21469  0.81692  1.0000
  H   H552      1.0  0.85702  0.21776  0.85946  1.0000
  H   H553      1.0  0.99754  0.45189  0.83247  1.0000
  H   H554      1.0  0.74889  0.22973  0.00095  1.0000
  C   C551      1.0  0.99251  0.37759  0.81739  1.0000
  C   C552      1.0  0.00615  0.40432  0.83135  1.0000
  C   C553      1.0  0.74272  0.41104  0.87594  1.0000
  C   C554      1.0  0.54319  0.01669  0.96631  1.0000
  N   N47       1.0  0.61204  0.05869  0.87777  1.0000
  S   S187      1.0  0.92853  0.06647  0.75615  1.0000
  C   C555      1.0  0.80924  0.42030  0.84706  1.0000
  S   S188      1.0  0.88353  0.99036  0.72074  1.0000
  C   C556      1.0  0.51634  0.18367  0.81968  1.0000
  C   C557      1.0  0.64966  0.08995  0.83950  1.0000
  C   C558      1.0  0.94034  0.22762  0.93586  1.0000
  H   H555      1.0  0.69750  0.12212  0.69734  1.0000
  C   C559      1.0  0.96702  0.06955  0.72485  1.0000
  C   C560      1.0  0.76257  0.21569  0.98103  1.0000
  S   S189      1.0  0.90386  0.40145  0.99822  1.0000
  C   C561      1.0  0.63239  0.13414  0.70438  1.0000
  C   C562      1.0  0.73481  0.19070  0.93204  1.0000
  C   C563      1.0  0.68678  0.21537  0.89508  1.0000
  H   H556      1.0  0.57028  0.12804  0.87671  1.0000
  H   H557      1.0  0.94064  0.45206  0.79099  1.0000
  C   C564      1.0  0.59110  0.10969  0.87055  1.0000
  H   H558      1.0  0.75327  0.17114  0.93820  1.0000
  H   H559      1.0  0.71016  0.17073  0.88779  1.0000
  C   C565      1.0  0.98706  0.43111  0.82186  1.0000
  H   H560      1.0  0.67506  0.09289  0.82179  1.0000
  H   H561      1.0  0.91026  0.41554  0.87353  1.0000
  H   H562      1.0  0.66855  0.21567  0.87250  1.0000
  C   C566      1.0  0.95471  0.43123  0.79840  1.0000
  H   H563      1.0  0.67001  0.26018  0.90884  1.0000
  N   N48       1.0  0.78873  0.41264  0.87563  1.0000
  H   H564      1.0  0.62793  0.13528  0.83586  1.0000
  H   H565      1.0  0.61598  0.03279  0.92148  1.0000
  H   H566      1.0  0.56095  0.07889  0.90363  1.0000
  C   C567      1.0  0.52350  0.04336  0.95740  1.0000
  C   C568      1.0  0.81099  0.40520  0.90327  1.0000
  H   H567      1.0  0.53227  0.20367  0.81181  1.0000
  H   H568      1.0  0.98762  0.20818  0.90435  1.0000
  C   C569      1.0  0.53043  0.15589  0.80869  1.0000
  C   C570      1.0  0.97946  0.28198  0.92178  1.0000
  H   H569      1.0  0.98989  0.11118  0.74387  1.0000
  H   H570      1.0  0.95187  0.02863  0.69999  1.0000
  Fe  Fe97      1.0  0.87190  0.96282  0.76620  1.0000
  S   S190      1.0  0.67196  0.13461  0.01543  1.0000
  S   S191      1.0  0.79305  0.36845  0.00718  1.0000
  H   H571      1.0  0.79161  0.42589  0.82503  1.0000
  C   C571      1.0  0.87615  0.41447  0.87411  1.0000
  S   S192      1.0  0.79443  0.44434  0.74173  1.0000
  S   S193      1.0  0.80205  0.96521  0.76138  1.0000
  C   C572      1.0  0.99532  0.25567  0.90798  1.0000
  C   C573      1.0  0.85316  0.42138  0.84588  1.0000
  H   H572      1.0  0.57380  0.02260  0.89396  1.0000
  H   H573      1.0  0.73238  0.38940  0.86556  1.0000
  H   H574      1.0  0.63180  0.12842  0.73044  1.0000
  S   S194      1.0  0.55685  0.16422  0.01715  1.0000
  H   H575      1.0  0.00669  0.35678  0.82473  1.0000
  H   H576      1.0  0.86912  0.42774  0.82321  1.0000
  H   H577      1.0  0.72895  0.42956  0.86123  1.0000
  H   H578      1.0  0.72983  0.41282  0.90145  1.0000
  H   H579      1.0  0.56787  0.14856  0.70378  1.0000
  C   C574      1.0  0.74022  0.53469  0.13598  1.0000
  Fe  Fe98      1.0  0.79050  0.48680  0.26502  1.0000
  S   S195      1.0  0.76285  0.83923  0.07649  1.0000
  S   S196      1.0  0.86013  0.48163  0.27145  1.0000
  C   C575      1.0  0.93914  0.50633  0.07085  1.0000
  C   C576      1.0  0.73505  0.51384  0.33498  1.0000
  Fe  Fe99      1.0  0.65900  0.73512  0.20465  1.0000
  S   S197      1.0  0.66397  0.77505  0.23762  1.0000
  S   S198      1.0  0.69030  0.72775  0.15508  1.0000
  Fe  Fe100     1.0  0.59715  0.70336  0.25120  1.0000
  S   S199      1.0  0.59655  0.74078  0.28759  1.0000
  H   H580      1.0  0.57812  0.73228  0.09899  1.0000
  Fe  Fe101     1.0  0.59377  0.76984  0.24241  1.0000
  C   C577      1.0  0.60036  0.81822  0.15808  1.0000
  Fe  Fe102     1.0  0.66642  0.74222  0.27961  1.0000
  S   S200      1.0  0.71097  0.73890  0.32283  1.0000
  S   S201      1.0  0.58874  0.73222  0.20652  1.0000
  S   S202      1.0  0.66721  0.70245  0.24606  1.0000
  H   H581      1.0  0.84147  0.86475  0.30377  1.0000
  S   S203      1.0  0.79591  0.52091  0.22423  1.0000
  H   H582      1.0  0.52799  0.83291  0.12873  1.0000
  H   H583      1.0  0.95122  0.86272  0.04405  1.0000
  H   H584      1.0  0.00366  0.86201  0.08903  1.0000
  S   S204      1.0  0.89477  0.91282  0.27726  1.0000
  C   C578      1.0  0.91733  0.54623  0.10687  1.0000
  S   S205      1.0  0.74909  0.48288  0.31050  1.0000
  Fe  Fe103     1.0  0.86543  0.51200  0.22757  1.0000
  S   S206      1.0  0.91178  0.54953  0.22443  1.0000
  C   C579      1.0  0.59851  0.67992  0.35295  1.0000
  Fe  Fe104     1.0  0.80295  0.83444  0.03028  1.0000
  S   S207      1.0  0.86655  0.47542  0.19038  1.0000
  H   H585      1.0  0.79810  0.81933  0.29497  1.0000
  H   H586      1.0  0.83084  0.52737  0.14933  1.0000
  Fe  Fe105     1.0  0.79675  0.48186  0.18967  1.0000
  C   C580      1.0  0.99350  0.49467  0.26063  1.0000
  C   C581      1.0  0.87270  0.50440  0.09989  1.0000
  H   H587      1.0  0.70993  0.65865  0.14716  1.0000
  C   C582      1.0  0.69515  0.65686  0.12245  1.0000
  H   H588      1.0  0.95714  0.59634  0.19367  1.0000
  S   S208      1.0  0.68207  0.58674  0.06836  1.0000
  C   C583      1.0  0.51538  0.79354  0.10063  1.0000
  H   H589      1.0  0.84340  0.49292  0.10509  1.0000
  C   C584      1.0  0.96468  0.88335  0.05253  1.0000
  C   C585      1.0  0.72138  0.55892  0.11979  1.0000
  H   H590      1.0  0.81270  0.92401  0.17748  1.0000
  H   H591      1.0  0.72948  0.48268  0.07580  1.0000
  H   H592      1.0  0.87595  0.89405  0.07093  1.0000
  H   H593      1.0  0.65329  0.68462  0.32216  1.0000
  C   C586      1.0  0.96522  0.52190  0.17976  1.0000
  C   C587      1.0  0.95035  0.54866  0.19324  1.0000
  C   C588      1.0  0.96827  0.57562  0.18318  1.0000
  C   C589      1.0  0.73114  0.56712  0.34505  1.0000
  H   H594      1.0  0.95195  0.50094  0.18774  1.0000
  H   H595      1.0  0.64692  0.66769  0.17569  1.0000
  C   C590      1.0  0.70513  0.55570  0.08786  1.0000
  C   C591      1.0  0.74338  0.50716  0.12014  1.0000
  S   S209      1.0  0.55246  0.81020  0.23871  1.0000
  H   H596      1.0  0.81149  0.77424  0.32808  1.0000
  C   C592      1.0  0.96515  0.88712  0.30336  1.0000
  C   C593      1.0  0.94447  0.91387  0.29603  1.0000
  C   C594      1.0  0.96286  0.94092  0.30500  1.0000
  H   H597      1.0  0.95130  0.86613  0.29617  1.0000
  H   H598      1.0  0.98552  0.47513  0.24509  1.0000
  C   C595      1.0  0.56180  0.65400  0.12800  1.0000
  C   C596      1.0  0.72724  0.50394  0.08818  1.0000
  N   N49       1.0  0.57017  0.56489  0.34663  1.0000
  Fe  Fe106     1.0  0.86411  0.95732  0.26819  1.0000
  N   N50       1.0  0.88116  0.53119  0.11446  1.0000
  H   H599      1.0  0.56937  0.66539  0.17942  1.0000
  C   C597      1.0  0.52920  0.76503  0.09236  1.0000
  H   H600      1.0  0.69556  0.52542  0.04751  1.0000
  C   C598      1.0  0.95270  0.91033  0.03806  1.0000
  H   H601      1.0  0.69316  0.80225  0.31439  1.0000
  C   C599      1.0  0.74370  0.80780  0.09806  1.0000
  C   C600      1.0  0.72280  0.81201  0.12833  1.0000
  C   C601      1.0  0.70690  0.78758  0.14619  1.0000
  C   C602      1.0  0.71141  0.75874  0.13376  1.0000
  C   C603      1.0  0.73212  0.75451  0.10341  1.0000
  C   C604      1.0  0.74842  0.77895  0.08566  1.0000
  H   H602      1.0  0.71921  0.83425  0.13811  1.0000
  H   H603      1.0  0.69134  0.79110  0.16961  1.0000
  H   H604      1.0  0.73576  0.73228  0.09360  1.0000
  H   H605      1.0  0.76444  0.77549  0.06234  1.0000
  H   H606      1.0  0.73986  0.89495  0.11737  1.0000
  N   N51       1.0  0.64917  0.65568  0.12473  1.0000
  C   C605      1.0  0.62656  0.64907  0.09710  1.0000
  C   C606      1.0  0.62905  0.66190  0.15390  1.0000
  C   C607      1.0  0.58265  0.64808  0.09831  1.0000
  C   C608      1.0  0.58511  0.66094  0.15605  1.0000
  C   C609      1.0  0.72309  0.77057  0.34657  1.0000
  C   C610      1.0  0.99837  0.52226  0.15654  1.0000
  H   H607      1.0  0.64255  0.64423  0.07397  1.0000
  C   C611      1.0  0.00353  0.88733  0.32029  1.0000
  H   H608      1.0  0.73768  0.58966  0.33711  1.0000
  H   H609      1.0  0.57701  0.68681  0.33371  1.0000
  H   H610      1.0  0.76005  0.54710  0.30195  1.0000
  H   H611      1.0  0.61199  0.80456  0.17905  1.0000
  C   C612      1.0  0.00049  0.57602  0.15953  1.0000
  S   S210      1.0  0.87325  0.83203  0.03457  1.0000
  H   H612      1.0  0.99996  0.55390  0.25410  1.0000
  C   C613      1.0  0.51719  0.65961  0.28198  1.0000
  S   S211      1.0  0.56384  0.65953  0.25845  1.0000
  H   H613      1.0  0.56509  0.64249  0.07634  1.0000
  H   H614      1.0  0.58124  0.83638  0.16923  1.0000
  C   C614      1.0  0.85036  0.54465  0.13698  1.0000
  H   H615      1.0  0.89503  0.47013  0.06668  1.0000
  H   H616      1.0  0.70752  0.63641  0.11039  1.0000
  H   H617      1.0  0.70490  0.67664  0.10779  1.0000
  H   H618      1.0  0.52768  0.65310  0.12925  1.0000
  H   H619      1.0  0.86619  0.55735  0.15692  1.0000
  H   H620      1.0  0.92382  0.56767  0.11803  1.0000
  C   C615      1.0  0.58973  0.77221  0.12705  1.0000
  C   C616      1.0  0.70799  0.52811  0.07211  1.0000
  H   H621      1.0  0.75204  0.53734  0.16074  1.0000
  S   S212      1.0  0.76821  0.47654  0.13917  1.0000
  C   C617      1.0  0.57838  0.59685  0.34275  1.0000
  H   H622      1.0  0.89001  0.91986  0.17252  1.0000
  C   C618      1.0  0.88835  0.90668  0.12131  1.0000
  C   C619      1.0  0.90168  0.49145  0.07807  1.0000
  H   H623      1.0  0.97591  0.54582  0.07956  1.0000
  H   H624      1.0  0.72098  0.66695  0.33684  1.0000
  H   H625      1.0  0.79903  0.89818  0.07703  1.0000
  C   C620      1.0  0.99458  0.88297  0.07791  1.0000
  H   H626      1.0  0.92224  0.90476  0.11879  1.0000
  H   H627      1.0  0.82918  0.55976  0.12306  1.0000
  N   N52       1.0  0.57552  0.79991  0.13555  1.0000
  N   N53       1.0  0.80144  0.91075  0.12774  1.0000
  C   C621      1.0  0.81890  0.90296  0.09806  1.0000
  C   C622      1.0  0.82652  0.91718  0.15413  1.0000
  C   C623      1.0  0.86250  0.90064  0.09444  1.0000
  H   H628      1.0  0.74506  0.91275  0.15679  1.0000
  C   C624      1.0  0.56676  0.75429  0.10547  1.0000
  H   H629      1.0  0.74542  0.93510  0.11992  1.0000
  C   C625      1.0  0.75566  0.91350  0.13060  1.0000
  C   C626      1.0  0.87827  0.84461  0.34236  1.0000
  C   C627      1.0  0.87031  0.91510  0.15139  1.0000
  C   C628      1.0  0.00110  0.94113  0.32213  1.0000
  H   H630      1.0  0.71902  0.58015  0.13219  1.0000
  C   C629      1.0  0.97117  0.93687  0.04889  1.0000
  C   C630      1.0  0.94689  0.53401  0.08505  1.0000
  H   H631      1.0  0.62759  0.82807  0.14469  1.0000
  H   H632      1.0  0.01379  0.59707  0.15162  1.0000
  C   C631      1.0  0.71141  0.79922  0.33660  1.0000
  H   H633      1.0  0.61895  0.76380  0.13707  1.0000
  H   H634      1.0  0.83463  0.93278  0.33017  1.0000
  C   C632      1.0  0.74384  0.54305  0.32509  1.0000
  C   C633      1.0  0.53925  0.81088  0.12220  1.0000
  H   H635      1.0  0.96451  0.50846  0.26254  1.0000
  C   C634      1.0  0.82283  0.81938  0.31331  1.0000
  C   C635      1.0  0.83684  0.93014  0.35671  1.0000
  H   H636      1.0  0.76083  0.93224  0.33405  1.0000
  H   H637      1.0  0.89728  0.86428  0.34640  1.0000
  H   H638      1.0  0.00207  0.48692  0.28576  1.0000
  C   C636      1.0  0.53679  0.55239  0.33066  1.0000
  C   C637      1.0  0.84692  0.84487  0.31843  1.0000
  H   H639      1.0  0.00964  0.50166  0.14598  1.0000
  C   C638      1.0  0.55404  0.50441  0.35383  1.0000
  H   H640      1.0  0.96209  0.49659  0.05415  1.0000
  C   C639      1.0  0.52833  0.52195  0.33390  1.0000
  C   C640      1.0  0.83046  0.79391  0.33229  1.0000
  H   H641      1.0  0.57951  0.60296  0.31611  1.0000
  C   C641      1.0  0.00116  0.93648  0.07423  1.0000
  H   H642      1.0  0.55312  0.60985  0.35510  1.0000
  C   C642      1.0  0.64172  0.67844  0.34648  1.0000
  H   H643      1.0  0.71446  0.84617  0.34758  1.0000
  C   C643      1.0  0.72362  0.82407  0.35537  1.0000
  H   H644      1.0  0.60914  0.60329  0.35360  1.0000
  H   H645      1.0  0.51637  0.56594  0.31545  1.0000
  C   C644      1.0  0.01297  0.90951  0.08880  1.0000
  H   H646      1.0  0.51547  0.70706  0.28931  1.0000
  N   N54       1.0  0.86082  0.79400  0.35609  1.0000
  H   H647      1.0  0.90427  0.93567  0.35666  1.0000
  Fe  Fe107     1.0  0.86881  0.80222  0.48004  1.0000
  S   S213      1.0  0.87210  0.84037  0.44472  1.0000
  S   S214      1.0  0.90465  0.76045  0.46874  1.0000
  Fe  Fe108     1.0  0.80254  0.84261  0.45214  1.0000
  S   S215      1.0  0.76361  0.85187  0.40674  1.0000
  S   S216      1.0  0.79827  0.80227  0.48484  1.0000
  Fe  Fe109     1.0  0.65845  0.58323  0.44704  1.0000
  H   H648      1.0  0.90058  0.75943  0.37354  1.0000
  S   S217      1.0  0.69273  0.59272  0.39895  1.0000
  C   C645      1.0  0.72988  0.49372  0.59713  1.0000
  C   C646      1.0  0.76019  0.92355  0.35976  1.0000
  S   S218      1.0  0.58811  0.58446  0.44599  1.0000
  C   C647      1.0  0.71003  0.56210  0.37510  1.0000
  H   H649      1.0  0.55008  0.67433  0.38996  1.0000
  C   C648      1.0  0.59889  0.76889  0.62153  1.0000
  H   H650      1.0  0.93452  0.56914  0.61357  1.0000
  C   C649      1.0  0.64528  0.64391  0.58912  1.0000
  C   C650      1.0  0.70167  0.53287  0.38510  1.0000
  H   H651      1.0  0.85701  0.92487  0.54322  1.0000
  H   H652      1.0  0.92605  0.87605  0.55230  1.0000
  H   H653      1.0  0.77313  0.77560  0.56044  1.0000
  H   H654      1.0  0.68558  0.52868  0.40822  1.0000
  H   H655      1.0  0.97998  0.95368  0.50686  1.0000
  H   H656      1.0  0.00240  0.83223  0.52522  1.0000
  C   C651      1.0  0.57709  0.65072  0.61445  1.0000
  S   S219      1.0  0.55185  0.50575  0.47347  1.0000
  C   C652      1.0  0.94527  0.76285  0.43932  1.0000
  C   C653      1.0  0.96299  0.79018  0.42989  1.0000
  C   C654      1.0  0.87964  0.92833  0.40567  1.0000
  H   H657      1.0  0.60688  0.50419  0.38693  1.0000
  C   C655      1.0  0.80444  0.92186  0.40888  1.0000
  C   C656      1.0  0.96123  0.73646  0.42601  1.0000
  H   H658      1.0  0.95153  0.81061  0.44064  1.0000
  H   H659      1.0  0.83479  0.56722  0.62873  1.0000
  H   H660      1.0  0.77651  0.91734  0.42358  1.0000
  H   H661      1.0  0.94771  0.71529  0.43321  1.0000
  C   C657      1.0  0.74750  0.82038  0.38414  1.0000
  C   C658      1.0  0.75902  0.79170  0.39407  1.0000
  N   N55       1.0  0.80148  0.92554  0.37544  1.0000
  C   C659      1.0  0.65461  0.66292  0.40158  1.0000
  H   H662      1.0  0.69854  0.51426  0.55558  1.0000
  C   C660      1.0  0.99500  0.92597  0.58428  1.0000
  H   H663      1.0  0.77749  0.78858  0.41608  1.0000
  H   H664      1.0  0.72205  0.65562  0.64424  1.0000
  C   C661      1.0  0.88187  0.94810  0.58530  1.0000
  Fe  Fe110     1.0  0.80910  0.83395  0.52692  1.0000
  S   S220      1.0  0.80761  0.87468  0.49443  1.0000
  S   S221      1.0  0.77422  0.83918  0.57556  1.0000
  Fe  Fe111     1.0  0.87728  0.86837  0.49017  1.0000
  H   H665      1.0  0.96503  0.88654  0.60349  1.0000
  S   S222      1.0  0.87958  0.82978  0.52524  1.0000
  Fe  Fe112     1.0  0.59182  0.61224  0.49169  1.0000
  S   S223      1.0  0.59069  0.57381  0.52697  1.0000
  S   S224      1.0  0.55474  0.65478  0.49735  1.0000
  H   H666      1.0  0.77054  0.53119  0.66231  1.0000
  H   H667      1.0  0.84577  0.92079  0.45102  1.0000
  S   S225      1.0  0.66202  0.61498  0.48966  1.0000
  C   C662      1.0  0.52101  0.78684  0.59849  1.0000
  Fe  Fe113     1.0  0.66112  0.57430  0.52223  1.0000
  S   S226      1.0  0.70124  0.57839  0.56820  1.0000
  C   C663      1.0  0.75519  0.52735  0.63903  1.0000
  C   C664      1.0  0.71387  0.50888  0.36500  1.0000
  N   N56       1.0  0.66436  0.65317  0.61746  1.0000
  N   N57       1.0  0.66906  0.66962  0.37056  1.0000
  C   C665      1.0  0.74678  0.76691  0.37540  1.0000
  H   H668      1.0  0.75553  0.92607  0.64088  1.0000
  H   H669      1.0  0.84284  0.50233  0.63305  1.0000
  C   C666      1.0  0.97710  0.93877  0.52777  1.0000
  N   N58       1.0  0.58333  0.79621  0.63009  1.0000
  H   H670      1.0  0.90942  0.81863  0.37951  1.0000
  H   H671      1.0  0.60037  0.65906  0.43369  1.0000
  H   H672      1.0  0.51763  0.74393  0.57498  1.0000
  C   C667      1.0  0.71939  0.54706  0.59048  1.0000
  C   C668      1.0  0.59492  0.54794  0.36680  1.0000
  C   C669      1.0  0.95071  0.91385  0.52586  1.0000
  H   H673      1.0  0.72909  0.68970  0.37272  1.0000
  C   C670      1.0  0.71429  0.51801  0.57879  1.0000
  H   H674      1.0  0.74380  0.73250  0.59148  1.0000
  C   C671      1.0  0.75029  0.49830  0.62735  1.0000
  C   C672      1.0  0.99916  0.94485  0.55695  1.0000
  C   C673      1.0  0.75378  0.80787  0.59668  1.0000
  C   C674      1.0  0.73330  0.81207  0.62712  1.0000
  C   C675      1.0  0.71685  0.78770  0.64478  1.0000
  C   C676      1.0  0.72061  0.75890  0.63210  1.0000
  C   C677      1.0  0.74079  0.75468  0.60153  1.0000
  C   C678      1.0  0.75742  0.77908  0.58388  1.0000
  H   H675      1.0  0.73045  0.83425  0.63721  1.0000
  H   H676      1.0  0.79872  0.90189  0.57502  1.0000
  H   H677      1.0  0.72481  0.63544  0.60608  1.0000
  C   C679      1.0  0.87639  0.93171  0.37154  1.0000
  C   C680      1.0  0.00844  0.78865  0.50352  1.0000
  H   H678      1.0  0.75600  0.74483  0.38324  1.0000
  C   C681      1.0  0.86104  0.55905  0.64428  1.0000
  H   H679      1.0  0.73687  0.93725  0.37352  1.0000
  Fe  Fe114     1.0  0.59255  0.54598  0.48098  1.0000
  C   C682      1.0  0.96868  0.90108  0.58232  1.0000
  H   H680      1.0  0.74388  0.57398  0.62988  1.0000
  C   C683      1.0  0.94829  0.52599  0.59366  1.0000
  S   S227      1.0  0.66322  0.54256  0.47921  1.0000
  C   C684      1.0  0.71435  0.66886  0.36373  1.0000
  H   H681      1.0  0.72925  0.64939  0.37602  1.0000
  C   C685      1.0  0.99484  0.73723  0.40360  1.0000
  C   C686      1.0  0.87741  0.95344  0.61903  1.0000
  N   N59       1.0  0.81665  0.92169  0.62068  1.0000
  C   C687      1.0  0.96397  0.52537  0.68906  1.0000
  C   C688      1.0  0.84431  0.94006  0.63642  1.0000
  C   C689      1.0  0.82079  0.91633  0.58756  1.0000
  H   H682      1.0  0.00933  0.60000  0.65622  1.0000
  H   H683      1.0  0.72596  0.47134  0.58786  1.0000
  C   C690      1.0  0.54528  0.80553  0.61834  1.0000
  H   H684      1.0  0.95407  0.48040  0.57773  1.0000
  C   C691      1.0  0.57559  0.74966  0.60162  1.0000
  C   C692      1.0  0.93483  0.49655  0.59081  1.0000
  C   C693      1.0  0.84348  0.92342  0.42449  1.0000
  C   C694      1.0  0.58733  0.51748  0.37068  1.0000
  H   H685      1.0  0.70164  0.79125  0.66833  1.0000
  H   H686      1.0  0.62945  0.76182  0.63026  1.0000
  C   C695      1.0  0.73998  0.55160  0.62061  1.0000
  N   N60       1.0  0.88661  0.53763  0.62572  1.0000
  H   H687      1.0  0.62062  0.55790  0.38018  1.0000
  C   C696      1.0  0.87257  0.50906  0.62219  1.0000
  H   H688      1.0  0.58670  0.63482  0.56473  1.0000
  C   C697      1.0  0.94669  0.89500  0.55320  1.0000
  H   H689      1.0  0.88006  0.57831  0.65276  1.0000
  S   S228      1.0  0.77044  0.46745  0.64952  1.0000
  C   C698      1.0  0.99711  0.79091  0.40761  1.0000
  C   C699      1.0  0.71032  0.65507  0.61846  1.0000
  C   C700      1.0  0.61164  0.66435  0.40899  1.0000
  C   C701      1.0  0.51585  0.50791  0.44088  1.0000
  H   H690      1.0  0.97762  0.78115  0.51174  1.0000
  H   H691      1.0  0.58934  0.83421  0.66167  1.0000
  H   H692      1.0  0.70703  0.48634  0.37282  1.0000
  S   S229      1.0  0.69933  0.72794  0.65346  1.0000
  C   C702      1.0  0.89653  0.48804  0.60492  1.0000
  C   C703      1.0  0.64075  0.66182  0.64414  1.0000
  H   H693      1.0  0.97823  0.53288  0.58309  1.0000
  C   C704      1.0  0.58346  0.67289  0.38446  1.0000
  C   C705      1.0  0.78101  0.90917  0.63911  1.0000
  C   C706      1.0  0.53625  0.75867  0.59024  1.0000
  C   C707      1.0  0.60848  0.81580  0.65104  1.0000
  C   C708      1.0  0.86783  0.76764  0.37676  1.0000
  C   C709      1.0  0.92348  0.54641  0.61111  1.0000
  H   H694      1.0  0.63501  0.82539  0.63658  1.0000
  C   C710      1.0  0.60147  0.64247  0.58721  1.0000
  H   H695      1.0  0.76862  0.88879  0.62698  1.0000
  H   H696      1.0  0.57829  0.66690  0.66464  1.0000
  C   C711      1.0  0.59680  0.66051  0.64316  1.0000
  H   H697      1.0  0.72093  0.67578  0.60587  1.0000
  H   H698      1.0  0.58808  0.72797  0.59506  1.0000
  H   H699      1.0  0.67639  0.65616  0.42073  1.0000
  C   C712      1.0  0.85353  0.92936  0.56941  1.0000
  C   C713      1.0  0.99730  0.52525  0.66603  1.0000
  H   H700      1.0  0.66400  0.63732  0.56786  1.0000
  S   S230      1.0  0.92212  0.90735  0.48950  1.0000
  H   H701      1.0  0.00959  0.50437  0.65704  1.0000
  H   H702      1.0  0.91007  0.92947  0.41763  1.0000
  H   H703      1.0  0.54304  0.64944  0.61326  1.0000
  H   H704      1.0  0.79055  0.90279  0.66450  1.0000
  C   C714      1.0  0.99687  0.57911  0.66538  1.0000
  H   H705      1.0  0.84054  0.94477  0.66253  1.0000
  H   H706      1.0  0.53307  0.82732  0.62475  1.0000
  C   C715      1.0  0.01325  0.76433  0.39464  1.0000
  H   H707      1.0  0.00711  0.71663  0.39358  1.0000
  H   H708      1.0  0.65586  0.66981  0.66639  1.0000
  H   H709      1.0  0.84794  0.54852  0.66701  1.0000
  H   H710      1.0  0.74944  0.90002  0.35949  1.0000
  H   H711      1.0  0.86263  0.77328  0.40320  1.0000
  C   C716      1.0  0.88493  0.81878  0.36100  1.0000
  C   C717      1.0  0.96411  0.57921  0.68858  1.0000
  H   H712      1.0  0.62119  0.80318  0.67241  1.0000
  C   C718      1.0  0.01351  0.55221  0.65397  1.0000
  H   H713      1.0  0.88542  0.46531  0.60267  1.0000
  H   H714      1.0  0.51723  0.46059  0.43272  1.0000
  H   H715      1.0  0.84603  0.74917  0.37064  1.0000
  H   H716      1.0  0.01091  0.81196  0.40055  1.0000
  H   H717      1.0  0.54755  0.48085  0.35686  1.0000
  Fe  Fe115     1.0  0.87032  0.80476  0.98827  1.0000
  S   S231      1.0  0.87653  0.84339  0.95370  1.0000
  S   S232      1.0  0.90962  0.76412  0.97902  1.0000
  Fe  Fe116     1.0  0.80617  0.84357  0.95521  1.0000
  S   S233      1.0  0.77201  0.85249  0.90724  1.0000
  S   S234      1.0  0.79960  0.80291  0.98718  1.0000
  N   N61       1.0  0.59536  0.54481  0.84975  1.0000
  S   S235      1.0  0.66906  0.77655  0.73447  1.0000
  C   C719      1.0  0.88591  0.82849  0.86550  1.0000
  Fe  Fe117     1.0  0.60180  0.70499  0.74741  1.0000
  S   S236      1.0  0.59920  0.74308  0.78295  1.0000
  H   H718      1.0  0.84799  0.75911  0.87818  1.0000
  Fe  Fe118     1.0  0.59867  0.77124  0.73702  1.0000
  H   H719      1.0  0.72576  0.69450  0.87764  1.0000
  Fe  Fe119     1.0  0.66951  0.74460  0.77739  1.0000
  S   S237      1.0  0.71182  0.74178  0.82227  1.0000
  H   H720      1.0  0.91637  0.93291  0.90683  1.0000
  S   S238      1.0  0.67209  0.70418  0.74468  1.0000
  S   S239      1.0  0.57855  0.57701  0.01953  1.0000
  S   S240      1.0  0.79496  0.51659  0.73026  1.0000
  H   H721      1.0  0.54146  0.56432  0.87250  1.0000
  H   H722      1.0  0.84388  0.87136  0.80474  1.0000
  C   C720      1.0  0.82742  0.82572  0.81517  1.0000
  S   S241      1.0  0.89999  0.91790  0.77807  1.0000
  H   H723      1.0  0.72823  0.65421  0.88058  1.0000
  S   S242      1.0  0.74877  0.48218  0.81723  1.0000
  Fe  Fe120     1.0  0.86529  0.51287  0.73472  1.0000
  S   S243      1.0  0.90451  0.55397  0.72790  1.0000
  C   C721      1.0  0.83514  0.80110  0.83547  1.0000
  S   S244      1.0  0.64991  0.62092  0.98587  1.0000
  Fe  Fe121     1.0  0.65407  0.58783  0.94447  1.0000
  H   H724      1.0  0.99748  0.77464  0.01420  1.0000
  S   S245      1.0  0.69282  0.59621  0.89844  1.0000
  C   C722      1.0  0.74693  0.54271  0.82955  1.0000
  H   H725      1.0  0.72448  0.67195  0.84105  1.0000
  S   S246      1.0  0.58432  0.58563  0.93850  1.0000
  C   C723      1.0  0.71008  0.56442  0.87676  1.0000
  S   S247      1.0  0.86329  0.48548  0.78122  1.0000
  H   H726      1.0  0.80411  0.82436  0.79578  1.0000
  C   C724      1.0  0.73564  0.51415  0.84020  1.0000
  C   C725      1.0  0.71173  0.51082  0.86919  1.0000
  C   C726      1.0  0.69900  0.53585  0.88741  1.0000
  S   S248      1.0  0.55737  0.81125  0.73008  1.0000
  Fe  Fe122     1.0  0.80164  0.47576  0.69885  1.0000
  H   H727      1.0  0.70286  0.48880  0.87755  1.0000
  H   H728      1.0  0.68044  0.53298  0.90960  1.0000
  H   H729      1.0  0.76532  0.54547  0.80718  1.0000
  H   H730      1.0  0.51757  0.46077  0.92535  1.0000
  H   H731      1.0  0.52024  0.70826  0.78617  1.0000
  H   H732      1.0  0.73989  0.90926  0.87989  1.0000
  H   H733      1.0  0.58109  0.68831  0.82560  1.0000
  H   H734      1.0  0.59126  0.65840  0.92614  1.0000
  S   S249      1.0  0.65889  0.54827  0.97824  1.0000
  C   C727      1.0  0.96780  0.89067  0.80624  1.0000
  C   C728      1.0  0.94891  0.91786  0.79794  1.0000
  C   C729      1.0  0.94718  0.55243  0.70020  1.0000
  Fe  Fe123     1.0  0.66601  0.73602  0.70220  1.0000
  H   H735      1.0  0.82079  0.94718  0.83416  1.0000
  S   S250      1.0  0.53724  0.65452  0.98514  1.0000
  H   H736      1.0  0.89560  0.94819  0.85002  1.0000
  Fe  Fe124     1.0  0.87414  0.87079  0.99979  1.0000
  C   C730      1.0  0.87902  0.85353  0.84562  1.0000
  S   S251      1.0  0.80405  0.87531  0.99803  1.0000
  C   C731      1.0  0.94594  0.76661  0.94633  1.0000
  C   C732      1.0  0.96485  0.79368  0.93748  1.0000
  H   H737      1.0  0.90328  0.76803  0.87728  1.0000
  C   C733      1.0  0.84948  0.85210  0.82037  1.0000
  H   H738      1.0  0.95239  0.86996  0.80009  1.0000
  C   C734      1.0  0.95761  0.74054  0.92990  1.0000
  H   H739      1.0  0.95676  0.81380  0.95060  1.0000
  H   H740      1.0  0.01098  0.81522  0.90628  1.0000
  H   H741      1.0  0.61532  0.50039  0.86161  1.0000
  H   H742      1.0  0.94307  0.71958  0.93661  1.0000
  C   C735      1.0  0.75330  0.82168  0.88460  1.0000
  C   C736      1.0  0.76178  0.79254  0.89475  1.0000
  C   C737      1.0  0.74831  0.76835  0.87559  1.0000
  C   C738      1.0  0.72601  0.77300  0.84621  1.0000
  C   C739      1.0  0.71718  0.80214  0.83612  1.0000
  C   C740      1.0  0.73090  0.82640  0.85525  1.0000
  H   H743      1.0  0.77905  0.78860  0.91722  1.0000
  H   H744      1.0  0.75543  0.74593  0.88355  1.0000
  H   H745      1.0  0.70008  0.80599  0.81350  1.0000
  H   H746      1.0  0.72420  0.84888  0.84721  1.0000
  C   C741      1.0  0.73410  0.56779  0.84779  1.0000
  C   C742      1.0  0.00819  0.76812  0.89676  1.0000
  C   C743      1.0  0.00831  0.94397  0.82148  1.0000
  H   H747      1.0  0.89654  0.87389  0.84961  1.0000
  H   H748      1.0  0.81762  0.78075  0.83128  1.0000
  S   S252      1.0  0.56790  0.66120  0.75377  1.0000
  N   N62       1.0  0.86361  0.80288  0.86060  1.0000
  C   C744      1.0  0.96916  0.94450  0.80569  1.0000
  C   C745      1.0  0.75526  0.93020  0.87146  1.0000
  C   C746      1.0  0.57010  0.59400  0.83736  1.0000
  H   H749      1.0  0.86144  0.91652  0.94681  1.0000
  H   H750      1.0  0.73900  0.94959  0.88276  1.0000
  C   C747      1.0  0.59159  0.51729  0.86909  1.0000
  H   H751      1.0  0.90920  0.82960  0.88491  1.0000
  C   C748      1.0  0.99615  0.79441  0.91278  1.0000
  H   H752      1.0  0.86891  0.78376  0.90847  1.0000
  S   S253      1.0  0.55243  0.50626  0.96564  1.0000
  H   H753      1.0  0.99716  0.72100  0.89248  1.0000
  H   H754      1.0  0.64981  0.53058  0.82297  1.0000
  N   N63       1.0  0.79971  0.93043  0.88075  1.0000
  H   H755      1.0  0.54680  0.67341  0.87853  1.0000
  Fe  Fe125     1.0  0.58833  0.54831  0.97493  1.0000
  Fe  Fe126     1.0  0.79346  0.48520  0.77363  1.0000
  Fe  Fe127     1.0  0.58022  0.61465  0.98327  1.0000
  S   S254      1.0  0.59573  0.73301  0.70185  1.0000
  C   C749      1.0  0.56687  0.56717  0.85481  1.0000
  S   S255      1.0  0.91452  0.91162  0.00673  1.0000
  H   H756      1.0  0.74280  0.58984  0.83941  1.0000
  C   C750      1.0  0.81076  0.92229  0.91209  1.0000
  H   H757      1.0  0.78692  0.91497  0.92960  1.0000
  C   C751      1.0  0.85284  0.92295  0.92189  1.0000
  N   N64       1.0  0.66795  0.67249  0.86992  1.0000
  C   C752      1.0  0.64950  0.66461  0.89927  1.0000
  C   C753      1.0  0.64379  0.68117  0.84379  1.0000
  C   C754      1.0  0.60571  0.66462  0.90278  1.0000
  C   C755      1.0  0.59994  0.68135  0.84639  1.0000
  C   C756      1.0  0.58081  0.67302  0.87609  1.0000
  C   C757      1.0  0.71389  0.67330  0.86721  1.0000
  H   H758      1.0  0.66874  0.65801  0.92009  1.0000
  H   H759      1.0  0.65841  0.68832  0.82084  1.0000
  C   C758      1.0  0.88365  0.93215  0.89944  1.0000
  C   C759      1.0  0.63147  0.57484  0.80938  1.0000
  C   C760      1.0  0.00686  0.89012  0.82218  1.0000
  C   C761      1.0  0.87133  0.77714  0.88207  1.0000
  H   H760      1.0  0.75125  0.93178  0.84426  1.0000
  C   C762      1.0  0.62720  0.54826  0.82718  1.0000
  C   C763      1.0  0.82964  0.93991  0.85872  1.0000
  S   S256      1.0  0.87201  0.47404  0.70057  1.0000
  H   H761      1.0  0.54742  0.61166  0.84148  1.0000
  C   C764      1.0  0.60266  0.59781  0.81451  1.0000
  C   C765      1.0  0.98822  0.74135  0.90495  1.0000
  H   H762      1.0  0.65715  0.57756  0.79187  1.0000
  C   C766      1.0  0.52193  0.66089  0.77819  1.0000
  H   H763      1.0  0.95156  0.50460  0.69833  1.0000
  H   H764      1.0  0.55990  0.50735  0.86581  1.0000
  C   C767      1.0  0.87205  0.94070  0.86763  1.0000
  Fe  Fe128     1.0  0.64891  0.58103  0.01952  1.0000
  H   H765      1.0  0.95140  0.60018  0.69723  1.0000
  H   H766      1.0  0.59633  0.52209  0.89575  1.0000
  H   H767      1.0  0.60544  0.61845  0.80066  1.0000
  H   H768      1.0  0.51435  0.61335  0.77443  1.0000
  C   C768      1.0  0.51539  0.50805  0.93382  1.0000
