data_image0
_chemical_formula_structural       C2HFeH2SH2FeH4CSHCSC2SC2HNC3HNCHC2H4CHC3HS2H2C2HSFeH3CHNCHSC2H3CFeC2SCFe2H2CHCSHC2HCH2CHNCHCHCSCSC2HSFe2HSHCHCH3CNHCSNHC2NSHCHCNC3SH2FeHC2FeSHCFeCH2CSCHC2HC4FeC2S2HSFeC2S2CFeSH3C3H3CHC3H2CH4CSH2C3HFeSCHCH2CNHCSHFeCHCH2SC3HCH2CH2CHS2CH2CHCHCNSH2CH3CHCHC2H2C4H3CHSCHC2H4CHCSNS2CFeCHCSC2H3C2SC2SHC5HCHSFeC2HC2HSCHNHCHSHFeCHSC2HNFeHSH2CFeHS2CFeSH2CFeSC3HFeH2C3HCH2CNSHC2HC2HSHCHC2HCHCFeSC2H2SHCH3CHSHSHSHC2HC2H2FeCSC2HFe2HFeHC3H4CH2CHCNCHSC2SHC2H3C2SH2C2H4SFeC2NCSCHFeSCHCH3SCHC3FeH5SC
_chemical_formula_sum              "C192 H192 Fe32 S64 N16"
_cell_length_a       23.2927
_cell_length_b       16.51
_cell_length_c       17.6387
_cell_angle_alpha    86.0796
_cell_angle_beta     75.9767
_cell_angle_gamma    88.491

_space_group_name_H-M_alt    "P 1"
_space_group_IT_number       1

loop_
  _space_group_symop_operation_xyz
  'x, y, z'

loop_
  _atom_site_type_symbol
  _atom_site_label
  _atom_site_symmetry_multiplicity
  _atom_site_fract_x
  _atom_site_fract_y
  _atom_site_fract_z
  _atom_site_occupancy
  C   C1        1.0  0.91958  0.42960  0.02719  1.0000
  C   C2        1.0  0.20189  0.57216  0.23729  1.0000
  H   H1        1.0  0.03898  0.65284  0.04002  1.0000
  Fe  Fe1       1.0  0.17093  0.23730  0.02705  1.0000
  H   H2        1.0  0.95060  0.58860  0.11594  1.0000
  H   H3        1.0  0.30539  0.63818  0.16663  1.0000
  S   S1        1.0  0.85500  0.62692  0.24547  1.0000
  H   H4        1.0  0.04504  0.51398  0.10984  1.0000
  H   H5        1.0  0.11146  0.65323  0.12180  1.0000
  Fe  Fe2       1.0  0.13209  0.39076  0.11055  1.0000
  H   H6        1.0  0.20144  0.63733  0.24899  1.0000
  H   H7        1.0  0.85828  0.30707  0.18199  1.0000
  H   H8        1.0  0.90899  0.43615  0.08963  1.0000
  H   H9        1.0  0.33997  0.35394  0.03634  1.0000
  C   C3        1.0  0.02739  0.48621  0.23417  1.0000
  S   S2        1.0  0.08390  0.30287  0.05762  1.0000
  H   H10       1.0  0.19011  0.56583  0.18057  1.0000
  C   C4        1.0  0.88201  0.27962  0.22326  1.0000
  S   S3        1.0  0.09417  0.43349  0.23008  1.0000
  C   C5        1.0  0.96056  0.56216  0.16910  1.0000
  C   C6        1.0  0.93741  0.31030  0.22379  1.0000
  S   S4        1.0  0.21761  0.32069  0.08691  1.0000
  C   C7        1.0  0.92010  0.56997  0.24105  1.0000
  C   C8        1.0  0.01389  0.51958  0.16557  1.0000
  H   H11       1.0  0.95617  0.36129  0.18438  1.0000
  N   N1        1.0  0.26051  0.53677  0.23480  1.0000
  C   C9        1.0  0.30977  0.57921  0.19598  1.0000
  C   C10       1.0  0.32165  0.42696  0.26765  1.0000
  C   C11       1.0  0.26572  0.46088  0.26895  1.0000
  H   H12       1.0  0.13540  0.19376  0.26202  1.0000
  N   N2        1.0  0.85829  0.21593  0.27410  1.0000
  C   C12       1.0  0.07666  0.52218  0.47822  1.0000
  H   H13       1.0  0.99724  0.46737  0.35925  1.0000
  C   C13       1.0  0.11053  0.24469  0.47013  1.0000
  C   C14       1.0  0.16157  0.29185  0.45229  1.0000
  H   H14       1.0  0.90126  0.53957  0.36537  1.0000
  H   H15       1.0  0.24004  0.32175  0.48742  1.0000
  H   H16       1.0  0.16722  0.54249  0.28503  1.0000
  H   H17       1.0  0.09812  0.48902  0.42790  1.0000
  C   C15       1.0  0.93262  0.53421  0.30956  1.0000
  H   H18       1.0  0.31317  0.65689  0.41981  1.0000
  C   C16       1.0  0.98682  0.49365  0.30623  1.0000
  C   C17       1.0  0.96895  0.27423  0.27530  1.0000
  C   C18       1.0  0.10275  0.59133  0.49589  1.0000
  H   H19       1.0  0.16889  0.33617  0.40297  1.0000
  S   S5        1.0  0.90905  0.36742  0.47973  1.0000
  S   S6        1.0  0.05854  0.25763  0.41392  1.0000
  H   H20       1.0  0.96384  0.66216  0.39804  1.0000
  H   H21       1.0  0.00222  0.44332  0.51001  1.0000
  C   C19       1.0  0.94472  0.20864  0.32588  1.0000
  C   C20       1.0  0.20189  0.28339  0.49991  1.0000
  H   H22       1.0  0.07149  0.63967  0.34580  1.0000
  S   S7        1.0  0.16852  0.62840  0.43348  1.0000
  Fe  Fe3       1.0  0.96979  0.26494  0.49772  1.0000
  H   H23       1.0  0.22641  0.42633  0.29707  1.0000
  H   H24       1.0  0.32609  0.36677  0.29456  1.0000
  H   H25       1.0  0.01215  0.29692  0.27608  1.0000
  C   C21       1.0  0.02158  0.49674  0.52443  1.0000
  H   H26       1.0  0.99720  0.64165  0.65660  1.0000
  N   N3        1.0  0.18035  0.43940  0.65414  1.0000
  C   C22       1.0  0.28429  0.49061  0.68607  1.0000
  H   H27       1.0  0.19579  0.53156  0.56115  1.0000
  S   S8        1.0  0.92012  0.51360  0.64053  1.0000
  C   C23       1.0  0.25253  0.42680  0.73130  1.0000
  C   C24       1.0  0.04963  0.21477  0.76709  1.0000
  H   H28       1.0  0.05450  0.22844  0.70507  1.0000
  H   H29       1.0  0.32470  0.51027  0.69917  1.0000
  H   H30       1.0  0.08782  0.45631  0.66843  1.0000
  C   C25       1.0  0.12402  0.41529  0.63970  1.0000
  Fe  Fe4       1.0  0.89006  0.21029  0.65625  1.0000
  C   C26       1.0  0.99169  0.54120  0.58728  1.0000
  C   C27       1.0  0.20019  0.40194  0.71470  1.0000
  S   S9        1.0  0.96773  0.29298  0.62030  1.0000
  C   C28       1.0  0.07513  0.63233  0.56217  1.0000
  Fe  Fe5       1.0  0.32789  0.27161  0.57466  1.0000
  Fe  Fe6       1.0  0.90297  0.39059  0.60476  1.0000
  H   H31       1.0  0.17575  0.35203  0.75007  1.0000
  H   H32       1.0  0.11257  0.35218  0.66304  1.0000
  C   C29       1.0  0.26407  0.52830  0.62410  1.0000
  H   H33       1.0  0.12642  0.41716  0.57596  1.0000
  C   C30       1.0  0.01917  0.60825  0.60698  1.0000
  S   S10       1.0  0.23797  0.22125  0.62942  1.0000
  H   H34       1.0  0.28926  0.57716  0.58779  1.0000
  C   C31       1.0  0.21147  0.50197  0.60911  1.0000
  C   C32       1.0  0.19120  0.22751  0.56498  1.0000
  H   H35       1.0  0.84902  0.66499  0.59982  1.0000
  C   C33       1.0  0.10034  0.18819  0.53428  1.0000
  H   H36       1.0  0.09494  0.63546  0.75216  1.0000
  H   H37       1.0  0.09667  0.68295  0.57885  1.0000
  C   C34       1.0  0.13912  0.64271  0.76062  1.0000
  H   H38       1.0  0.95778  0.41075  0.80231  1.0000
  N   N4        1.0  0.98752  0.20519  0.89738  1.0000
  C   C35       1.0  0.88805  0.41642  0.90770  1.0000
  H   H39       1.0  0.12675  0.55396  0.85791  1.0000
  C   C36       1.0  0.94720  0.41634  0.86503  1.0000
  H   H40       1.0  0.22615  0.57513  0.88085  1.0000
  C   C37       1.0  0.99459  0.22432  0.81907  1.0000
  S   S11       1.0  0.19987  0.30455  0.91029  1.0000
  C   C38       1.0  0.99248  0.42015  0.90406  1.0000
  S   S12       1.0  0.06606  0.40636  0.85392  1.0000
  C   C39       1.0  0.15709  0.59670  0.82014  1.0000
  C   C40       1.0  0.87430  0.42169  0.98896  1.0000
  H   H41       1.0  0.93140  0.25151  0.99860  1.0000
  S   S13       1.0  0.32098  0.45897  0.90581  1.0000
  Fe  Fe7       1.0  0.11677  0.37710  0.94507  1.0000
  Fe  Fe8       1.0  0.23900  0.39437  0.97195  1.0000
  H   H42       1.0  0.31724  0.63846  0.85075  1.0000
  S   S14       1.0  0.15704  0.47109  0.00077  1.0000
  H   H43       1.0  0.01350  0.43494  0.01454  1.0000
  C   C41       1.0  0.97866  0.42881  0.98474  1.0000
  H   H44       1.0  0.89562  0.23652  0.92122  1.0000
  C   C42       1.0  0.92927  0.21108  0.95157  1.0000
  H   H45       1.0  0.85821  0.58266  0.88045  1.0000
  H   H46       1.0  0.85352  0.41067  0.87764  1.0000
  H   H47       1.0  0.95754  0.24658  0.79626  1.0000
  C   C43       1.0  0.21290  0.60961  0.83334  1.0000
  N   N5        1.0  0.86370  0.68416  0.79697  1.0000
  H   H48       1.0  0.26888  0.39662  0.77851  1.0000
  C   C44       1.0  0.30809  0.67999  0.80250  1.0000
  S   S15       1.0  0.87363  0.67510  0.01650  1.0000
  N   N6        1.0  0.24982  0.66661  0.78816  1.0000
  H   H49       1.0  0.94586  0.65914  0.82791  1.0000
  C   C45       1.0  0.09782  0.18701  0.79578  1.0000
  C   C46       1.0  0.98032  0.03104  0.10339  1.0000
  N   N7        1.0  0.22044  0.14779  0.26653  1.0000
  S   S16       1.0  0.90424  0.01261  0.12444  1.0000
  H   H50       1.0  0.97093  0.12229  0.18677  1.0000
  C   C47       1.0  0.06174  0.10815  0.12404  1.0000
  H   H51       1.0  0.13512  0.86566  0.17361  1.0000
  C   C48       1.0  0.08727  0.86624  0.17429  1.0000
  N   N8        1.0  0.05369  0.81102  0.23693  1.0000
  C   C49       1.0  0.00135  0.09025  0.14238  1.0000
  C   C50       1.0  0.25634  0.15393  0.19258  1.0000
  C   C51       1.0  0.02001  0.98859  0.04656  1.0000
  S   S17       1.0  0.22052  0.73681  0.10110  1.0000
  H   H52       1.0  0.12833  0.73634  0.24319  1.0000
  H   H53       1.0  0.97206  0.87292  0.23921  1.0000
  Fe  Fe9       1.0  0.89107  0.89044  0.08398  1.0000
  H   H54       1.0  0.07133  0.92970  0.18282  1.0000
  C   C52       1.0  0.08056  0.00700  0.02763  1.0000
  C   C53       1.0  0.08137  0.74610  0.26557  1.0000
  Fe  Fe10      1.0  0.30869  0.79040  0.04328  1.0000
  S   S18       1.0  0.95063  0.78662  0.10212  1.0000
  H   H55       1.0  0.08220  0.84856  0.11671  1.0000
  C   C54       1.0  0.17253  0.73150  0.03914  1.0000
  Fe  Fe11      1.0  0.86851  0.71227  0.13807  1.0000
  C   C55       1.0  0.10124  0.06784  0.06555  1.0000
  H   H56       1.0  0.23855  0.14556  0.14229  1.0000
  H   H57       1.0  0.07757  0.15382  0.15487  1.0000
  C   C56       1.0  0.99406  0.82247  0.26353  1.0000
  S   S19       1.0  0.17428  0.10140  0.03260  1.0000
  C   C57       1.0  0.31640  0.17124  0.18062  1.0000
  H   H58       1.0  0.14873  0.08858  0.23861  1.0000
  C   C58       1.0  0.12049  0.68694  0.06547  1.0000
  C   C59       1.0  0.33996  0.18020  0.24501  1.0000
  H   H59       1.0  0.21499  0.15062  0.38875  1.0000
  C   C60       1.0  0.98892  0.70403  0.35278  1.0000
  C   C61       1.0  0.86390  0.93949  0.47822  1.0000
  C   C62       1.0  0.96744  0.95924  0.47213  1.0000
  C   C63       1.0  0.97806  0.97861  0.39176  1.0000
  Fe  Fe12      1.0  0.23896  0.91651  0.41145  1.0000
  C   C64       1.0  0.93093  0.98376  0.35539  1.0000
  C   C65       1.0  0.87375  0.96368  0.39864  1.0000
  S   S20       1.0  0.05056  0.98916  0.33591  1.0000
  S   S21       1.0  0.22231  0.81899  0.50902  1.0000
  H   H60       1.0  0.13475  0.11576  0.33803  1.0000
  S   S22       1.0  0.32505  0.97294  0.35002  1.0000
  Fe  Fe13      1.0  0.11132  0.92652  0.40243  1.0000
  C   C66       1.0  0.04949  0.69157  0.32379  1.0000
  C   C67       1.0  0.15688  0.13586  0.27669  1.0000
  S   S23       1.0  0.18885  0.85444  0.33933  1.0000
  S   S24       1.0  0.16313  0.99450  0.46847  1.0000
  C   C68       1.0  0.91040  0.93951  0.51537  1.0000
  Fe  Fe14      1.0  0.16584  0.76318  0.44155  1.0000
  S   S25       1.0  0.08333  0.82950  0.49857  1.0000
  H   H61       1.0  0.31215  0.92446  0.51414  1.0000
  H   H62       1.0  0.00324  0.95934  0.50094  1.0000
  H   H63       1.0  0.86945  0.13143  0.36627  1.0000
  C   C69       1.0  0.88860  0.18112  0.32546  1.0000
  C   C70       1.0  0.24313  0.15696  0.33006  1.0000
  C   C71       1.0  0.96076  0.76956  0.32214  1.0000
  H   H64       1.0  0.91347  0.77918  0.34289  1.0000
  H   H65       1.0  0.93884  0.00077  0.29343  1.0000
  H   H66       1.0  0.96946  0.17862  0.36473  1.0000
  C   C72       1.0  0.30324  0.17306  0.32033  1.0000
  H   H67       1.0  0.32153  0.17775  0.37089  1.0000
  C   C73       1.0  0.91589  0.82677  0.72146  1.0000
  C   C74       1.0  0.31897  0.05338  0.69429  1.0000
  C   C75       1.0  0.03144  0.00550  0.65105  1.0000
  H   H68       1.0  0.26130  0.75892  0.69523  1.0000
  H   H69       1.0  0.99249  0.78701  0.76217  1.0000
  C   C76       1.0  0.98067  0.05451  0.66696  1.0000
  H   H70       1.0  0.20687  0.04296  0.68444  1.0000
  H   H71       1.0  0.21918  0.94822  0.73590  1.0000
  H   H72       1.0  0.16215  0.73927  0.67093  1.0000
  H   H73       1.0  0.93634  0.88268  0.69280  1.0000
  C   C77       1.0  0.21510  0.01500  0.74009  1.0000
  S   S26       1.0  0.88546  0.12487  0.76255  1.0000
  H   H74       1.0  0.06125  0.15109  0.54700  1.0000
  H   H75       1.0  0.05596  0.00037  0.59129  1.0000
  C   C78       1.0  0.23248  0.71242  0.72983  1.0000
  C   C79       1.0  0.05065  0.96396  0.71200  1.0000
  C   C80       1.0  0.94829  0.06159  0.74392  1.0000
  H   H76       1.0  0.90258  0.92368  0.57726  1.0000
  Fe  Fe15      1.0  0.14144  0.89173  0.56023  1.0000
  S   S27       1.0  0.11411  0.90245  0.69009  1.0000
  C   C81       1.0  0.17686  0.70117  0.71524  1.0000
  H   H77       1.0  0.13315  0.13363  0.62975  1.0000
  C   C82       1.0  0.94747  0.77293  0.76073  1.0000
  H   H78       1.0  0.96657  0.08630  0.61917  1.0000
  H   H79       1.0  0.31718  0.04002  0.63558  1.0000
  C   C83       1.0  0.85827  0.80814  0.71915  1.0000
  N   N9        1.0  0.26938  0.04665  0.75449  1.0000
  H   H80       1.0  0.14084  0.17993  0.75625  1.0000
  C   C84       1.0  0.14099  0.17878  0.58111  1.0000
  S   S28       1.0  0.89699  0.17361  0.53381  1.0000
  H   H81       1.0  0.32457  0.10686  0.90161  1.0000
  Fe  Fe16      1.0  0.95113  0.75828  0.97987  1.0000
  C   C85       1.0  0.09015  0.73051  0.94705  1.0000
  H   H82       1.0  0.11088  0.97570  0.98214  1.0000
  C   C86       1.0  0.01866  0.97113  0.78953  1.0000
  H   H83       1.0  0.02872  0.16420  0.98804  1.0000
  H   H84       1.0  0.17553  0.02748  0.78760  1.0000
  S   S29       1.0  0.33461  0.87618  0.93661  1.0000
  C   C87       1.0  0.18408  0.77400  0.96567  1.0000
  C   C88       1.0  0.14280  0.77353  0.91950  1.0000
  C   C89       1.0  0.96716  0.01973  0.80547  1.0000
  H   H85       1.0  0.91492  0.14965  0.97815  1.0000
  C   C90       1.0  0.32375  0.09161  0.84309  1.0000
  H   H86       1.0  0.94253  0.02557  0.86530  1.0000
  H   H87       1.0  0.31107  0.74313  0.81920  1.0000
  C   C91       1.0  0.09034  0.16860  0.87579  1.0000
  H   H88       1.0  0.23256  0.05735  0.87674  1.0000
  H   H89       1.0  0.22371  0.80923  0.94548  1.0000
  C   C92       1.0  0.92072  0.70108  0.79801  1.0000
  H   H90       1.0  0.03324  0.93847  0.83701  1.0000
  S   S30       1.0  0.89728  0.86775  0.95884  1.0000
  S   S31       1.0  0.03611  0.73424  0.89345  1.0000
  C   C93       1.0  0.27138  0.06446  0.82841  1.0000
  H   H91       1.0  0.12737  0.14696  0.89891  1.0000
  H   H92       1.0  0.15065  0.80845  0.86381  1.0000
  C   C94       1.0  0.03451  0.17825  0.92600  1.0000
  H   H93       1.0  0.00404  0.94309  0.01560  1.0000
  C   C95       1.0  0.07936  0.68671  0.01945  1.0000
  H   H94       1.0  0.41767  0.35314  0.11091  1.0000
  C   C96       1.0  0.52004  0.23732  0.27270  1.0000
  N   N10       1.0  0.70708  0.51104  0.19523  1.0000
  S   S32       1.0  0.51848  0.45726  0.09472  1.0000
  H   H95       1.0  0.40546  0.58003  0.16092  1.0000
  H   H96       1.0  0.73147  0.63402  0.19296  1.0000
  C   C97       1.0  0.37211  0.47077  0.23000  1.0000
  H   H97       1.0  0.78733  0.56948  0.13636  1.0000
  H   H98       1.0  0.38675  0.19139  0.23662  1.0000
  H   H99       1.0  0.77667  0.47453  0.24978  1.0000
  C   C98       1.0  0.73265  0.46151  0.24344  1.0000
  H   H100      1.0  0.49600  0.56185  0.23778  1.0000
  C   C99       1.0  0.65131  0.49574  0.18765  1.0000
  H   H101      1.0  0.77625  0.22185  0.23874  1.0000
  C   C100      1.0  0.46322  0.45608  0.04329  1.0000
  C   C101      1.0  0.41809  0.39860  0.06357  1.0000
  H   H102      1.0  0.72502  0.60045  0.09948  1.0000
  H   H103      1.0  0.41577  0.44450  0.22707  1.0000
  C   C102      1.0  0.62038  0.42774  0.22725  1.0000
  C   C103      1.0  0.73904  0.58259  0.15409  1.0000
  C   C104      1.0  0.60990  0.19512  0.18101  1.0000
  C   C105      1.0  0.36633  0.54699  0.19311  1.0000
  H   H104      1.0  0.63059  0.53567  0.15030  1.0000
  H   H105      1.0  0.57666  0.41456  0.21990  1.0000
  H   H106      1.0  0.54430  0.27823  0.15055  1.0000
  C   C106      1.0  0.55669  0.24040  0.19677  1.0000
  H   H107      1.0  0.63824  0.19709  0.12253  1.0000
  S   S33       1.0  0.80135  0.41382  0.04455  1.0000
  C   C107      1.0  0.50079  0.57088  0.29787  1.0000
  H   H108      1.0  0.72361  0.35343  0.32147  1.0000
  C   C108      1.0  0.58936  0.56256  0.43896  1.0000
  C   C109      1.0  0.75315  0.49888  0.45877  1.0000
  H   H109      1.0  0.49342  0.51243  0.33387  1.0000
  H   H110      1.0  0.53827  0.46904  0.51240  1.0000
  H   H111      1.0  0.66292  0.24794  0.40726  1.0000
  H   H112      1.0  0.62444  0.52183  0.41215  1.0000
  C   C110      1.0  0.35922  0.67265  0.39552  1.0000
  H   H113      1.0  0.73712  0.45028  0.43135  1.0000
  C   C111      1.0  0.49818  0.66709  0.50881  1.0000
  S   S34       1.0  0.39731  0.18693  0.51199  1.0000
  N   N11       1.0  0.45870  0.63330  0.33329  1.0000
  S   S35       1.0  0.35168  0.37593  0.48454  1.0000
  S   S36       1.0  0.76862  0.27968  0.45431  1.0000
  C   C112      1.0  0.53950  0.53200  0.49363  1.0000
  Fe  Fe17      1.0  0.42492  0.29398  0.42636  1.0000
  C   C113      1.0  0.70080  0.24016  0.50742  1.0000
  H   H114      1.0  0.38684  0.55080  0.36794  1.0000
  C   C114      1.0  0.59903  0.20901  0.51223  1.0000
  S   S37       1.0  0.48858  0.33738  0.49013  1.0000
  C   C115      1.0  0.65511  0.23399  0.46956  1.0000
  C   C116      1.0  0.75975  0.57677  0.42233  1.0000
  H   H115      1.0  0.74906  0.58934  0.36618  1.0000
  H   H116      1.0  0.62282  0.32321  0.30630  1.0000
  H   H117      1.0  0.56412  0.20272  0.48276  1.0000
  C   C117      1.0  0.40092  0.61314  0.36550  1.0000
  C   C118      1.0  0.78089  0.63868  0.45820  1.0000
  S   S38       1.0  0.45455  0.29503  0.29552  1.0000
  C   C119      1.0  0.59346  0.64569  0.41878  1.0000
  C   C120      1.0  0.53648  0.18902  0.33199  1.0000
  S   S39       1.0  0.65180  0.68296  0.34323  1.0000
  H   H118      1.0  0.54718  0.58905  0.29317  1.0000
  C   C121      1.0  0.70289  0.39314  0.28408  1.0000
  C   C122      1.0  0.49212  0.58327  0.52444  1.0000
  C   C123      1.0  0.64643  0.37622  0.27565  1.0000
  C   C124      1.0  0.61981  0.46412  0.64095  1.0000
  C   C125      1.0  0.58826  0.19090  0.59273  1.0000
  H   H119      1.0  0.63458  0.42323  0.59227  1.0000
  C   C126      1.0  0.51498  0.48669  0.70556  1.0000
  H   H120      1.0  0.59837  0.31919  0.71543  1.0000
  S   S40       1.0  0.69618  0.60079  0.74332  1.0000
  Fe  Fe18      1.0  0.45516  0.23793  0.58155  1.0000
  C   C127      1.0  0.46089  0.45905  0.75243  1.0000
  C   C128      1.0  0.55968  0.35844  0.72445  1.0000
  H   H121      1.0  0.79889  0.53493  0.62165  1.0000
  C   C129      1.0  0.61089  0.68432  0.68474  1.0000
  C   C130      1.0  0.63488  0.19183  0.62984  1.0000
  H   H122      1.0  0.65367  0.46409  0.67576  1.0000
  S   S41       1.0  0.82399  0.31089  0.65089  1.0000
  C   C131      1.0  0.62638  0.64610  0.75045  1.0000
  H   H123      1.0  0.42257  0.49917  0.76302  1.0000
  N   N12       1.0  0.56334  0.43607  0.69140  1.0000
  H   H124      1.0  0.51771  0.54870  0.68037  1.0000
  C   C132      1.0  0.78846  0.54694  0.56515  1.0000
  H   H125      1.0  0.72671  0.22000  0.61666  1.0000
  S   S42       1.0  0.38361  0.31527  0.65034  1.0000
  H   H126      1.0  0.76204  0.42336  0.55957  1.0000
  Fe  Fe19      1.0  0.41391  0.41221  0.55485  1.0000
  C   C133      1.0  0.69121  0.21723  0.58731  1.0000
  H   H127      1.0  0.61632  0.52682  0.61500  1.0000
  S   S43       1.0  0.42393  0.54306  0.57721  1.0000
  C   C134      1.0  0.50628  0.32881  0.77142  1.0000
  C   C135      1.0  0.76731  0.48376  0.53080  1.0000
  H   H128      1.0  0.34356  0.66981  0.74903  1.0000
  N   N13       1.0  0.79586  0.62291  0.52818  1.0000
  Fe  Fe20      1.0  0.83601  0.27938  0.52572  1.0000
  H   H129      1.0  0.50348  0.26662  0.79604  1.0000
  S   S44       1.0  0.67833  0.53483  0.97030  1.0000
  H   H130      1.0  0.78893  0.61858  0.86370  1.0000
  H   H131      1.0  0.78006  0.25119  0.99416  1.0000
  C   C136      1.0  0.77803  0.18637  0.98845  1.0000
  Fe  Fe21      1.0  0.73422  0.42253  0.97243  1.0000
  H   H132      1.0  0.50059  0.55596  0.96450  1.0000
  S   S45       1.0  0.60152  0.43257  0.87650  1.0000
  S   S46       1.0  0.65725  0.33958  0.01216  1.0000
  C   C137      1.0  0.53787  0.21926  0.93673  1.0000
  Fe  Fe22      1.0  0.60181  0.44965  0.00120  1.0000
  S   S47       1.0  0.74472  0.40152  0.84524  1.0000
  H   H133      1.0  0.42279  0.55784  0.89010  1.0000
  H   H134      1.0  0.55044  0.27774  0.95115  1.0000
  C   C138      1.0  0.48073  0.19020  0.97057  1.0000
  Fe  Fe23      1.0  0.66239  0.32792  0.88561  1.0000
  S   S48       1.0  0.64967  0.20777  0.84148  1.0000
  C   C139      1.0  0.37405  0.39920  0.02156  1.0000
  C   C140      1.0  0.83628  0.60814  0.83465  1.0000
  C   C141      1.0  0.37543  0.45699  0.95927  1.0000
  H   H135      1.0  0.41505  0.35720  0.82214  1.0000
  Fe  Fe24      1.0  0.68333  0.50839  0.84554  1.0000
  H   H136      1.0  0.83937  0.56270  0.79013  1.0000
  H   H137      1.0  0.44975  0.22653  0.01079  1.0000
  C   C142      1.0  0.58507  0.64165  0.82259  1.0000
  C   C143      1.0  0.46534  0.51223  0.98003  1.0000
  C   C144      1.0  0.42145  0.51294  0.93810  1.0000
  H   H138      1.0  0.59675  0.61285  0.87371  1.0000
  C   C145      1.0  0.52878  0.67619  0.82969  1.0000
  H   H139      1.0  0.49720  0.67360  0.88570  1.0000
  H   H140      1.0  0.76289  0.19993  0.87300  1.0000
  C   C146      1.0  0.45666  0.37956  0.78557  1.0000
  N   N14       1.0  0.56325  0.98016  0.13291  1.0000
  S   S49       1.0  0.80820  0.81889  0.12941  1.0000
  H   H141      1.0  0.64352  0.93131  0.15474  1.0000
  C   C147      1.0  0.46539  0.93320  0.19516  1.0000
  C   C148      1.0  0.54048  0.05362  0.11317  1.0000
  H   H142      1.0  0.46205  0.12829  0.12274  1.0000
  C   C149      1.0  0.47978  0.06945  0.13668  1.0000
  C   C150      1.0  0.62548  0.14549  0.24060  1.0000
  H   H143      1.0  0.70416  0.75769  0.10626  1.0000
  S   S50       1.0  0.68930  0.08388  0.22102  1.0000
  H   H144      1.0  0.43613  0.88534  0.22605  1.0000
  C   C151      1.0  0.52660  0.92060  0.17407  1.0000
  H   H145      1.0  0.60361  0.72691  0.18648  1.0000
  C   C152      1.0  0.44191  0.00803  0.17581  1.0000
  C   C153      1.0  0.66881  0.75026  0.07785  1.0000
  H   H146      1.0  0.54454  0.86261  0.19001  1.0000
  C   C154      1.0  0.61169  0.73253  0.12335  1.0000
  H   H147      1.0  0.39442  0.01837  0.19151  1.0000
  C   C155      1.0  0.62675  0.96313  0.10663  1.0000
  Fe  Fe25      1.0  0.43393  0.77515  0.06569  1.0000
  S   S51       1.0  0.49151  0.72164  0.14230  1.0000
  C   C156      1.0  0.56493  0.72656  0.08699  1.0000
  C   C157      1.0  0.78580  0.13148  0.04885  1.0000
  H   H148      1.0  0.79376  0.15301  0.10203  1.0000
  H   H149      1.0  0.56904  0.10054  0.07898  1.0000
  S   S52       1.0  0.35785  0.85768  0.11321  1.0000
  H   H150      1.0  0.78827  0.00559  0.08840  1.0000
  C   C158      1.0  0.78286  0.04836  0.04102  1.0000
  H   H151      1.0  0.65237  0.02003  0.08950  1.0000
  H   H152      1.0  0.63511  0.92449  0.05586  1.0000
  H   H153      1.0  0.81046  0.12239  0.24146  1.0000
  C   C159      1.0  0.80196  0.18059  0.27078  1.0000
  H   H154      1.0  0.34441  0.17713  0.12176  1.0000
  S   S53       1.0  0.74502  0.88534  0.33053  1.0000
  H   H155      1.0  0.55256  0.76306  0.44273  1.0000
  S   S54       1.0  0.67294  0.02365  0.44516  1.0000
  H   H156      1.0  0.45121  0.83442  0.36162  1.0000
  S   S55       1.0  0.65161  0.83157  0.49696  1.0000
  H   H157      1.0  0.52221  0.72813  0.30439  1.0000
  C   C160      1.0  0.37739  0.75280  0.39364  1.0000
  C   C161      1.0  0.37232  0.97936  0.41227  1.0000
  H   H158      1.0  0.44071  0.04008  0.32379  1.0000
  C   C162      1.0  0.43651  0.77255  0.36196  1.0000
  C   C163      1.0  0.54932  0.69840  0.45678  1.0000
  H   H159      1.0  0.78547  0.69919  0.42930  1.0000
  H   H160      1.0  0.77370  0.16764  0.33079  1.0000
  Fe  Fe26      1.0  0.66331  0.81039  0.37047  1.0000
  C   C164      1.0  0.45514  0.97029  0.50337  1.0000
  S   S56       1.0  0.60235  0.91116  0.34969  1.0000
  C   C165      1.0  0.47012  0.00599  0.42753  1.0000
  C   C166      1.0  0.47655  0.71197  0.33052  1.0000
  H   H161      1.0  0.83772  0.96618  0.37002  1.0000
  Fe  Fe27      1.0  0.68247  0.98997  0.32140  1.0000
  Fe  Fe28      1.0  0.72899  0.91357  0.45690  1.0000
  H   H162      1.0  0.51380  0.02965  0.40411  1.0000
  Fe  Fe29      1.0  0.59644  0.93853  0.47383  1.0000
  H   H163      1.0  0.60065  0.10599  0.36243  1.0000
  C   C167      1.0  0.35615  0.94698  0.48978  1.0000
  C   C168      1.0  0.42863  0.01153  0.38218  1.0000
  C   C169      1.0  0.58889  0.14328  0.31597  1.0000
  H   H164      1.0  0.34583  0.79979  0.41632  1.0000
  H   H165      1.0  0.84004  0.73585  0.52199  1.0000
  H   H166      1.0  0.50822  0.18568  0.39041  1.0000
  H   H167      1.0  0.75197  0.94598  0.69433  1.0000
  C   C170      1.0  0.61442  0.98731  0.66877  1.0000
  H   H168      1.0  0.41221  0.08057  0.65978  1.0000
  H   H169      1.0  0.83376  0.84895  0.68753  1.0000
  C   C171      1.0  0.37263  0.07760  0.70745  1.0000
  H   H170      1.0  0.70105  0.03288  0.61068  1.0000
  C   C172      1.0  0.55361  0.71703  0.69157  1.0000
  N   N15       1.0  0.58240  0.93620  0.72700  1.0000
  C   C173      1.0  0.83263  0.73620  0.75769  1.0000
  H   H171      1.0  0.38644  0.91410  0.59437  1.0000
  S   S57       1.0  0.51586  0.17247  0.64716  1.0000
  C   C174      1.0  0.39784  0.94196  0.53539  1.0000
  C   C175      1.0  0.51827  0.93260  0.73808  1.0000
  S   S58       1.0  0.79456  0.90545  0.53128  1.0000
  H   H172      1.0  0.54138  0.74634  0.64083  1.0000
  C   C176      1.0  0.70433  0.94288  0.70399  1.0000
  C   C177      1.0  0.67166  0.88859  0.76144  1.0000
  H   H173      1.0  0.49961  0.99297  0.72424  1.0000
  H   H174      1.0  0.77865  0.71741  0.60581  1.0000
  H   H175      1.0  0.50789  0.88870  0.69875  1.0000
  C   C178      1.0  0.67573  0.99216  0.65697  1.0000
  C   C179      1.0  0.81693  0.68860  0.56593  1.0000
  S   S59       1.0  0.50889  0.95825  0.55645  1.0000
  H   H176      1.0  0.59243  0.02456  0.63106  1.0000
  H   H177      1.0  0.78752  0.72227  0.75674  1.0000
  C   C180      1.0  0.51277  0.71329  0.76454  1.0000
  C   C181      1.0  0.61021  0.88575  0.77196  1.0000
  H   H178      1.0  0.62695  0.17550  0.69187  1.0000
  H   H179      1.0  0.64261  0.68764  0.62857  1.0000
  H   H180      1.0  0.46264  0.70776  0.53457  1.0000
  H   H181      1.0  0.64143  0.75433  0.89714  1.0000
  S   S60       1.0  0.38248  0.70211  0.00331  1.0000
  Fe  Fe30      1.0  0.39023  0.93688  0.00314  1.0000
  C   C182      1.0  0.57816  0.17267  0.88452  1.0000
  C   C183      1.0  0.63321  0.74961  0.96017  1.0000
  N   N16       1.0  0.76462  0.07530  0.91340  1.0000
  C   C184      1.0  0.76786  0.15702  0.92041  1.0000
  S   S61       1.0  0.74863  0.79029  0.93817  1.0000
  C   C185      1.0  0.67931  0.76037  0.99620  1.0000
  H   H182      1.0  0.69378  0.84856  0.79698  1.0000
  Fe  Fe31      1.0  0.81917  0.78721  0.00500  1.0000
  S   S62       1.0  0.39577  0.07282  0.00481  1.0000
  C   C186      1.0  0.77193  0.02111  0.97260  1.0000
  H   H183      1.0  0.77853  0.99193  0.82413  1.0000
  C   C187      1.0  0.56119  0.09732  0.86626  1.0000
  H   H184      1.0  0.49140  0.01025  0.88671  1.0000
  H   H185      1.0  0.54089  0.72362  0.97759  1.0000
  H   H186      1.0  0.58486  0.84275  0.81584  1.0000
  S   S63       1.0  0.46992  0.85891  0.96061  1.0000
  C   C188      1.0  0.75002  0.04507  0.84425  1.0000
  H   H187      1.0  0.76919  0.95638  0.96717  1.0000
  C   C189      1.0  0.57628  0.73244  0.00555  1.0000
  C   C190      1.0  0.46457  0.11324  0.95462  1.0000
  C   C191      1.0  0.50452  0.06773  0.90142  1.0000
  Fe  Fe32      1.0  0.41218  0.79211  0.90139  1.0000
  H   H188      1.0  0.75768  0.09212  0.79463  1.0000
  H   H189      1.0  0.70260  0.02828  0.85843  1.0000
  H   H190      1.0  0.59191  0.06196  0.82498  1.0000
  H   H191      1.0  0.41615  0.11720  0.79314  1.0000
  H   H192      1.0  0.49583  0.91197  0.79858  1.0000
  S   S64       1.0  0.44250  0.75802  0.77682  1.0000
  C   C192      1.0  0.37486  0.09753  0.78230  1.0000
