data_image0
_chemical_formula_structural       HNCFeS2CHC2H2SC3FeC2HCHC3SC2HCH4CHFeH3S2H2CH3S2FeS2FeS2FeHFeS3CHCHCNFeS2CSH3CFeSHFeS2FeS2FeSFeCS2C6H2CH2CHC7H4C6H3SC6H3SH2S2CH2CHC4HC2SH7SHS2CHFeCHCH2FeHSCH3CNH2FeCNH2CH2NCNCHCHCHC4H4CFeSH2CHNC2HC4HFeHFeHCH2CHC2S2HCFeS2FeS2FeSFeS3HCH4CNFeSCSHSFeS4H2C7H5C5H4C2SHCH3C6HCH5CH2C5FeHNC6H8NC6H10FeCFeHSH2CHCFeSC2H2SCH2C3H2FeCH2SH3C3HC2HNC3HCSCHCHCFeHCS2C4HC2HC2H2C2FeCNHSCHCNH2C3HFeHCNHCHNHC2SCFeS2H2C2HC2HCHC4HCH2CH2CH2S2H2CFeH2CFeS2C2HCHNCHNCH2CHCHCH2C3H2C2HCH5CHC3SFeCFeS2HFeS2FeS2HCHC3H2C2H3C4H4C3H2C2H2SFeS2FeS2FeS2FeS2FeS2FeS2CHC5HC4H2C2H2C4H2C4H2C3H2CNHNCH5C3H4CH3C3H2SC5NC5H2NH2CNC6H10C3H2CH2CH7FeHC2H5C3H2CNHC4NH2CH4CHCH2NHCSFeS2FeS3FeS2FeS3C4H2C6H5C8H5FeS2FeS2FeSFeS2C2H2NH3CHFeH3SC3H2C3HC2H2NCHC2HCH2SC3H2NC6H8CHC2SHC2H2CHSH3CNCSCH3NCH4CHCHCH2C2HCNHCHCHCH2NSH2FeCSCHCHC3H2CH4C3HFeSFeH2CHC2SHC6HFeS2H2SCHCSC3H3CHCHC2H3CNHCHSHNHCHCFeCSCFe2HCFeS2NHFeH2SH2C2H2CHC3HC2H4SNC4HC2HSC2HS2CS2FeS2FeS2FeSFeCS2CSHFeS2FeS2FeS2FeCFeS3CH2C3H3CH2C6H4C6H2CHC6H4C3HC4NH3CNSCSH7FeCHFeC4H2C2SCHC2H2SH3CH4CH3NCH3C2H5C3NCNCHC2H2CHCH2SHC2HC2HCHC2HCH2CHFeHCH2SH2CSC4SH3C2FeS2HC2FeS2FeS2FeSFeCS2FeS2FeS2FeSFeHS2C2H2CH2CSCH3CHC6HCH2C6H4C2S2CH3C6H7C2HC4HSNCH5SHC2NFeCFeH6C2HSHCH2C4H2CHFeCNC6H8C2NH2C2HCFeC2H4CHCNHSH3C4H2CSHSH2CSCHCHC2HCHFeSCFeSHCHFeHFeH3C4HC3H4C2SCSCSHCFeSC2HCFeHSCHNCSNH2SHC
_chemical_formula_sum              "H576 N48 C576 Fe96 S192"
_cell_length_a       47.6037
_cell_length_b       53.2908
_cell_length_c       33.8488
_cell_angle_alpha    89.8906
_cell_angle_beta     89.64
_cell_angle_gamma    90.0025

_space_group_name_H-M_alt    "P 1"
_space_group_IT_number       1

loop_
  _space_group_symop_operation_xyz
  'x, y, z'

loop_
  _atom_site_type_symbol
  _atom_site_label
  _atom_site_symmetry_multiplicity
  _atom_site_fract_x
  _atom_site_fract_y
  _atom_site_fract_z
  _atom_site_occupancy
  H   H1        1.0  0.32888  0.34011  0.52337  1.0000
  N   N1        1.0  0.26848  0.31204  0.49529  1.0000
  C   C1        1.0  0.16276  0.42319  0.22134  1.0000
  Fe  Fe1       1.0  0.25915  0.42250  0.33638  1.0000
  S   S1        1.0  0.25011  0.41632  0.27155  1.0000
  S   S2        1.0  0.25007  0.39282  0.38306  1.0000
  C   C2        1.0  0.25024  0.38283  0.46241  1.0000
  H   H2        1.0  0.22806  0.29424  0.49139  1.0000
  C   C3        1.0  0.31141  0.34184  0.46479  1.0000
  C   C4        1.0  0.14103  0.40896  0.20431  1.0000
  H   H3        1.0  0.22239  0.43451  0.42377  1.0000
  H   H4        1.0  0.32157  0.41547  0.48106  1.0000
  S   S3        1.0  0.03576  0.43162  0.10473  1.0000
  C   C5        1.0  0.26190  0.38255  0.50050  1.0000
  C   C6        1.0  0.26422  0.39485  0.43098  1.0000
  C   C7        1.0  0.28973  0.40698  0.43799  1.0000
  Fe  Fe2       1.0  0.04374  0.41543  0.16487  1.0000
  C   C8        1.0  0.31211  0.33394  0.50409  1.0000
  C   C9        1.0  0.24604  0.29631  0.51188  1.0000
  H   H5        1.0  0.30071  0.41621  0.41393  1.0000
  C   C10       1.0  0.26765  0.31965  0.45664  1.0000
  H   H6        1.0  0.23046  0.37344  0.45714  1.0000
  C   C11       1.0  0.29045  0.31879  0.51884  1.0000
  C   C12       1.0  0.28911  0.33460  0.44079  1.0000
  C   C13       1.0  0.11386  0.41895  0.20032  1.0000
  S   S4        1.0  0.08796  0.40115  0.17552  1.0000
  C   C14       1.0  0.10842  0.44319  0.21425  1.0000
  C   C15       1.0  0.28775  0.39415  0.50733  1.0000
  H   H7        1.0  0.25013  0.31459  0.43794  1.0000
  C   C16       1.0  0.30156  0.40642  0.47597  1.0000
  H   H8        1.0  0.32762  0.35423  0.45332  1.0000
  H   H9        1.0  0.14541  0.39021  0.19373  1.0000
  H   H10       1.0  0.18369  0.41543  0.22358  1.0000
  H   H11       1.0  0.24188  0.43644  0.51267  1.0000
  C   C17       1.0  0.04719  0.35383  0.06322  1.0000
  H   H12       1.0  0.28788  0.34137  0.41054  1.0000
  Fe  Fe3       1.0  0.28935  0.43956  0.26152  1.0000
  H   H13       1.0  0.03549  0.35093  0.09048  1.0000
  H   H14       1.0  0.07372  0.38256  0.08766  1.0000
  H   H15       1.0  0.10280  0.44145  0.11039  1.0000
  S   S5        1.0  0.32101  0.43405  0.21163  1.0000
  S   S6        1.0  0.30006  0.44274  0.32598  1.0000
  H   H16       1.0  0.20355  0.44292  0.46817  1.0000
  H   H17       1.0  0.25099  0.37318  0.52444  1.0000
  C   C18       1.0  0.06847  0.37179  0.06148  1.0000
  H   H18       1.0  0.25439  0.27733  0.51892  1.0000
  H   H19       1.0  0.35554  0.42615  0.28168  1.0000
  H   H20       1.0  0.02356  0.32656  0.03082  1.0000
  S   S7        1.0  0.06231  0.20197  0.88832  1.0000
  S   S8        1.0  0.20571  0.00315  0.61129  1.0000
  Fe  Fe4       1.0  0.30027  0.11223  0.66356  1.0000
  S   S9        1.0  0.29774  0.08916  0.71859  1.0000
  S   S10       1.0  0.28760  0.09631  0.60507  1.0000
  Fe  Fe5       1.0  0.31949  0.15867  0.70718  1.0000
  S   S11       1.0  0.31796  0.13913  0.76599  1.0000
  S   S12       1.0  0.33580  0.19830  0.70773  1.0000
  Fe  Fe6       1.0  0.33849  0.10731  0.73383  1.0000
  H   H21       1.0  0.08120  0.26818  0.79291  1.0000
  Fe  Fe7       1.0  0.27727  0.12314  0.74469  1.0000
  S   S13       1.0  0.23970  0.11540  0.78332  1.0000
  S   S14       1.0  0.34303  0.12784  0.67635  1.0000
  S   S15       1.0  0.27696  0.14526  0.68830  1.0000
  C   C19       1.0  0.06889  0.32940  0.65091  1.0000
  H   H22       1.0  0.11168  0.03051  0.82033  1.0000
  C   C20       1.0  0.35653  0.97942  0.82347  1.0000
  H   H23       1.0  0.23788  0.30466  0.53978  1.0000
  C   C21       1.0  0.07019  0.98420  0.78384  1.0000
  N   N2        1.0  0.11280  0.23965  0.79796  1.0000
  Fe  Fe8       1.0  0.08804  0.15295  0.76887  1.0000
  S   S16       1.0  0.12409  0.16100  0.72750  1.0000
  S   S17       1.0  0.09401  0.14480  0.83321  1.0000
  C   C22       1.0  0.16994  0.33284  0.69872  1.0000
  S   S18       1.0  0.33532  0.35012  0.73682  1.0000
  H   H24       1.0  0.18633  0.32377  0.68167  1.0000
  H   H25       1.0  0.31972  0.99468  0.79518  1.0000
  H   H26       1.0  0.04619  0.02978  0.87923  1.0000
  C   C23       1.0  0.30044  0.00982  0.57751  1.0000
  Fe  Fe9       1.0  0.05537  0.33156  0.77313  1.0000
  S   S19       1.0  0.09321  0.31391  0.74281  1.0000
  H   H27       1.0  0.05192  0.33994  0.93182  1.0000
  Fe  Fe10      1.0  0.28700  0.36903  0.60418  1.0000
  S   S20       1.0  0.28073  0.38381  0.66583  1.0000
  S   S21       1.0  0.30345  0.39384  0.55442  1.0000
  Fe  Fe11      1.0  0.27264  0.31611  0.62937  1.0000
  S   S22       1.0  0.26483  0.32635  0.69272  1.0000
  S   S23       1.0  0.26854  0.27708  0.60518  1.0000
  Fe  Fe12      1.0  0.24190  0.35950  0.66758  1.0000
  S   S24       1.0  0.20176  0.37633  0.69308  1.0000
  Fe  Fe13      1.0  0.30419  0.34952  0.68600  1.0000
  C   C24       1.0  0.04791  0.32922  0.95957  1.0000
  S   S25       1.0  0.24658  0.34739  0.60419  1.0000
  S   S26       1.0  0.31365  0.33657  0.62433  1.0000
  C   C25       1.0  0.12411  0.33104  0.73174  1.0000
  C   C26       1.0  0.14567  0.31939  0.70993  1.0000
  C   C27       1.0  0.06662  0.40643  0.68262  1.0000
  C   C28       1.0  0.17270  0.35813  0.70897  1.0000
  C   C29       1.0  0.15119  0.36970  0.73102  1.0000
  C   C30       1.0  0.12710  0.35617  0.74267  1.0000
  H   H28       1.0  0.15325  0.38923  0.73919  1.0000
  H   H29       1.0  0.11070  0.36532  0.75961  1.0000
  C   C31       1.0  0.04049  0.34015  0.02929  1.0000
  H   H30       1.0  0.33936  0.03814  0.79209  1.0000
  H   H31       1.0  0.15858  0.08190  0.71207  1.0000
  C   C32       1.0  0.32194  0.00795  0.64308  1.0000
  H   H32       1.0  0.18175  0.20769  0.76408  1.0000
  C   C33       1.0  0.13108  0.25233  0.77375  1.0000
  C   C34       1.0  0.15616  0.14881  0.74397  1.0000
  C   C35       1.0  0.18130  0.15771  0.72751  1.0000
  C   C36       1.0  0.20712  0.14797  0.74005  1.0000
  C   C37       1.0  0.20786  0.12912  0.76883  1.0000
  C   C38       1.0  0.18270  0.12040  0.78553  1.0000
  C   C39       1.0  0.15687  0.13015  0.77301  1.0000
  H   H33       1.0  0.18083  0.17217  0.70502  1.0000
  H   H34       1.0  0.22639  0.15520  0.72766  1.0000
  H   H35       1.0  0.18317  0.10586  0.80789  1.0000
  H   H36       1.0  0.13756  0.12285  0.78535  1.0000
  C   C40       1.0  0.31584  0.21970  0.68006  1.0000
  C   C41       1.0  0.29941  0.21171  0.64834  1.0000
  C   C42       1.0  0.28479  0.22940  0.62546  1.0000
  C   C43       1.0  0.28640  0.25502  0.63445  1.0000
  C   C44       1.0  0.30254  0.26292  0.66650  1.0000
  C   C45       1.0  0.31721  0.24527  0.68922  1.0000
  H   H37       1.0  0.29837  0.19200  0.64099  1.0000
  H   H38       1.0  0.27230  0.22321  0.60072  1.0000
  H   H39       1.0  0.30369  0.28262  0.67380  1.0000
  S   S27       1.0  0.02461  0.14318  0.84026  1.0000
  C   C46       1.0  0.22838  0.02901  0.61084  1.0000
  C   C47       1.0  0.24847  0.03226  0.64037  1.0000
  C   C48       1.0  0.26644  0.05313  0.63919  1.0000
  C   C49       1.0  0.26477  0.07046  0.60808  1.0000
  C   C50       1.0  0.24486  0.06699  0.57846  1.0000
  C   C51       1.0  0.22644  0.04651  0.58014  1.0000
  H   H40       1.0  0.25016  0.01867  0.66402  1.0000
  H   H41       1.0  0.28222  0.05519  0.66158  1.0000
  H   H42       1.0  0.08118  0.05572  0.77629  1.0000
  S   S28       1.0  0.04185  0.37190  0.77472  1.0000
  H   H43       1.0  0.04344  0.03491  0.73858  1.0000
  H   H44       1.0  0.06185  0.32703  0.61995  1.0000
  S   S29       1.0  0.26066  0.95024  0.63238  1.0000
  S   S30       1.0  0.31004  0.96297  0.71968  1.0000
  C   C52       1.0  0.09230  0.39478  0.67467  1.0000
  H   H45       1.0  0.24346  0.08026  0.55430  1.0000
  H   H46       1.0  0.02420  0.99708  0.71181  1.0000
  C   C53       1.0  0.15615  0.24107  0.76116  1.0000
  H   H47       1.0  0.06671  0.96422  0.78685  1.0000
  C   C54       1.0  0.22027  0.09934  0.67209  1.0000
  C   C55       1.0  0.16347  0.11004  0.66709  1.0000
  C   C56       1.0  0.21108  0.11751  0.64530  1.0000
  C   C57       1.0  0.18247  0.12296  0.64298  1.0000
  H   H48       1.0  0.14352  0.29997  0.70122  1.0000
  C   C58       1.0  0.16255  0.21681  0.77385  1.0000
  C   C59       1.0  0.07865  0.03549  0.77782  1.0000
  S   S31       1.0  0.05564  0.18282  0.77890  1.0000
  H   H49       1.0  0.22618  0.12736  0.62676  1.0000
  H   H50       1.0  0.17506  0.13741  0.62300  1.0000
  H   H51       1.0  0.31274  0.98948  0.64726  1.0000
  H   H52       1.0  0.23408  0.06940  0.72936  1.0000
  H   H53       1.0  0.20825  0.04831  0.70884  1.0000
  H   H54       1.0  0.29001  0.02458  0.55950  1.0000
  H   H55       1.0  0.17046  0.25108  0.74165  1.0000
  S   S32       1.0  0.22865  0.97204  0.71194  1.0000
  H   H56       1.0  0.21092  0.04399  0.55724  1.0000
  S   S33       1.0  0.04149  0.38933  0.88704  1.0000
  S   S34       1.0  0.06179  0.07892  0.85352  1.0000
  C   C60       1.0  0.05732  0.02360  0.75662  1.0000
  H   H57       1.0  0.04754  0.41847  0.95729  1.0000
  Fe  Fe14      1.0  0.02433  0.15157  0.77540  1.0000
  C   C61       1.0  0.04299  0.36737  0.66893  1.0000
  H   H58       1.0  0.28322  0.99816  0.59028  1.0000
  C   C62       1.0  0.03434  0.05927  0.83906  1.0000
  H   H59       1.0  0.05594  0.25420  0.90735  1.0000
  H   H60       1.0  0.11186  0.40510  0.67750  1.0000
  Fe  Fe15      1.0  0.22054  0.97025  0.64698  1.0000
  H   H61       1.0  0.09031  0.32130  0.65401  1.0000
  S   S35       1.0  0.04501  0.32386  0.83680  1.0000
  C   C63       1.0  0.03528  0.22320  0.87897  1.0000
  H   H62       1.0  0.06889  0.23825  0.80990  1.0000
  H   H63       1.0  0.11282  0.36053  0.65802  1.0000
  H   H64       1.0  0.02533  0.32388  0.95925  1.0000
  C   C64       1.0  0.03166  0.03559  0.85650  1.0000
  N   N3        1.0  0.31759  0.02096  0.60879  1.0000
  H   H65       1.0  0.35413  0.07381  0.62911  1.0000
  H   H66       1.0  0.10499  0.20614  0.83080  1.0000
  Fe  Fe16      1.0  0.05889  0.17192  0.84265  1.0000
  C   C65       1.0  0.08675  0.25166  0.81142  1.0000
  N   N4        1.0  0.05358  0.99820  0.75943  1.0000
  H   H67       1.0  0.14874  0.18530  0.80901  1.0000
  H   H68       1.0  0.08615  0.36564  0.96463  1.0000
  C   C66       1.0  0.14406  0.20425  0.79916  1.0000
  H   H69       1.0  0.24253  0.09560  0.67423  1.0000
  H   H70       1.0  0.14126  0.11465  0.66635  1.0000
  N   N5        1.0  0.06828  0.35599  0.66183  1.0000
  C   C67       1.0  0.11920  0.21605  0.81110  1.0000
  N   N6        1.0  0.20154  0.08673  0.69560  1.0000
  C   C68       1.0  0.17341  0.09171  0.69316  1.0000
  H   H71       1.0  0.03716  0.96713  0.72738  1.0000
  C   C69       1.0  0.21142  0.06705  0.72246  1.0000
  H   H72       1.0  0.06599  0.42596  0.69163  1.0000
  C   C70       1.0  0.03809  0.24833  0.89002  1.0000
  H   H73       1.0  0.12635  0.27125  0.76396  1.0000
  C   C71       1.0  0.09271  0.36946  0.66379  1.0000
  C   C72       1.0  0.03065  0.98601  0.73805  1.0000
  C   C73       1.0  0.09157  0.99547  0.80569  1.0000
  C   C74       1.0  0.03069  0.40520  0.96236  1.0000
  H   H74       1.0  0.32940  0.25137  0.71423  1.0000
  H   H75       1.0  0.29108  0.31270  0.54941  1.0000
  H   H76       1.0  0.32607  0.05447  0.57617  1.0000
  H   H77       1.0  0.20006  0.06805  0.75121  1.0000
  C   C75       1.0  0.09571  0.02133  0.80274  1.0000
  Fe  Fe17      1.0  0.05950  0.11673  0.82486  1.0000
  S   S36       1.0  0.05650  0.12237  0.75941  1.0000
  H   H78       1.0  0.10459  0.98421  0.82508  1.0000
  H   H79       1.0  0.08904  0.25790  0.84250  1.0000
  C   C76       1.0  0.32964  0.04403  0.60324  1.0000
  H   H80       1.0  0.05502  0.31837  0.67104  1.0000
  N   N7        1.0  0.05446  0.34441  0.99444  1.0000
  C   C77       1.0  0.04176  0.39274  0.67936  1.0000
  C   C78       1.0  0.33781  0.01844  0.67357  1.0000
  H   H81       1.0  0.34794  0.96054  0.82429  1.0000
  C   C79       1.0  0.07540  0.36197  0.99244  1.0000
  C   C80       1.0  0.34045  0.99870  0.80690  1.0000
  C   C81       1.0  0.34952  0.04225  0.66863  1.0000
  C   C82       1.0  0.34550  0.05514  0.63319  1.0000
  H   H82       1.0  0.02449  0.41614  0.02309  1.0000
  Fe  Fe18      1.0  0.26732  0.94910  0.69819  1.0000
  H   H83       1.0  0.34076  0.00819  0.70094  1.0000
  Fe  Fe19      1.0  0.02862  0.36340  0.83758  1.0000
  H   H84       1.0  0.31370  0.99788  0.55810  1.0000
  C   C83       1.0  0.35151  0.02293  0.80487  1.0000
  H   H85       1.0  0.06093  0.31195  0.95933  1.0000
  H   H86       1.0  0.02357  0.35677  0.66718  1.0000
  C   C84       1.0  0.08267  0.37596  0.02585  1.0000
  H   H87       1.0  0.09896  0.39013  0.02398  1.0000
  C   C85       1.0  0.10590  0.50341  0.08649  1.0000
  C   C86       1.0  0.04576  0.68703  0.18086  1.0000
  S   S37       1.0  0.06988  0.84986  0.19771  1.0000
  S   S38       1.0  0.11786  0.55228  0.18830  1.0000
  H   H88       1.0  0.31549  0.48238  0.50180  1.0000
  C   C87       1.0  0.14091  0.70892  0.21623  1.0000
  Fe  Fe20      1.0  0.23338  0.85124  0.37948  1.0000
  S   S39       1.0  0.22506  0.85036  0.31390  1.0000
  S   S40       1.0  0.22725  0.88656  0.41573  1.0000
  Fe  Fe21      1.0  0.25068  0.79679  0.38121  1.0000
  S   S41       1.0  0.24381  0.79092  0.31649  1.0000
  S   S42       1.0  0.26331  0.76822  0.42636  1.0000
  Fe  Fe22      1.0  0.26553  0.82826  0.31006  1.0000
  S   S43       1.0  0.29698  0.83635  0.26080  1.0000
  Fe  Fe23      1.0  0.20398  0.81325  0.32542  1.0000
  S   S44       1.0  0.16204  0.79698  0.30539  1.0000
  S   S45       1.0  0.27537  0.83237  0.37441  1.0000
  S   S46       1.0  0.20940  0.81593  0.39122  1.0000
  H   H89       1.0  0.26294  0.92874  0.31520  1.0000
  C   C88       1.0  0.09629  0.47867  0.08675  1.0000
  H   H90       1.0  0.33316  0.81861  0.32467  1.0000
  H   H91       1.0  0.29601  0.89719  0.28628  1.0000
  H   H92       1.0  0.25429  0.92674  0.36683  1.0000
  H   H93       1.0  0.13560  0.52942  0.11070  1.0000
  C   C89       1.0  0.04449  0.53943  0.13257  1.0000
  N   N8        1.0  0.14279  0.49212  0.13135  1.0000
  Fe  Fe24      1.0  0.31308  0.66631  0.23791  1.0000
  S   S47       1.0  0.27288  0.67735  0.20827  1.0000
  C   C90       1.0  0.11041  0.46064  0.10905  1.0000
  S   S48       1.0  0.31433  0.63866  0.28780  1.0000
  H   H94       1.0  0.12676  0.86311  0.21620  1.0000
  S   S49       1.0  0.06913  0.61358  0.18931  1.0000
  Fe  Fe25      1.0  0.12931  0.63220  0.26033  1.0000
  S   S50       1.0  0.16476  0.64169  0.30116  1.0000
  S   S51       1.0  0.13711  0.62417  0.19625  1.0000
  S   S52       1.0  0.28406  0.51325  0.35428  1.0000
  S   S53       1.0  0.33984  0.69527  0.26711  1.0000
  H   H95       1.0  0.29795  0.49843  0.43723  1.0000
  H   H96       1.0  0.09720  0.50200  0.19662  1.0000
  C   C91       1.0  0.11433  0.76859  0.17149  1.0000
  C   C92       1.0  0.24266  0.66916  0.23521  1.0000
  C   C93       1.0  0.24430  0.66224  0.27501  1.0000
  C   C94       1.0  0.22017  0.65426  0.29544  1.0000
  C   C95       1.0  0.19426  0.65359  0.27626  1.0000
  C   C96       1.0  0.19239  0.66160  0.23703  1.0000
  C   C97       1.0  0.21655  0.66931  0.21649  1.0000
  H   H97       1.0  0.26404  0.66332  0.29025  1.0000
  H   H98       1.0  0.22163  0.64840  0.32599  1.0000
  H   H99       1.0  0.17240  0.66177  0.22237  1.0000
  H   H100      1.0  0.21510  0.67498  0.18584  1.0000
  H   H101      1.0  0.03358  0.89319  0.20393  1.0000
  C   C98       1.0  0.32853  0.57250  0.31272  1.0000
  C   C99       1.0  0.31170  0.55693  0.33659  1.0000
  C   C100      1.0  0.30626  0.53217  0.32518  1.0000
  C   C101      1.0  0.31785  0.52295  0.29001  1.0000
  C   C102      1.0  0.33452  0.53857  0.26608  1.0000
  H   H102      1.0  0.05197  0.55828  0.26668  1.0000
  H   H103      1.0  0.30291  0.56412  0.36387  1.0000
  H   H104      1.0  0.31403  0.50380  0.28122  1.0000
  H   H105      1.0  0.07746  0.47370  0.07060  1.0000
  C   C103      1.0  0.23054  0.88461  0.46774  1.0000
  C   C104      1.0  0.22705  0.90634  0.49073  1.0000
  S   S54       1.0  0.18488  0.46739  0.25107  1.0000
  H   H106      1.0  0.32308  0.76311  0.31085  1.0000
  C   C105      1.0  0.23678  0.86189  0.48648  1.0000
  H   H107      1.0  0.22215  0.92398  0.47650  1.0000
  H   H108      1.0  0.35677  0.86635  0.36557  1.0000
  H   H109      1.0  0.23958  0.84503  0.46914  1.0000
  C   C106      1.0  0.28545  0.74368  0.41150  1.0000
  C   C107      1.0  0.29917  0.72974  0.44058  1.0000
  C   C108      1.0  0.31621  0.70940  0.43006  1.0000
  C   C109      1.0  0.31908  0.70244  0.39047  1.0000
  C   C110      1.0  0.30473  0.71597  0.36131  1.0000
  C   C111      1.0  0.28839  0.73695  0.37175  1.0000
  H   H110      1.0  0.29682  0.73480  0.47138  1.0000
  C   C112      1.0  0.29539  0.47612  0.49054  1.0000
  H   H111      1.0  0.30622  0.71036  0.33081  1.0000
  H   H112      1.0  0.27739  0.74740  0.34924  1.0000
  H   H113      1.0  0.16304  0.84331  0.25861  1.0000
  H   H114      1.0  0.12169  0.78319  0.15159  1.0000
  H   H115      1.0  0.06784  0.80558  0.24876  1.0000
  C   C113      1.0  0.12173  0.84621  0.23254  1.0000
  H   H116      1.0  0.07410  0.72396  0.10896  1.0000
  H   H117      1.0  0.15584  0.50480  0.18744  1.0000
  C   C114      1.0  0.09492  0.83542  0.22893  1.0000
  C   C115      1.0  0.08859  0.81373  0.25052  1.0000
  C   C116      1.0  0.10933  0.80232  0.27401  1.0000
  C   C117      1.0  0.13634  0.81282  0.27702  1.0000
  C   C118      1.0  0.14234  0.83503  0.25658  1.0000
  Fe  Fe26      1.0  0.27320  0.47726  0.32373  1.0000
  H   H118      1.0  0.17698  0.51613  0.14676  1.0000
  N   N9        1.0  0.22978  0.57521  0.26957  1.0000
  C   C119      1.0  0.20393  0.58342  0.25759  1.0000
  C   C120      1.0  0.23397  0.55041  0.27843  1.0000
  C   C121      1.0  0.18172  0.56648  0.25294  1.0000
  C   C122      1.0  0.21220  0.53297  0.27412  1.0000
  C   C123      1.0  0.18596  0.54109  0.26110  1.0000
  C   C124      1.0  0.25265  0.59333  0.27480  1.0000
  H   H119      1.0  0.20033  0.60316  0.25157  1.0000
  H   H120      1.0  0.25421  0.54395  0.28891  1.0000
  H   H121      1.0  0.16130  0.57304  0.24322  1.0000
  H   H122      1.0  0.21558  0.51329  0.28094  1.0000
  H   H123      1.0  0.16890  0.52773  0.25762  1.0000
  H   H124      1.0  0.25169  0.60847  0.25215  1.0000
  H   H125      1.0  0.25113  0.60201  0.30456  1.0000
  H   H126      1.0  0.27361  0.58425  0.27170  1.0000
  N   N10       1.0  0.20468  0.73606  0.39455  1.0000
  C   C125      1.0  0.19183  0.74667  0.36258  1.0000
  C   C126      1.0  0.22324  0.71670  0.38960  1.0000
  C   C127      1.0  0.19793  0.73829  0.32432  1.0000
  C   C128      1.0  0.22985  0.70788  0.35177  1.0000
  C   C129      1.0  0.21717  0.71883  0.31894  1.0000
  C   C130      1.0  0.19761  0.74502  0.43432  1.0000
  H   H127      1.0  0.17702  0.76196  0.36650  1.0000
  H   H128      1.0  0.23373  0.70845  0.41485  1.0000
  H   H129      1.0  0.18808  0.74715  0.29906  1.0000
  H   H130      1.0  0.24518  0.69300  0.34800  1.0000
  H   H131      1.0  0.22239  0.71237  0.28940  1.0000
  H   H132      1.0  0.21389  0.73949  0.45611  1.0000
  H   H133      1.0  0.19694  0.76588  0.43479  1.0000
  H   H134      1.0  0.17697  0.73738  0.44382  1.0000
  H   H135      1.0  0.24418  0.90178  0.33445  1.0000
  H   H136      1.0  0.32713  0.69896  0.45273  1.0000
  Fe  Fe27      1.0  0.02751  0.83275  0.18259  1.0000
  C   C131      1.0  0.16520  0.49968  0.15837  1.0000
  Fe  Fe28      1.0  0.06635  0.62217  0.25390  1.0000
  H   H137      1.0  0.05663  0.75144  0.22453  1.0000
  S   S55       1.0  0.09487  0.67746  0.14179  1.0000
  H   H138      1.0  0.33670  0.77302  0.24204  1.0000
  H   H139      1.0  0.05541  0.48089  0.16930  1.0000
  C   C132      1.0  0.04740  0.85468  0.30868  1.0000
  H   H140      1.0  0.10446  0.78520  0.28988  1.0000
  C   C133      1.0  0.07790  0.75093  0.21280  1.0000
  Fe  Fe29      1.0  0.10778  0.59190  0.20547  1.0000
  S   S56       1.0  0.10295  0.59799  0.27043  1.0000
  C   C134      1.0  0.02905  0.52400  0.25593  1.0000
  C   C135      1.0  0.08248  0.51249  0.17890  1.0000
  H   H141      1.0  0.04903  0.66935  0.19564  1.0000
  H   H142      1.0  0.13573  0.70064  0.24556  1.0000
  S   S57       1.0  0.23324  0.45756  0.33956  1.0000
  C   C136      1.0  0.06451  0.69505  0.15154  1.0000
  H   H143      1.0  0.34117  0.87571  0.29719  1.0000
  H   H144      1.0  0.13844  0.69418  0.19332  1.0000
  C   C137      1.0  0.33984  0.56336  0.27732  1.0000
  C   C138      1.0  0.33747  0.87671  0.36070  1.0000
  C   C139      1.0  0.25373  0.45054  0.49649  1.0000
  H   H145      1.0  0.07334  0.78501  0.17900  1.0000
  H   H146      1.0  0.09450  0.51776  0.07039  1.0000
  Fe  Fe30      1.0  0.34377  0.66646  0.31488  1.0000
  C   C140      1.0  0.25987  0.47652  0.44002  1.0000
  H   H147      1.0  0.16332  0.71473  0.21706  1.0000
  H   H148      1.0  0.25258  0.48352  0.41179  1.0000
  S   S58       1.0  0.26513  0.47574  0.25892  1.0000
  H   H149      1.0  0.32720  0.88013  0.42266  1.0000
  H   H150      1.0  0.12597  0.47634  0.24118  1.0000
  H   H151      1.0  0.08804  0.71599  0.24084  1.0000
  C   C141      1.0  0.35007  0.83262  0.22941  1.0000
  C   C142      1.0  0.13181  0.74852  0.18168  1.0000
  C   C143      1.0  0.35169  0.76367  0.26107  1.0000
  H   H152      1.0  0.15277  0.74760  0.16902  1.0000
  C   C144      1.0  0.04890  0.87400  0.28070  1.0000
  C   C145      1.0  0.08717  0.76965  0.18699  1.0000
  H   H153      1.0  0.07265  0.57063  0.13992  1.0000
  N   N11       1.0  0.12257  0.73021  0.20703  1.0000
  C   C146      1.0  0.09584  0.73102  0.22210  1.0000
  C   C147      1.0  0.08734  0.53787  0.17087  1.0000
  C   C148      1.0  0.30324  0.89434  0.31631  1.0000
  H   H154      1.0  0.18046  0.48419  0.16325  1.0000
  C   C149      1.0  0.34585  0.82123  0.29835  1.0000
  S   S59       1.0  0.34913  0.64899  0.20484  1.0000
  C   C150      1.0  0.05870  0.50057  0.16363  1.0000
  H   H155      1.0  0.06650  0.84711  0.32140  1.0000
  C   C151      1.0  0.03662  0.73283  0.14251  1.0000
  H   H156      1.0  0.03310  0.75045  0.12753  1.0000
  C   C152      1.0  0.05971  0.71778  0.13185  1.0000
  Fe  Fe31      1.0  0.09794  0.64684  0.18710  1.0000
  H   H157      1.0  0.28316  0.90328  0.41062  1.0000
  C   C153      1.0  0.27934  0.45880  0.51186  1.0000
  S   S60       1.0  0.34128  0.67719  0.37868  1.0000
  S   S61       1.0  0.09227  0.65729  0.25087  1.0000
  C   C154      1.0  0.03955  0.51408  0.14075  1.0000
  C   C155      1.0  0.21786  0.45008  0.44467  1.0000
  C   C156      1.0  0.32098  0.88449  0.39263  1.0000
  C   C157      1.0  0.06844  0.55129  0.14749  1.0000
  H   H158      1.0  0.34052  0.83898  0.20223  1.0000
  C   C158      1.0  0.29597  0.89752  0.38559  1.0000
  C   C159      1.0  0.12926  0.50987  0.10927  1.0000
  H   H159      1.0  0.14454  0.45367  0.14864  1.0000
  C   C160      1.0  0.34385  0.75813  0.30004  1.0000
  C   C161      1.0  0.33325  0.82920  0.26326  1.0000
  H   H160      1.0  0.04366  0.91631  0.23997  1.0000
  H   H161      1.0  0.33308  0.59144  0.32208  1.0000
  C   C162      1.0  0.26101  0.91564  0.34061  1.0000
  C   C163      1.0  0.28563  0.48507  0.45437  1.0000
  Fe  Fe32      1.0  0.22680  0.45309  0.27436  1.0000
  C   C164      1.0  0.13022  0.45749  0.23100  1.0000
  N   N12       1.0  0.28755  0.90249  0.34776  1.0000
  H   H162      1.0  0.02993  0.54986  0.11440  1.0000
  S   S62       1.0  0.02589  0.61710  0.28759  1.0000
  C   C165      1.0  0.13390  0.46772  0.13101  1.0000
  H   H163      1.0  0.06940  0.88103  0.27178  1.0000
  C   C166      1.0  0.32870  0.88187  0.32230  1.0000
  N   N13       1.0  0.24421  0.45958  0.46114  1.0000
  H   H164      1.0  0.08759  0.45107  0.21150  1.0000
  H   H165      1.0  0.20650  0.46511  0.42849  1.0000
  C   C167      1.0  0.02742  0.90219  0.23231  1.0000
  C   C168      1.0  0.15752  0.44765  0.23428  1.0000
  C   C169      1.0  0.03499  0.54942  0.25062  1.0000
  H   H166      1.0  0.34301  0.53160  0.23855  1.0000
  Fe  Fe33      1.0  0.35266  0.62358  0.25746  1.0000
  H   H167      1.0  0.04166  0.51278  0.27586  1.0000
  C   C170      1.0  0.23929  0.86090  0.52790  1.0000
  N   N14       1.0  0.02507  0.88301  0.26328  1.0000
  H   H168      1.0  0.02362  0.58316  0.22036  1.0000
  C   C171      1.0  0.22964  0.90536  0.53216  1.0000
  H   H169      1.0  0.12770  0.87554  0.61751  1.0000
  N   N15       1.0  0.17099  0.86780  0.71301  1.0000
  H   H170      1.0  0.31017  0.91294  0.75547  1.0000
  C   C172      1.0  0.13978  0.87304  0.64430  1.0000
  C   C173      1.0  0.16898  0.87117  0.64226  1.0000
  S   S63       1.0  0.04125  0.91359  0.74447  1.0000
  C   C174      1.0  0.09446  0.92495  0.71773  1.0000
  Fe  Fe34      1.0  0.23513  0.91528  0.64089  1.0000
  S   S64       1.0  0.24455  0.91240  0.70602  1.0000
  S   S65       1.0  0.23868  0.88043  0.60296  1.0000
  H   H171      1.0  0.07793  0.91221  0.81353  1.0000
  H   H172      1.0  0.34815  0.88882  0.78832  1.0000
  C   C175      1.0  0.18748  0.86454  0.74909  1.0000
  C   C176      1.0  0.13661  0.92550  0.75812  1.0000
  H   H173      1.0  0.19297  0.84447  0.75317  1.0000
  C   C177      1.0  0.35289  0.90674  0.77476  1.0000
  C   C178      1.0  0.12371  0.92842  0.72137  1.0000
  H   H174      1.0  0.12955  0.91766  0.81991  1.0000
  C   C179      1.0  0.23574  0.88259  0.55092  1.0000
  H   H175      1.0  0.20708  0.86704  0.67517  1.0000
  C   C180      1.0  0.07773  0.91901  0.75084  1.0000
  C   C181      1.0  0.09051  0.91687  0.78780  1.0000
  C   C182      1.0  0.33133  0.92033  0.75599  1.0000
  C   C183      1.0  0.12628  0.87182  0.68096  1.0000
  H   H176      1.0  0.17975  0.87210  0.61389  1.0000
  C   C184      1.0  0.11980  0.91997  0.79133  1.0000
  H   H177      1.0  0.08478  0.92673  0.68902  1.0000
  H   H178      1.0  0.22676  0.92218  0.54958  1.0000
  C   C185      1.0  0.18435  0.86842  0.67710  1.0000
  H   H179      1.0  0.10359  0.87352  0.68305  1.0000
  H   H180      1.0  0.17579  0.87134  0.77555  1.0000
  C   C186      1.0  0.14231  0.86910  0.71522  1.0000
  H   H181      1.0  0.13165  0.86874  0.74366  1.0000
  H   H182      1.0  0.20704  0.87590  0.74757  1.0000
  S   S66       1.0  0.17364  0.92692  0.76365  1.0000
  S   S67       1.0  0.19415  0.93534  0.64993  1.0000
  H   H183      1.0  0.24405  0.84322  0.54215  1.0000
  H   H184      1.0  0.13635  0.93273  0.69556  1.0000
  C   C187      1.0  0.33707  0.94371  0.73899  1.0000
  Fe  Fe35      1.0  0.20504  0.93543  0.71421  1.0000
  H   H185      1.0  0.28705  0.45112  0.53952  1.0000
  H   H186      1.0  0.68749  0.44144  0.22805  1.0000
  C   C188      1.0  0.66679  0.43324  0.22620  1.0000
  Fe  Fe36      1.0  0.50904  0.41911  0.10459  1.0000
  S   S68       1.0  0.52051  0.40797  0.16674  1.0000
  S   S69       1.0  0.51047  0.38721  0.06056  1.0000
  C   C189      1.0  0.41016  0.38365  0.10630  1.0000
  C   C190      1.0  0.40492  0.43408  0.19061  1.0000
  H   H187      1.0  0.38115  0.37908  0.21732  1.0000
  C   C191      1.0  0.59997  0.39862  0.11795  1.0000
  H   H188      1.0  0.41502  0.37410  0.23825  1.0000
  N   N16       1.0  0.41424  0.37348  0.17527  1.0000
  C   C192      1.0  0.45551  0.37434  0.13404  1.0000
  H   H189      1.0  0.36681  0.43933  0.15743  1.0000
  N   N17       1.0  0.59640  0.41367  0.08204  1.0000
  C   C193      1.0  0.37563  0.43586  0.18633  1.0000
  H   H190      1.0  0.59897  0.37819  0.11161  1.0000
  H   H191      1.0  0.63011  0.38156  0.25489  1.0000
  C   C194      1.0  0.63438  0.39953  0.24114  1.0000
  H   H192      1.0  0.37537  0.38180  0.14700  1.0000
  C   C195      1.0  0.44269  0.37082  0.17093  1.0000
  H   H193      1.0  0.59186  0.40443  0.22023  1.0000
  C   C196      1.0  0.39793  0.37962  0.14352  1.0000
  H   H194      1.0  0.47805  0.37210  0.13056  1.0000
  H   H195      1.0  0.39726  0.38886  0.08128  1.0000
  C   C197      1.0  0.61814  0.43578  0.20429  1.0000
  C   C198      1.0  0.66134  0.41009  0.24412  1.0000
  C   C199      1.0  0.61275  0.41238  0.22140  1.0000
  H   H196      1.0  0.44900  0.38388  0.07291  1.0000
  H   H197      1.0  0.45568  0.36624  0.19617  1.0000
  C   C200      1.0  0.35765  0.43305  0.21908  1.0000
  C   C201      1.0  0.43914  0.38088  0.10159  1.0000
  H   H198      1.0  0.65172  0.43874  0.32733  1.0000
  C   C202      1.0  0.41647  0.42882  0.22757  1.0000
  H   H199      1.0  0.58320  0.40341  0.13961  1.0000
  H   H200      1.0  0.39638  0.34797  0.21648  1.0000
  H   H201      1.0  0.62067  0.40243  0.13182  1.0000
  H   H202      1.0  0.41843  0.43600  0.16507  1.0000
  H   H203      1.0  0.40728  0.42204  0.28913  1.0000
  C   C203      1.0  0.36921  0.42855  0.25630  1.0000
  H   H204      1.0  0.57314  0.38529  0.05194  1.0000
  C   C204      1.0  0.40102  0.36830  0.21368  1.0000
  C   C205      1.0  0.39852  0.42626  0.26044  1.0000
  C   C206      1.0  0.58183  0.40412  0.05073  1.0000
  S   S70       1.0  0.45278  0.42304  0.23314  1.0000
  Fe  Fe37      1.0  0.48385  0.43256  0.18424  1.0000
  C   C207      1.0  0.60622  0.43780  0.08101  1.0000
  Fe  Fe38      1.0  0.54681  0.44305  0.16716  1.0000
  S   S71       1.0  0.47094  0.44162  0.12221  1.0000
  S   S72       1.0  0.68743  0.39428  0.27134  1.0000
  H   H205      1.0  0.60431  0.44417  0.29798  1.0000
  Fe  Fe39      1.0  0.52270  0.10794  0.72430  1.0000
  S   S73       1.0  0.49260  0.08891  0.68326  1.0000
  S   S74       1.0  0.50966  0.11377  0.78700  1.0000
  Fe  Fe40      1.0  0.49994  0.34178  0.76238  1.0000
  S   S75       1.0  0.46690  0.33681  0.71498  1.0000
  S   S76       1.0  0.49719  0.33530  0.82800  1.0000
  H   H206      1.0  0.41802  0.15184  0.83072  1.0000
  C   C208      1.0  0.42296  0.40324  0.71025  1.0000
  H   H207      1.0  0.38772  0.27773  0.81611  1.0000
  C   C209      1.0  0.43046  0.34072  0.72193  1.0000
  C   C210      1.0  0.41837  0.34202  0.75959  1.0000
  C   C211      1.0  0.38908  0.34452  0.76370  1.0000
  H   H208      1.0  0.43153  0.34084  0.78547  1.0000
  H   H209      1.0  0.37080  0.34600  0.66675  1.0000
  C   C212      1.0  0.54919  0.23177  0.84242  1.0000
  C   C213      1.0  0.53610  0.20996  0.82862  1.0000
  H   H210      1.0  0.56858  0.23040  0.85880  1.0000
  H   H211      1.0  0.54523  0.19181  0.83475  1.0000
  H   H212      1.0  0.43997  0.27621  0.81089  1.0000
  C   C214      1.0  0.42926  0.07897  0.76210  1.0000
  C   C215      1.0  0.45597  0.07962  0.74454  1.0000
  C   C216      1.0  0.45902  0.08609  0.70468  1.0000
  C   C217      1.0  0.43511  0.09123  0.68216  1.0000
  H   H213      1.0  0.41008  0.96911  0.88099  1.0000
  H   H214      1.0  0.42719  0.07412  0.79303  1.0000
  H   H215      1.0  0.47414  0.07483  0.76188  1.0000
  H   H216      1.0  0.43736  0.09604  0.65123  1.0000
  C   C218      1.0  0.51022  0.39209  0.00888  1.0000
  C   C219      1.0  0.51367  0.06123  0.85520  1.0000
  C   C220      1.0  0.49205  0.04359  0.85990  1.0000
  H   H217      1.0  0.50868  0.08097  0.85383  1.0000
  H   H218      1.0  0.47045  0.04982  0.86155  1.0000
  C   C221      1.0  0.43994  0.14454  0.75850  1.0000
  C   C222      1.0  0.51572  0.37479  0.94244  1.0000
  H   H219      1.0  0.67485  0.15360  0.68098  1.0000
  H   H220      1.0  0.51968  0.35887  0.92339  1.0000
  S   S77       1.0  0.47068  0.99631  0.86650  1.0000
  Fe  Fe41      1.0  0.55434  0.10458  0.80125  1.0000
  S   S78       1.0  0.56634  0.09555  0.73883  1.0000
  S   S79       1.0  0.56861  0.07512  0.84398  1.0000
  Fe  Fe42      1.0  0.52503  0.15301  0.77796  1.0000
  S   S80       1.0  0.53553  0.14781  0.71399  1.0000
  S   S81       1.0  0.49494  0.18474  0.78886  1.0000
  Fe  Fe43      1.0  0.57801  0.13623  0.73564  1.0000
  S   S82       1.0  0.61754  0.14749  0.70346  1.0000
  S   S83       1.0  0.56883  0.14474  0.79924  1.0000
  Fe  Fe44      1.0  0.52224  0.37102  0.83307  1.0000
  S   S84       1.0  0.52189  0.37884  0.76762  1.0000
  S   S85       1.0  0.51040  0.40299  0.87414  1.0000
  Fe  Fe45      1.0  0.53979  0.31751  0.82065  1.0000
  S   S86       1.0  0.54031  0.32037  0.75472  1.0000
  S   S87       1.0  0.55545  0.28235  0.84929  1.0000
  Fe  Fe46      1.0  0.56221  0.35691  0.76476  1.0000
  S   S88       1.0  0.59757  0.36889  0.72362  1.0000
  S   S89       1.0  0.56471  0.35268  0.83058  1.0000
  C   C223      1.0  0.62842  0.35051  0.72127  1.0000
  H   H221      1.0  0.64599  0.09201  0.73104  1.0000
  C   C224      1.0  0.43173  0.15835  0.69168  1.0000
  C   C225      1.0  0.68132  0.32658  0.72066  1.0000
  C   C226      1.0  0.66207  0.32219  0.75154  1.0000
  C   C227      1.0  0.63574  0.33424  0.75201  1.0000
  C   C228      1.0  0.50566  0.41892  0.95110  1.0000
  H   H222      1.0  0.62149  0.33157  0.77669  1.0000
  C   C229      1.0  0.51101  0.21170  0.80758  1.0000
  C   C230      1.0  0.49906  0.23526  0.80020  1.0000
  C   C231      1.0  0.51248  0.25713  0.81327  1.0000
  C   C232      1.0  0.53748  0.25534  0.83459  1.0000
  H   H223      1.0  0.47969  0.23654  0.78381  1.0000
  H   H224      1.0  0.50352  0.27535  0.80703  1.0000
  C   C233      1.0  0.64708  0.15598  0.73127  1.0000
  C   C234      1.0  0.67317  0.15766  0.71223  1.0000
  H   H225      1.0  0.40742  0.94684  0.75945  1.0000
  H   H226      1.0  0.65285  0.26212  0.78661  1.0000
  C   C235      1.0  0.66896  0.16902  0.79256  1.0000
  C   C236      1.0  0.64498  0.16170  0.77152  1.0000
  C   C237      1.0  0.65047  0.10123  0.79237  1.0000
  C   C238      1.0  0.42334  0.27999  0.71353  1.0000
  H   H227      1.0  0.68488  0.09496  0.68445  1.0000
  H   H228      1.0  0.62493  0.16078  0.78644  1.0000
  C   C239      1.0  0.49830  0.01796  0.86220  1.0000
  C   C240      1.0  0.52631  0.01004  0.86049  1.0000
  C   C241      1.0  0.54800  0.02777  0.85670  1.0000
  C   C242      1.0  0.54166  0.05335  0.85337  1.0000
  H   H229      1.0  0.53129  0.99032  0.86265  1.0000
  H   H230      1.0  0.56964  0.02159  0.85561  1.0000
  C   C243      1.0  0.51074  0.39843  0.92593  1.0000
  C   C244      1.0  0.42720  0.27738  0.78447  1.0000
  C   C245      1.0  0.40836  0.09097  0.69992  1.0000
  H   H231      1.0  0.42243  0.34090  0.65931  1.0000
  H   H232      1.0  0.41522  0.01142  0.84546  1.0000
  C   C246      1.0  0.65407  0.42125  0.66392  1.0000
  N   N18       1.0  0.41279  0.15015  0.76848  1.0000
  H   H233      1.0  0.36326  0.40725  0.76537  1.0000
  N   N19       1.0  0.39469  0.28122  0.71669  1.0000
  C   C247      1.0  0.44983  0.14857  0.72004  1.0000
  H   H234      1.0  0.62843  0.41717  0.71598  1.0000
  H   H235      1.0  0.46276  0.27826  0.74469  1.0000
  H   H236      1.0  0.43910  0.16122  0.66163  1.0000
  H   H237      1.0  0.50159  0.43173  0.01153  1.0000
  H   H238      1.0  0.67368  0.41133  0.78703  1.0000
  C   C248      1.0  0.39438  0.40544  0.71901  1.0000
  C   C249      1.0  0.64931  0.41473  0.70350  1.0000
  C   C250      1.0  0.51534  0.37164  0.98374  1.0000
  H   H239      1.0  0.45408  0.13684  0.78035  1.0000
  H   H240      1.0  0.56380  0.21245  0.69922  1.0000
  H   H241      1.0  0.51908  0.35323  0.99620  1.0000
  H   H242      1.0  0.37975  0.34548  0.79290  1.0000
  C   C251      1.0  0.57737  0.41865  0.01687  1.0000
  H   H243      1.0  0.47387  0.41233  0.80354  1.0000
  H   H244      1.0  0.36944  0.97106  0.72692  1.0000
  H   H245      1.0  0.38867  0.29291  0.65695  1.0000
  C   C252      1.0  0.44002  0.27827  0.74733  1.0000
  C   C253      1.0  0.38391  0.34470  0.69265  1.0000
  C   C254      1.0  0.39409  0.00777  0.83500  1.0000
  H   H246      1.0  0.60683  0.28437  0.78895  1.0000
  H   H247      1.0  0.45958  0.38210  0.81690  1.0000
  S   S90       1.0  0.37245  0.08506  0.76344  1.0000
  C   C255      1.0  0.39490  0.15984  0.74090  1.0000
  C   C256      1.0  0.66931  0.10677  0.82254  1.0000
  C   C257      1.0  0.37754  0.28258  0.68091  1.0000
  C   C258      1.0  0.67371  0.34235  0.68949  1.0000
  C   C259      1.0  0.36471  0.95305  0.74007  1.0000
  N   N20       1.0  0.58614  0.23040  0.74539  1.0000
  C   C260      1.0  0.58455  0.25411  0.76074  1.0000
  C   C261      1.0  0.61128  0.21802  0.74396  1.0000
  C   C262      1.0  0.60846  0.26582  0.77587  1.0000
  C   C263      1.0  0.63568  0.22921  0.75864  1.0000
  C   C264      1.0  0.63418  0.25327  0.77478  1.0000
  H   H248      1.0  0.56468  0.26402  0.76204  1.0000
  H   H249      1.0  0.61247  0.19932  0.73151  1.0000
  N   N21       1.0  0.38303  0.98411  0.83710  1.0000
  H   H250      1.0  0.50181  0.43728  0.93853  1.0000
  H   H251      1.0  0.38973  0.17190  0.68050  1.0000
  C   C265      1.0  0.64721  0.35401  0.68960  1.0000
  N   N22       1.0  0.54049  0.01820  0.74896  1.0000
  C   C266      1.0  0.56691  0.02405  0.76181  1.0000
  C   C267      1.0  0.53566  0.99605  0.72982  1.0000
  C   C268      1.0  0.58932  0.00750  0.75558  1.0000
  C   C269      1.0  0.55767  0.97928  0.72250  1.0000
  C   C270      1.0  0.58464  0.98503  0.73560  1.0000
  C   C271      1.0  0.51700  0.03549  0.75562  1.0000
  H   H252      1.0  0.57078  0.04149  0.77729  1.0000
  H   H253      1.0  0.51466  0.99123  0.72012  1.0000
  H   H254      1.0  0.61014  0.01202  0.76631  1.0000
  H   H255      1.0  0.64215  0.39472  0.77286  1.0000
  H   H256      1.0  0.60184  0.97201  0.73052  1.0000
  H   H257      1.0  0.52384  0.05311  0.77019  1.0000
  H   H258      1.0  0.50726  0.04078  0.72700  1.0000
  H   H259      1.0  0.50094  0.02653  0.77499  1.0000
  H   H260      1.0  0.39847  0.40614  0.81896  1.0000
  H   H261      1.0  0.47130  0.14374  0.71223  1.0000
  C   C272      1.0  0.40278  0.14473  0.80863  1.0000
  C   C273      1.0  0.40546  0.08505  0.74002  1.0000
  C   C274      1.0  0.56092  0.21776  0.73072  1.0000
  H   H262      1.0  0.54191  0.22977  0.73324  1.0000
  H   H263      1.0  0.37336  0.16428  0.74868  1.0000
  C   C275      1.0  0.41315  0.34192  0.68854  1.0000
  H   H264      1.0  0.66726  0.17354  0.82365  1.0000
  H   H265      1.0  0.64144  0.36613  0.66531  1.0000
  C   C276      1.0  0.37845  0.02753  0.81916  1.0000
  H   H266      1.0  0.55688  0.20047  0.74829  1.0000
  H   H267      1.0  0.44640  0.41042  0.83940  1.0000
  H   H268      1.0  0.66155  0.11157  0.85178  1.0000
  H   H269      1.0  0.43357  0.28115  0.68486  1.0000
  H   H270      1.0  0.65552  0.21917  0.75783  1.0000
  H   H271      1.0  0.38212  0.15367  0.81480  1.0000
  H   H272      1.0  0.36155  0.05072  0.69228  1.0000
  Fe  Fe47      1.0  0.48217  0.95642  0.85273  1.0000
  H   H273      1.0  0.56583  0.41098  0.99209  1.0000
  C   C277      1.0  0.40410  0.16420  0.70216  1.0000
  C   C278      1.0  0.37178  0.34597  0.73028  1.0000
  H   H274      1.0  0.55377  0.96178  0.70713  1.0000
  H   H275      1.0  0.42998  0.40129  0.67985  1.0000
  H   H276      1.0  0.39010  0.09519  0.68246  1.0000
  H   H277      1.0  0.38727  0.04627  0.81772  1.0000
  H   H278      1.0  0.35918  0.28115  0.75550  1.0000
  C   C279      1.0  0.38555  0.40663  0.75834  1.0000
  C   C280      1.0  0.38191  0.28015  0.75298  1.0000
  C   C281      1.0  0.50548  0.41581  0.99245  1.0000
  H   H279      1.0  0.62798  0.10167  0.79806  1.0000
  H   H280      1.0  0.41753  0.95945  0.83100  1.0000
  C   C282      1.0  0.40556  0.40579  0.78845  1.0000
  N   N23       1.0  0.67031  0.40428  0.72557  1.0000
  H   H281      1.0  0.66788  0.31003  0.77578  1.0000
  C   C283      1.0  0.66081  0.09568  0.75457  1.0000
  C   C284      1.0  0.44237  0.40229  0.74109  1.0000
  C   C285      1.0  0.40043  0.96366  0.85242  1.0000
  C   C286      1.0  0.39795  0.27826  0.78739  1.0000
  N   N24       1.0  0.43358  0.40395  0.77956  1.0000
  H   H282      1.0  0.46445  0.39956  0.73408  1.0000
  H   H283      1.0  0.40033  0.12411  0.81246  1.0000
  C   C287      1.0  0.45424  0.40207  0.81135  1.0000
  H   H284      1.0  0.37897  0.40524  0.69549  1.0000
  H   H285      1.0  0.63712  0.42878  0.64621  1.0000
  H   H286      1.0  0.37248  0.26335  0.67050  1.0000
  H   H287      1.0  0.68462  0.42196  0.61639  1.0000
  C   C288      1.0  0.68060  0.41739  0.64721  1.0000
  H   H288      1.0  0.38821  0.94610  0.85713  1.0000
  C   C289      1.0  0.66503  0.39698  0.76675  1.0000
  H   H289      1.0  0.67485  0.37847  0.77312  1.0000
  H   H290      1.0  0.68820  0.34553  0.66523  1.0000
  N   N25       1.0  0.68913  0.09540  0.74722  1.0000
  H   H291      1.0  0.35758  0.29289  0.68664  1.0000
  C   C290      1.0  0.58724  0.44328  0.01560  1.0000
  S   S91       1.0  0.47386  0.94476  0.79028  1.0000
  Fe  Fe48      1.0  0.45802  0.81730  0.21513  1.0000
  S   S92       1.0  0.44666  0.82148  0.15124  1.0000
  S   S93       1.0  0.42821  0.81336  0.26781  1.0000
  Fe  Fe49      1.0  0.47680  0.78995  0.14053  1.0000
  S   S94       1.0  0.46748  0.76058  0.09525  1.0000
  S   S95       1.0  0.48524  0.78355  0.20449  1.0000
  S   S96       1.0  0.58309  0.68919  0.20820  1.0000
  Fe  Fe50      1.0  0.58671  0.61640  0.20453  1.0000
  S   S97       1.0  0.59801  0.63801  0.25924  1.0000
  S   S98       1.0  0.59032  0.57420  0.20198  1.0000
  Fe  Fe51      1.0  0.55993  0.66119  0.24543  1.0000
  S   S99       1.0  0.52816  0.67305  0.29095  1.0000
  S   S100      1.0  0.54661  0.63737  0.19467  1.0000
  S   S101      1.0  0.49445  0.51424  0.11333  1.0000
  C   C291      1.0  0.56418  0.55834  0.17491  1.0000
  C   C292      1.0  0.52184  0.53148  0.13527  1.0000
  C   C293      1.0  0.52014  0.55763  0.13857  1.0000
  C   C294      1.0  0.54135  0.57104  0.15820  1.0000
  H   H292      1.0  0.50236  0.56748  0.12625  1.0000
  H   H293      1.0  0.53990  0.59110  0.16041  1.0000
  C   C295      1.0  0.44405  0.69104  0.23365  1.0000
  C   C296      1.0  0.46883  0.69180  0.21120  1.0000
  C   C297      1.0  0.49462  0.68579  0.22862  1.0000
  C   C298      1.0  0.49585  0.67994  0.26885  1.0000
  C   C299      1.0  0.47125  0.68028  0.29170  1.0000
  C   C300      1.0  0.44532  0.68560  0.27403  1.0000
  H   H294      1.0  0.46801  0.69650  0.18012  1.0000
  H   H295      1.0  0.51358  0.68582  0.21098  1.0000
  H   H296      1.0  0.47217  0.67600  0.32294  1.0000
  H   H297      1.0  0.64959  0.46408  0.19300  1.0000
  H   H298      1.0  0.44944  0.81078  0.06655  1.0000
  C   C301      1.0  0.49220  0.73628  0.09686  1.0000
  C   C302      1.0  0.51867  0.70380  0.06305  1.0000
  C   C303      1.0  0.49816  0.72266  0.06255  1.0000
  C   C304      1.0  0.66623  0.47509  0.30795  1.0000
  C   C305      1.0  0.61131  0.75184  0.16660  1.0000
  C   C306      1.0  0.39181  0.82006  0.26545  1.0000
  C   C307      1.0  0.37503  0.81677  0.29943  1.0000
  C   C308      1.0  0.43424  0.62166  0.21079  1.0000
  H   H299      1.0  0.43071  0.85260  0.04885  1.0000
  H   H300      1.0  0.43746  0.63394  0.23689  1.0000
  H   H301      1.0  0.48700  0.62058  0.18385  1.0000
  H   H302      1.0  0.38460  0.81052  0.32664  1.0000
  H   H303      1.0  0.37115  0.77666  0.19233  1.0000
  Fe  Fe52      1.0  0.52116  0.81055  0.19657  1.0000
  S   S102      1.0  0.51468  0.81402  0.13112  1.0000
  S   S103      1.0  0.56232  0.79569  0.22151  1.0000
  Fe  Fe53      1.0  0.48533  0.84556  0.14601  1.0000
  S   S104      1.0  0.48202  0.88043  0.10771  1.0000
  S   S105      1.0  0.49462  0.84426  0.21168  1.0000
  Fe  Fe54      1.0  0.57309  0.66327  0.15817  1.0000
  S   S106      1.0  0.55842  0.67463  0.09791  1.0000
  Fe  Fe55      1.0  0.62042  0.66411  0.21760  1.0000
  S   S107      1.0  0.66161  0.68239  0.23342  1.0000
  S   S108      1.0  0.61252  0.64064  0.16390  1.0000
  C   C309      1.0  0.56614  0.53229  0.17057  1.0000
  C   C310      1.0  0.54520  0.51897  0.15065  1.0000
  H   H304      1.0  0.58388  0.52226  0.18250  1.0000
  H   H305      1.0  0.54734  0.49897  0.14722  1.0000
  N   N26       1.0  0.68045  0.91360  0.43837  1.0000
  H   H306      1.0  0.57754  0.78622  0.13400  1.0000
  H   H307      1.0  0.50669  0.64361  0.12614  1.0000
  H   H308      1.0  0.43444  0.50724  0.12879  1.0000
  C   C311      1.0  0.43873  0.66264  0.12101  1.0000
  H   H309      1.0  0.63949  0.53848  0.25617  1.0000
  Fe  Fe56      1.0  0.50137  0.47369  0.12789  1.0000
  H   H310      1.0  0.67526  0.51127  0.28322  1.0000
  H   H311      1.0  0.61701  0.44564  0.10632  1.0000
  H   H312      1.0  0.58226  0.72625  0.08592  1.0000
  S   S109      1.0  0.38261  0.64847  0.28978  1.0000
  C   C312      1.0  0.50640  0.73068  0.13185  1.0000
  C   C313      1.0  0.52651  0.71146  0.13253  1.0000
  C   C314      1.0  0.53267  0.69806  0.09811  1.0000
  H   H313      1.0  0.50163  0.74088  0.15855  1.0000
  H   H314      1.0  0.53746  0.70728  0.15953  1.0000
  C   C315      1.0  0.59062  0.81444  0.23803  1.0000
  C   C316      1.0  0.59021  0.84060  0.23519  1.0000
  C   C317      1.0  0.61342  0.85472  0.24820  1.0000
  H   H315      1.0  0.39185  0.83073  0.20412  1.0000
  C   C318      1.0  0.63753  0.81664  0.26701  1.0000
  C   C319      1.0  0.61428  0.80254  0.25425  1.0000
  H   H316      1.0  0.65264  0.70044  0.15314  1.0000
  H   H317      1.0  0.61473  0.78233  0.25699  1.0000
  N   N27       1.0  0.44530  0.63411  0.17528  1.0000
  C   C320      1.0  0.47323  0.63207  0.16593  1.0000
  H   H318      1.0  0.51107  0.84290  0.05991  1.0000
  C   C321      1.0  0.48450  0.64508  0.13351  1.0000
  C   C322      1.0  0.60175  0.45299  0.04785  1.0000
  H   H319      1.0  0.41137  0.61764  0.20817  1.0000
  C   C323      1.0  0.61798  0.71132  0.11617  1.0000
  H   H320      1.0  0.64163  0.89417  0.43118  1.0000
  H   H321      1.0  0.47567  0.67109  0.08641  1.0000
  S   S110      1.0  0.51139  0.46630  0.19122  1.0000
  C   C324      1.0  0.65935  0.49686  0.28695  1.0000
  C   C325      1.0  0.38950  0.73975  0.31047  1.0000
  C   C326      1.0  0.61350  0.48114  0.27496  1.0000
  H   H322      1.0  0.40715  0.77319  0.20621  1.0000
  H   H323      1.0  0.40416  0.72978  0.32921  1.0000
  N   N28       1.0  0.52594  0.75597  0.29201  1.0000
  C   C327      1.0  0.49774  0.75102  0.29235  1.0000
  C   C328      1.0  0.53582  0.77851  0.30537  1.0000
  C   C329      1.0  0.47853  0.76937  0.30457  1.0000
  C   C330      1.0  0.51721  0.79739  0.31723  1.0000
  C   C331      1.0  0.48838  0.79277  0.31665  1.0000
  C   C332      1.0  0.54574  0.73672  0.27842  1.0000
  H   H324      1.0  0.48994  0.73302  0.28232  1.0000
  H   H325      1.0  0.55820  0.78238  0.30538  1.0000
  H   H326      1.0  0.45612  0.76583  0.30361  1.0000
  H   H327      1.0  0.52511  0.81563  0.32599  1.0000
  H   H328      1.0  0.47364  0.80741  0.32499  1.0000
  H   H329      1.0  0.53644  0.72527  0.25440  1.0000
  H   H330      1.0  0.56522  0.74530  0.26615  1.0000
  H   H331      1.0  0.55123  0.72403  0.30329  1.0000
  C   C333      1.0  0.59664  0.72895  0.11027  1.0000
  H   H332      1.0  0.60424  0.52769  0.25129  1.0000
  C   C334      1.0  0.68637  0.67202  0.33219  1.0000
  C   C335      1.0  0.42470  0.50373  0.15739  1.0000
  S   S111      1.0  0.66596  0.86124  0.27996  1.0000
  H   H333      1.0  0.42518  0.67519  0.10455  1.0000
  C   C336      1.0  0.38705  0.49162  0.26989  1.0000
  C   C337      1.0  0.46710  0.66051  0.11108  1.0000
  H   H334      1.0  0.65790  0.93731  0.47767  1.0000
  H   H335      1.0  0.56061  0.76503  0.10039  1.0000
  C   C338      1.0  0.66138  0.89970  0.41764  1.0000
  H   H336      1.0  0.38520  0.51008  0.28494  1.0000
  S   S112      1.0  0.53789  0.45218  0.10370  1.0000
  H   H337      1.0  0.67774  0.64022  0.29558  1.0000
  H   H338      1.0  0.60860  0.76748  0.18671  1.0000
  H   H339      1.0  0.61976  0.69514  0.09684  1.0000
  C   C339      1.0  0.36293  0.74613  0.32486  1.0000
  N   N29       1.0  0.59356  0.74890  0.13531  1.0000
  C   C340      1.0  0.44131  0.50200  0.19106  1.0000
  S   S113      1.0  0.41168  0.69633  0.21061  1.0000
  C   C341      1.0  0.42856  0.49756  0.22778  1.0000
  H   H340      1.0  0.67054  0.63510  0.19278  1.0000
  H   H341      1.0  0.63034  0.51813  0.21558  1.0000
  H   H342      1.0  0.47616  0.91653  0.04504  1.0000
  N   N30       1.0  0.40002  0.49498  0.23084  1.0000
  C   C342      1.0  0.39678  0.74591  0.27153  1.0000
  H   H343      1.0  0.39980  0.47873  0.28839  1.0000
  H   H344      1.0  0.60899  0.47230  0.04760  1.0000
  H   H345      1.0  0.57214  0.84999  0.22276  1.0000
  H   H346      1.0  0.61302  0.87496  0.24572  1.0000
  C   C343      1.0  0.66708  0.89243  0.37867  1.0000
  H   H347      1.0  0.52353  0.69353  0.03630  1.0000
  C   C344      1.0  0.57024  0.76655  0.13012  1.0000
  H   H348      1.0  0.64674  0.73665  0.19856  1.0000
  C   C345      1.0  0.37918  0.82801  0.23043  1.0000
  H   H349      1.0  0.44166  0.49619  0.25380  1.0000
  H   H350      1.0  0.42639  0.68563  0.29179  1.0000
  C   C346      1.0  0.50600  0.85868  0.04132  1.0000
  C   C347      1.0  0.38353  0.49686  0.19799  1.0000
  H   H351      1.0  0.55367  0.76272  0.15258  1.0000
  C   C348      1.0  0.63298  0.73460  0.17330  1.0000
  N   N31       1.0  0.63316  0.49973  0.27104  1.0000
  H   H352      1.0  0.38766  0.74618  0.18918  1.0000
  C   C349      1.0  0.63629  0.71424  0.14783  1.0000
  H   H353      1.0  0.46392  0.50430  0.18867  1.0000
  C   C350      1.0  0.63723  0.84282  0.26395  1.0000
  H   H354      1.0  0.48726  0.72698  0.03542  1.0000
  C   C351      1.0  0.39561  0.50112  0.16077  1.0000
  H   H355      1.0  0.59319  0.48288  0.26075  1.0000
  H   H356      1.0  0.65566  0.80728  0.27931  1.0000
  N   N32       1.0  0.37805  0.75788  0.24751  1.0000
  S   S114      1.0  0.59156  0.45389  0.18221  1.0000
  H   H357      1.0  0.66678  0.68137  0.32499  1.0000
  H   H358      1.0  0.38248  0.50250  0.13479  1.0000
  Fe  Fe57      1.0  0.37619  0.67525  0.23959  1.0000
  C   C352      1.0  0.49252  0.87965  0.05745  1.0000
  S   S115      1.0  0.36063  0.58255  0.24670  1.0000
  C   C353      1.0  0.62661  0.52205  0.24742  1.0000
  H   H359      1.0  0.40617  0.65142  0.16136  1.0000
  C   C354      1.0  0.42809  0.64911  0.15324  1.0000
  H   H360      1.0  0.44491  0.60342  0.21599  1.0000
  C   C355      1.0  0.38631  0.76376  0.20673  1.0000
  C   C356      1.0  0.64529  0.44597  0.20623  1.0000
  C   C357      1.0  0.61966  0.45918  0.29597  1.0000
  H   H361      1.0  0.41739  0.74083  0.26032  1.0000
  H   H362      1.0  0.66463  0.90597  0.49622  1.0000
  C   C358      1.0  0.67345  0.92180  0.47861  1.0000
  H   H363      1.0  0.68711  0.47276  0.32010  1.0000
  H   H364      1.0  0.65206  0.88135  0.36205  1.0000
  H   H365      1.0  0.36088  0.49479  0.20036  1.0000
  H   H366      1.0  0.36572  0.48324  0.26767  1.0000
  C   C359      1.0  0.64626  0.45612  0.31238  1.0000
  C   C360      1.0  0.45080  0.81744  0.03633  1.0000
  C   C361      1.0  0.48633  0.90011  0.03273  1.0000
  H   H367      1.0  0.35701  0.74143  0.35502  1.0000
  Fe  Fe58      1.0  0.44993  0.91316  0.81840  1.0000
  S   S116      1.0  0.40625  0.89917  0.80283  1.0000
  Fe  Fe59      1.0  0.51273  0.92107  0.79763  1.0000
  H   H368      1.0  0.58326  0.45491  0.98987  1.0000
  H   H369      1.0  0.64160  0.86381  0.76316  1.0000
  C   C362      1.0  0.38037  0.91632  0.77668  1.0000
  H   H370      1.0  0.55247  0.85014  0.84376  1.0000
  C   C363      1.0  0.59860  0.91497  0.71979  1.0000
  C   C364      1.0  0.58124  0.92004  0.75253  1.0000
  S   S117      1.0  0.45625  0.92595  0.88088  1.0000
  H   H371      1.0  0.45656  0.84192  0.92928  1.0000
  C   C365      1.0  0.43002  0.87385  0.97718  1.0000
  C   C366      1.0  0.55823  0.86913  0.83287  1.0000
  C   C367      1.0  0.46567  0.81144  0.96881  1.0000
  C   C368      1.0  0.45456  0.83500  0.95937  1.0000
  C   C369      1.0  0.59348  0.92816  0.78773  1.0000
  C   C370      1.0  0.51262  0.85794  0.00080  1.0000
  H   H372      1.0  0.52270  0.84148  0.98860  1.0000
  Fe  Fe60      1.0  0.49620  0.90372  0.88020  1.0000
  S   S118      1.0  0.48785  0.88801  0.81984  1.0000
  S   S119      1.0  0.51147  0.87488  0.92449  1.0000
  H   H373      1.0  0.58990  0.85988  0.76923  1.0000
  H   H374      1.0  0.54797  0.87252  0.80390  1.0000
  S   S120      1.0  0.67727  0.92396  0.76413  1.0000
  C   C371      1.0  0.60403  0.87898  0.86158  1.0000
  H   H375      1.0  0.59349  0.88361  0.88917  1.0000
  C   C372      1.0  0.38628  0.93943  0.75877  1.0000
  S   S121      1.0  0.54455  0.91559  0.74803  1.0000
  C   C373      1.0  0.64035  0.92455  0.75796  1.0000
  C   C374      1.0  0.64689  0.87563  0.82344  1.0000
  C   C375      1.0  0.62799  0.91727  0.72241  1.0000
  H   H376      1.0  0.47599  0.80025  0.94629  1.0000
  H   H377      1.0  0.64525  0.88806  0.88395  1.0000
  H   H378      1.0  0.47235  0.78448  0.01560  1.0000
  C   C376      1.0  0.60203  0.86543  0.79481  1.0000
  H   H379      1.0  0.66942  0.87836  0.82038  1.0000
  C   C377      1.0  0.63124  0.86744  0.79124  1.0000
  H   H380      1.0  0.54950  0.88321  0.85380  1.0000
  C   C378      1.0  0.50555  0.87801  0.97587  1.0000
  C   C379      1.0  0.49274  0.89930  0.99204  1.0000
  H   H381      1.0  0.64114  0.91263  0.69727  1.0000
  H   H382      1.0  0.48746  0.91501  0.97319  1.0000
  H   H383      1.0  0.43086  0.88716  0.00243  1.0000
  C   C380      1.0  0.63327  0.88135  0.85894  1.0000
  N   N33       1.0  0.58881  0.87149  0.82953  1.0000
  H   H384      1.0  0.58931  0.90881  0.69236  1.0000
  C   C381      1.0  0.62293  0.93034  0.79042  1.0000
  H   H385      1.0  0.63231  0.93603  0.81802  1.0000
  S   S122      1.0  0.52314  0.93555  0.85794  1.0000
  H   H386      1.0  0.58036  0.93239  0.81305  1.0000
  N   N34       1.0  0.44221  0.84953  0.98791  1.0000
  H   H387      1.0  0.40785  0.87135  0.96802  1.0000
  C   C382      1.0  0.46373  0.80265  0.00759  1.0000
  H   H388      1.0  0.44202  0.88270  0.95249  1.0000
  C   C383      1.0  0.44008  0.84098  0.02599  1.0000
  Fe  Fe61      1.0  0.78793  0.43070  0.26997  1.0000
  C   C384      1.0  0.84285  0.38599  0.16029  1.0000
  S   S123      1.0  0.00737  0.38853  0.16152  1.0000
  C   C385      1.0  0.84155  0.41350  0.47234  1.0000
  Fe  Fe62      1.0  0.99748  0.40714  0.10373  1.0000
  Fe  Fe63      1.0  0.98121  0.41916  0.18898  1.0000
  H   H389      1.0  0.85022  0.40611  0.44501  1.0000
  C   C386      1.0  0.89513  0.41292  0.26449  1.0000
  Fe  Fe64      1.0  0.77184  0.41476  0.35368  1.0000
  S   S124      1.0  0.76928  0.39522  0.29481  1.0000
  S   S125      1.0  0.79097  0.39273  0.40410  1.0000
  N   N35       1.0  0.82535  0.43473  0.47209  1.0000
  H   H390      1.0  0.88182  0.36771  0.20949  1.0000
  Fe  Fe65      1.0  0.72721  0.41437  0.28981  1.0000
  H   H391      1.0  0.93245  0.36187  0.19576  1.0000
  H   H392      1.0  0.75075  0.42497  0.44561  1.0000
  S   S126      1.0  0.98171  0.38243  0.05434  1.0000
  H   H393      1.0  0.92092  0.39205  0.07927  1.0000
  H   H394      1.0  0.85181  0.41268  0.28435  1.0000
  C   C387      1.0  0.77655  0.39206  0.45229  1.0000
  C   C388      1.0  0.78605  0.37370  0.47880  1.0000
  H   H395      1.0  0.87020  0.39798  0.09416  1.0000
  H   H396      1.0  0.85812  0.38305  0.50740  1.0000
  C   C389      1.0  0.75829  0.41079  0.46584  1.0000
  H   H397      1.0  0.80011  0.35912  0.46847  1.0000
  C   C390      1.0  0.86633  0.41868  0.26149  1.0000
  C   C391      1.0  0.92978  0.37604  0.13624  1.0000
  C   C392      1.0  0.91415  0.42005  0.23458  1.0000
  H   H398      1.0  0.83566  0.40491  0.15077  1.0000
  C   C393      1.0  0.81330  0.44331  0.50628  1.0000
  C   C394      1.0  0.75070  0.41174  0.50611  1.0000
  H   H399      1.0  0.90266  0.40256  0.28983  1.0000
  H   H400      1.0  0.83784  0.38455  0.19238  1.0000
  H   H401      1.0  0.95195  0.37350  0.12992  1.0000
  H   H402      1.0  0.83076  0.37141  0.14436  1.0000
  S   S127      1.0  0.94970  0.41057  0.23784  1.0000
  N   N36       1.0  0.87300  0.38297  0.15248  1.0000
  C   C395      1.0  0.88371  0.38980  0.11640  1.0000
  C   C396      1.0  0.89008  0.37266  0.18057  1.0000
  C   C397      1.0  0.91226  0.38648  0.10775  1.0000
  C   C398      1.0  0.91873  0.36917  0.17293  1.0000
  H   H403      1.0  0.91853  0.43907  0.17878  1.0000
  C   C399      1.0  0.90419  0.43341  0.20194  1.0000
  C   C400      1.0  0.85638  0.43159  0.22841  1.0000
  H   H404      1.0  0.82970  0.43850  0.40921  1.0000
  S   S128      1.0  0.72859  0.43152  0.35042  1.0000
  C   C401      1.0  0.77817  0.37443  0.51885  1.0000
  C   C402      1.0  0.87543  0.43911  0.19887  1.0000
  H   H405      1.0  0.73727  0.42668  0.51672  1.0000
  S   S129      1.0  0.82015  0.43707  0.22128  1.0000
  S   S130      1.0  0.96899  0.43595  0.13089  1.0000
  C   C403      1.0  0.84603  0.40030  0.50754  1.0000
  S   S131      1.0  0.01864  0.44427  0.19815  1.0000
  S   S132      1.0  0.73455  0.00532  0.63744  1.0000
  Fe  Fe66      1.0  0.79323  0.11319  0.76106  1.0000
  S   S133      1.0  0.79163  0.13749  0.81497  1.0000
  S   S134      1.0  0.78411  0.07252  0.77318  1.0000
  Fe  Fe67      1.0  0.80478  0.15821  0.70759  1.0000
  S   S135      1.0  0.80318  0.18557  0.75749  1.0000
  S   S136      1.0  0.81350  0.17100  0.64549  1.0000
  Fe  Fe68      1.0  0.82938  0.15680  0.78880  1.0000
  S   S137      1.0  0.86744  0.16870  0.82392  1.0000
  Fe  Fe69      1.0  0.76577  0.16314  0.77737  1.0000
  C   C404      1.0  0.01020  0.01936  0.84467  1.0000
  S   S138      1.0  0.83291  0.13032  0.73757  1.0000
  S   S139      1.0  0.76533  0.13775  0.72481  1.0000
  C   C405      1.0  0.93564  0.09893  0.83035  1.0000
  S   S140      1.0  0.98521  0.15522  0.73899  1.0000
  H   H406      1.0  0.97798  0.20853  0.76147  1.0000
  Fe  Fe70      1.0  0.99861  0.35784  0.75899  1.0000
  S   S141      1.0  0.97142  0.37040  0.70800  1.0000
  S   S142      1.0  0.98429  0.35307  0.82183  1.0000
  Fe  Fe71      1.0  0.77031  0.36577  0.62290  1.0000
  S   S143      1.0  0.76470  0.36868  0.68890  1.0000
  S   S144      1.0  0.75416  0.39708  0.58388  1.0000
  Fe  Fe72      1.0  0.79742  0.31466  0.62898  1.0000
  S   S145      1.0  0.79333  0.31307  0.69459  1.0000
  S   S146      1.0  0.81941  0.28489  0.59384  1.0000
  Fe  Fe73      1.0  0.75008  0.32876  0.68523  1.0000
  C   C406      1.0  0.74825  0.25372  0.59076  1.0000
  Fe  Fe74      1.0  0.80844  0.35288  0.69215  1.0000
  S   S147      1.0  0.83970  0.36423  0.73870  1.0000
  S   S148      1.0  0.75278  0.32673  0.61908  1.0000
  S   S149      1.0  0.81540  0.35359  0.62667  1.0000
  C   C407      1.0  0.87604  0.36715  0.72884  1.0000
  H   H407      1.0  0.98429  0.09959  0.93231  1.0000
  H   H408      1.0  0.70238  0.06797  0.70581  1.0000
  C   C408      1.0  0.93470  0.36965  0.71628  1.0000
  C   C409      1.0  0.92363  0.37031  0.75459  1.0000
  C   C410      1.0  0.89447  0.36919  0.76081  1.0000
  H   H409      1.0  0.93745  0.37213  0.77954  1.0000
  H   H410      1.0  0.88616  0.36977  0.79063  1.0000
  H   H411      1.0  0.99376  0.35982  0.91496  1.0000
  C   C411      1.0  0.88139  0.21181  0.73080  1.0000
  H   H412      1.0  0.90289  0.95602  0.74967  1.0000
  H   H413      1.0  0.88493  0.95886  0.79610  1.0000
  C   C412      1.0  0.90035  0.16379  0.80116  1.0000
  C   C413      1.0  0.92514  0.16866  0.82203  1.0000
  C   C414      1.0  0.95150  0.16552  0.80364  1.0000
  C   C415      1.0  0.95304  0.15760  0.76427  1.0000
  C   C416      1.0  0.92833  0.15275  0.74359  1.0000
  C   C417      1.0  0.90213  0.15587  0.76193  1.0000
  H   H414      1.0  0.92393  0.17510  0.85231  1.0000
  H   H415      1.0  0.97049  0.16979  0.81959  1.0000
  H   H416      1.0  0.92940  0.14687  0.71301  1.0000
  H   H417      1.0  0.88338  0.15290  0.74510  1.0000
  C   C418      1.0  0.81766  0.20303  0.63408  1.0000
  C   C419      1.0  0.81327  0.22208  0.66200  1.0000
  C   C420      1.0  0.81390  0.24745  0.65027  1.0000
  C   C421      1.0  0.81965  0.25373  0.61082  1.0000
  C   C422      1.0  0.82518  0.23471  0.58350  1.0000
  C   C423      1.0  0.82391  0.20951  0.59498  1.0000
  H   H418      1.0  0.80827  0.21736  0.69216  1.0000
  H   H419      1.0  0.80966  0.26202  0.67160  1.0000
  C   C424      1.0  0.99175  0.08919  0.90587  1.0000
  H   H420      1.0  0.73835  0.21203  0.73355  1.0000
  C   C425      1.0  0.74549  0.02545  0.67533  1.0000
  C   C426      1.0  0.75849  0.04833  0.66593  1.0000
  C   C427      1.0  0.76966  0.06347  0.69595  1.0000
  C   C428      1.0  0.76783  0.05564  0.73533  1.0000
  C   C429      1.0  0.75379  0.03333  0.74480  1.0000
  C   C430      1.0  0.74243  0.01838  0.71490  1.0000
  H   H421      1.0  0.76076  0.05392  0.63532  1.0000
  H   H422      1.0  0.78056  0.08067  0.68847  1.0000
  H   H423      1.0  0.75200  0.02740  0.77532  1.0000
  H   H424      1.0  0.73149  0.00128  0.72249  1.0000
  C   C431      1.0  0.87173  0.30507  0.67887  1.0000
  C   C432      1.0  0.83141  0.97416  0.69595  1.0000
  C   C433      1.0  0.88178  0.30631  0.78840  1.0000
  H   H425      1.0  0.79587  0.99905  0.69895  1.0000
  C   C434      1.0  0.91100  0.30686  0.79122  1.0000
  C   C435      1.0  0.73517  0.24606  0.69932  1.0000
  C   C436      1.0  0.86930  0.30561  0.75109  1.0000
  C   C437      1.0  0.91418  0.30619  0.72004  1.0000
  N   N37       1.0  0.88548  0.30568  0.71753  1.0000
  H   H426      1.0  0.72265  0.40427  0.65730  1.0000
  H   H427      1.0  0.85505  0.31961  0.67756  1.0000
  H   H428      1.0  0.86206  0.28639  0.67366  1.0000
  C   C438      1.0  0.98750  0.37077  0.97587  1.0000
  N   N38       1.0  0.74538  0.24219  0.62994  1.0000
  S   S150      1.0  0.72506  0.17924  0.80027  1.0000
  C   C439      1.0  0.85643  0.96682  0.71407  1.0000
  S   S151      1.0  0.97482  0.28089  0.83029  1.0000
  H   H429      1.0  0.88661  0.30918  0.65428  1.0000
  H   H430      1.0  0.86885  0.30708  0.81487  1.0000
  H   H431      1.0  0.84656  0.30598  0.74911  1.0000
  H   H432      1.0  0.92709  0.30693  0.69357  1.0000
  H   H433      1.0  0.82977  0.23944  0.55301  1.0000
  H   H434      1.0  0.75144  0.18587  0.67520  1.0000
  H   H435      1.0  0.72960  0.25774  0.72445  1.0000
  Fe  Fe75      1.0  0.00164  0.31430  0.81570  1.0000
  C   C440      1.0  0.73786  0.25668  0.66164  1.0000
  H   H436      1.0  0.96753  0.12171  0.85677  1.0000
  Fe  Fe76      1.0  0.73174  0.96464  0.65551  1.0000
  C   C441      1.0  0.91627  0.36812  0.68411  1.0000
  C   C442      1.0  0.69651  0.40088  0.70962  1.0000
  C   C443      1.0  0.92857  0.20965  0.70450  1.0000
  C   C444      1.0  0.74699  0.20571  0.67170  1.0000
  H   H437      1.0  0.73412  0.27664  0.65806  1.0000
  H   H438      1.0  0.71304  0.11078  0.83792  1.0000
  C   C445      1.0  0.00039  0.37220  0.93841  1.0000
  C   C446      1.0  0.74936  0.21691  0.63443  1.0000
  S   S152      1.0  0.71468  0.31218  0.72189  1.0000
  C   C447      1.0  0.69814  0.10631  0.81482  1.0000
  H   H439      1.0  0.76228  0.24250  0.57120  1.0000
  C   C448      1.0  0.92733  0.30676  0.75689  1.0000
  C   C449      1.0  0.81521  0.99311  0.71296  1.0000
  H   H440      1.0  0.97942  0.05631  0.77525  1.0000
  H   H441      1.0  0.75810  0.27257  0.59293  1.0000
  S   S153      1.0  0.96467  0.00646  0.80032  1.0000
  H   H442      1.0  0.71696  0.16618  0.71820  1.0000
  H   H443      1.0  0.01218  0.98378  0.75791  1.0000
  H   H444      1.0  0.92103  0.30784  0.81992  1.0000
  C   C450      1.0  0.01202  0.21553  0.85711  1.0000
  H   H445      1.0  0.72733  0.25556  0.57676  1.0000
  H   H446      1.0  0.92442  0.03745  0.85197  1.0000
  H   H447      1.0  0.85913  0.20780  0.72829  1.0000
  H   H448      1.0  0.80662  0.43669  0.56872  1.0000
  C   C451      1.0  0.69518  0.17016  0.77361  1.0000
  H   H449      1.0  0.82740  0.19493  0.57325  1.0000
  H   H450      1.0  0.95003  0.30781  0.75892  1.0000
  H   H451      1.0  0.00216  0.07154  0.91549  1.0000
  N   N39       1.0  0.86479  0.97765  0.74870  1.0000
  C   C452      1.0  0.82400  0.00429  0.74804  1.0000
  H   H452      1.0  0.90427  0.98525  0.77566  1.0000
  H   H453      1.0  0.97089  0.35728  0.98106  1.0000
  H   H454      1.0  0.94280  0.20367  0.68118  1.0000
  C   C453      1.0  0.84888  0.99610  0.76580  1.0000
  C   C454      1.0  0.89045  0.96909  0.76845  1.0000
  H   H455      1.0  0.81154  0.01911  0.76147  1.0000
  H   H456      1.0  0.90608  0.07164  0.80896  1.0000
  H   H457      1.0  0.75550  0.20535  0.60945  1.0000
  H   H458      1.0  0.82447  0.96500  0.66907  1.0000
  H   H459      1.0  0.85535  0.00460  0.79336  1.0000
  C   C455      1.0  0.92331  0.07522  0.82902  1.0000
  C   C456      1.0  0.95591  0.06104  0.87862  1.0000
  C   C457      1.0  0.99403  0.05049  0.79787  1.0000
  N   N40       1.0  0.93881  0.22018  0.73837  1.0000
  C   C458      1.0  0.99208  0.23312  0.84497  1.0000
  N   N41       1.0  0.96822  0.08425  0.87922  1.0000
  C   C459      1.0  0.99610  0.25854  0.85315  1.0000
  H   H460      1.0  0.00959  0.19607  0.84906  1.0000
  C   C460      1.0  0.73994  0.22043  0.70436  1.0000
  C   C461      1.0  0.95812  0.10319  0.85592  1.0000
  H   H461      1.0  0.72018  0.09772  0.70154  1.0000
  H   H462      1.0  0.87815  0.22562  0.79045  1.0000
  C   C462      1.0  0.93340  0.05614  0.85339  1.0000
  H   H463      1.0  0.97359  0.24216  0.75764  1.0000
  C   C463      1.0  0.01538  0.06685  0.80996  1.0000
  H   H464      1.0  0.97421  0.22709  0.82805  1.0000
  H   H465      1.0  0.00827  0.10038  0.89062  1.0000
  S   S154      1.0  0.01336  0.31828  0.75209  1.0000
  H   H466      1.0  0.89160  0.19683  0.67344  1.0000
  C   C464      1.0  0.99156  0.02667  0.81509  1.0000
  C   C465      1.0  0.70202  0.40733  0.67021  1.0000
  H   H467      1.0  0.96399  0.04590  0.89677  1.0000
  C   C466      1.0  0.89969  0.20561  0.70000  1.0000
  C   C467      1.0  0.69714  0.16459  0.73337  1.0000
  H   H468      1.0  0.92789  0.11387  0.81154  1.0000
  C   C468      1.0  0.89207  0.22201  0.76556  1.0000
  H   H469      1.0  0.71313  0.39257  0.72712  1.0000
  C   C469      1.0  0.88700  0.36675  0.69035  1.0000
  C   C470      1.0  0.99634  0.38640  0.00673  1.0000
  H   H470      1.0  0.92920  0.23359  0.79630  1.0000
  C   C471      1.0  0.96914  0.22389  0.74309  1.0000
  H   H471      1.0  0.87297  0.36555  0.66545  1.0000
  H   H472      1.0  0.92465  0.36787  0.65434  1.0000
  C   C472      1.0  0.92100  0.22614  0.76885  1.0000
  H   H473      1.0  0.98040  0.22369  0.71425  1.0000
  Fe  Fe77      1.0  0.97449  0.96654  0.81671  1.0000
  H   H474      1.0  0.00781  0.00140  0.85907  1.0000
  C   C473      1.0  0.70775  0.10019  0.77691  1.0000
  H   H475      1.0  0.73020  0.09942  0.77140  1.0000
  H   H476      1.0  0.78610  0.36044  0.53910  1.0000
  S   S155      1.0  0.74589  0.95013  0.71435  1.0000
  H   H477      1.0  0.02161  0.40149  0.68580  1.0000
  H   H478      1.0  0.01719  0.08523  0.79663  1.0000
  C   C474      1.0  0.01770  0.40387  0.99969  1.0000
  S   S156      1.0  0.95023  0.94588  0.86277  1.0000
  C   C475      1.0  0.02238  0.38914  0.93180  1.0000
  C   C476      1.0  0.01863  0.26609  0.87664  1.0000
  C   C477      1.0  0.69960  0.08865  0.70782  1.0000
  C   C478      1.0  0.81720  0.43049  0.54195  1.0000
  S   S157      1.0  0.01600  0.95111  0.83600  1.0000
  H   H479      1.0  0.02110  0.28559  0.88435  1.0000
  H   H480      1.0  0.86893  0.95223  0.70036  1.0000
  H   H481      1.0  0.83612  0.39835  0.56976  1.0000
  C   C479      1.0  0.76100  0.39379  0.53282  1.0000
  C   C480      1.0  0.83369  0.40887  0.54251  1.0000
  Fe  Fe78      1.0  0.96420  0.83257  0.20163  1.0000
  S   S158      1.0  0.95490  0.80496  0.15384  1.0000
  S   S159      1.0  0.93261  0.84658  0.24719  1.0000
  H   H482      1.0  0.88669  0.85422  0.30154  1.0000
  C   C481      1.0  0.74263  0.89919  0.52124  1.0000
  C   C482      1.0  0.76475  0.82683  0.52073  1.0000
  Fe  Fe79      1.0  0.75080  0.84889  0.36445  1.0000
  S   S160      1.0  0.74657  0.86545  0.30355  1.0000
  S   S161      1.0  0.76675  0.87394  0.41351  1.0000
  Fe  Fe80      1.0  0.73398  0.79713  0.33647  1.0000
  S   S162      1.0  0.72779  0.80987  0.27409  1.0000
  S   S163      1.0  0.72711  0.75590  0.34703  1.0000
  Fe  Fe81      1.0  0.76862  0.83057  0.28239  1.0000
  S   S164      1.0  0.80113  0.82521  0.23350  1.0000
  Fe  Fe82      1.0  0.70634  0.84307  0.30110  1.0000
  C   C483      1.0  0.79178  0.71767  0.21037  1.0000
  S   S165      1.0  0.77596  0.81570  0.34331  1.0000
  S   S166      1.0  0.70931  0.82881  0.36342  1.0000
  Fe  Fe83      1.0  0.84029  0.66447  0.28908  1.0000
  S   S167      1.0  0.84008  0.66214  0.22296  1.0000
  S   S168      1.0  0.84316  0.70203  0.31841  1.0000
  Fe  Fe84      1.0  0.84320  0.60804  0.29955  1.0000
  S   S169      1.0  0.84418  0.60143  0.23451  1.0000
  S   S170      1.0  0.84458  0.57365  0.33783  1.0000
  Fe  Fe85      1.0  0.87420  0.63354  0.23174  1.0000
  S   S171      1.0  0.91295  0.63348  0.19318  1.0000
  Fe  Fe86      1.0  0.80999  0.63022  0.23289  1.0000
  H   H483      1.0  0.79325  0.48169  0.25461  1.0000
  S   S172      1.0  0.87630  0.63801  0.29737  1.0000
  S   S173      1.0  0.80715  0.63504  0.29850  1.0000
  C   C484      1.0  0.80602  0.85001  0.50091  1.0000
  C   C485      1.0  0.98079  0.56772  0.17628  1.0000
  H   H484      1.0  0.83634  0.48804  0.29041  1.0000
  H   H485      1.0  0.83533  0.84615  0.29722  1.0000
  C   C486      1.0  0.76452  0.72719  0.21279  1.0000
  H   H486      1.0  0.71025  0.60866  0.27972  1.0000
  H   H487      1.0  0.83490  0.72313  0.22681  1.0000
  C   C487      1.0  0.78565  0.83196  0.49278  1.0000
  S   S174      1.0  0.73739  0.50437  0.32360  1.0000
  C   C488      1.0  0.78209  0.76219  0.25035  1.0000
  H   H488      1.0  0.74843  0.81326  0.51428  1.0000
  H   H489      1.0  0.84706  0.81704  0.18009  1.0000
  H   H490      1.0  0.82483  0.78124  0.28616  1.0000
  C   C489      1.0  0.81380  0.73078  0.22823  1.0000
  H   H491      1.0  0.97658  0.84620  0.30837  1.0000
  C   C490      1.0  0.94439  0.62780  0.21875  1.0000
  C   C491      1.0  0.97017  0.63415  0.20120  1.0000
  C   C492      1.0  0.99529  0.63119  0.22224  1.0000
  C   C493      1.0  0.99475  0.62162  0.26076  1.0000
  C   C494      1.0  0.96904  0.61476  0.27791  1.0000
  C   C495      1.0  0.94393  0.61777  0.25693  1.0000
  H   H492      1.0  0.97072  0.64175  0.17153  1.0000
  C   C496      1.0  0.99115  0.52781  0.20928  1.0000
  H   H493      1.0  0.96852  0.60706  0.30752  1.0000
  H   H494      1.0  0.92431  0.61205  0.27028  1.0000
  C   C497      1.0  0.81423  0.55506  0.33488  1.0000
  C   C498      1.0  0.79046  0.56347  0.31463  1.0000
  C   C499      1.0  0.76655  0.54812  0.31219  1.0000
  C   C500      1.0  0.76662  0.52413  0.32919  1.0000
  C   C501      1.0  0.79035  0.51580  0.34950  1.0000
  C   C502      1.0  0.81404  0.53129  0.35253  1.0000
  H   H495      1.0  0.79058  0.58167  0.30056  1.0000
  H   H496      1.0  0.74831  0.55455  0.29620  1.0000
  H   H497      1.0  0.79024  0.49763  0.36364  1.0000
  H   H498      1.0  0.83233  0.52483  0.36844  1.0000
  C   C503      1.0  0.74742  0.87825  0.45751  1.0000
  C   C504      1.0  0.75686  0.89590  0.48513  1.0000
  S   S175      1.0  0.77145  0.61917  0.19911  1.0000
  S   S176      1.0  0.97269  0.83247  0.05172  1.0000
  C   C505      1.0  0.72331  0.86419  0.46588  1.0000
  H   H499      1.0  0.77542  0.90695  0.47868  1.0000
  H   H500      1.0  0.84464  0.77583  0.24166  1.0000
  H   H501      1.0  0.71584  0.85057  0.44479  1.0000
  C   C506      1.0  0.75904  0.74000  0.34115  1.0000
  C   C507      1.0  0.76017  0.71791  0.31893  1.0000
  C   C508      1.0  0.78587  0.70561  0.31282  1.0000
  C   C509      1.0  0.81050  0.71563  0.32863  1.0000
  C   C510      1.0  0.80933  0.73759  0.35114  1.0000
  C   C511      1.0  0.78361  0.74971  0.35749  1.0000
  H   H502      1.0  0.74131  0.71079  0.30543  1.0000
  H   H503      1.0  0.78676  0.68887  0.29491  1.0000
  H   H504      1.0  0.82835  0.74530  0.36358  1.0000
  H   H505      1.0  0.78275  0.76641  0.37549  1.0000
  H   H506      1.0  0.97425  0.55639  0.15035  1.0000
  H   H507      1.0  0.79742  0.44967  0.42951  1.0000
  H   H508      1.0  0.74650  0.68052  0.38398  1.0000
  C   C512      1.0  0.73712  0.64846  0.34724  1.0000
  C   C513      1.0  0.71517  0.62849  0.19481  1.0000
  H   H509      1.0  0.72068  0.93137  0.43761  1.0000
  C   C514      1.0  0.89618  0.83991  0.24342  1.0000
  C   C515      1.0  0.87814  0.84587  0.27512  1.0000
  C   C516      1.0  0.84900  0.84133  0.27274  1.0000
  C   C517      1.0  0.83762  0.83108  0.23836  1.0000
  H   H510      1.0  0.75641  0.54530  0.19679  1.0000
  S   S177      1.0  0.99094  0.74419  0.18960  1.0000
  N   N42       1.0  0.71823  0.63755  0.32228  1.0000
  C   C518      1.0  0.72539  0.61363  0.30334  1.0000
  H   H511      1.0  0.82185  0.85459  0.47882  1.0000
  H   H512      1.0  0.79577  0.70017  0.19499  1.0000
  H   H513      1.0  0.89838  0.82468  0.18466  1.0000
  H   H514      1.0  0.84591  0.75353  0.28232  1.0000
  H   H515      1.0  0.74641  0.61487  0.28890  1.0000
  S   S178      1.0  0.00919  0.49966  0.12275  1.0000
  H   H516      1.0  0.80130  0.56821  0.20344  1.0000
  C   C519      1.0  0.00688  0.51311  0.23535  1.0000
  C   C520      1.0  0.01886  0.56349  0.22430  1.0000
  N   N43       1.0  0.99756  0.55258  0.20358  1.0000
  Fe  Fe87      1.0  0.99352  0.78508  0.17452  1.0000
  C   C521      1.0  0.70535  0.92063  0.42117  1.0000
  Fe  Fe88      1.0  0.75009  0.46378  0.31994  1.0000
  H   H517      1.0  0.69068  0.85625  0.50864  1.0000
  H   H518      1.0  0.71933  0.69163  0.25084  1.0000
  H   H519      1.0  0.00725  0.91228  0.22793  1.0000
  H   H520      1.0  0.72569  0.59830  0.32563  1.0000
  H   H521      1.0  0.96187  0.57510  0.19180  1.0000
  H   H522      1.0  0.99307  0.58391  0.16463  1.0000
  C   C522      1.0  0.83226  0.76647  0.26535  1.0000
  C   C523      1.0  0.82036  0.44836  0.43509  1.0000
  H   H523      1.0  0.00888  0.69589  0.21502  1.0000
  S   S179      1.0  0.00101  0.81097  0.22534  1.0000
  H   H524      1.0  0.69697  0.89407  0.33078  1.0000
  C   C524      1.0  0.82211  0.53754  0.23362  1.0000
  H   H525      1.0  0.71391  0.61085  0.17911  1.0000
  H   H526      1.0  0.84165  0.54771  0.23702  1.0000
  C   C525      1.0  0.84350  0.50167  0.26757  1.0000
  C   C526      1.0  0.75957  0.74955  0.23302  1.0000
  C   C527      1.0  0.74125  0.63729  0.20780  1.0000
  C   C528      1.0  0.79504  0.50070  0.24366  1.0000
  H   H527      1.0  0.99982  0.88030  0.06911  1.0000
  H   H528      1.0  0.77809  0.77948  0.26611  1.0000
  C   C529      1.0  0.77192  0.51181  0.22524  1.0000
  H   H529      1.0  0.98048  0.87978  0.25846  1.0000
  Fe  Fe89      1.0  0.00828  0.45870  0.13760  1.0000
  C   C530      1.0  0.74276  0.66004  0.22822  1.0000
  N   N44       1.0  0.92923  0.70939  0.21398  1.0000
  C   C531      1.0  0.92425  0.73470  0.21513  1.0000
  C   C532      1.0  0.92278  0.69462  0.24585  1.0000
  C   C533      1.0  0.91264  0.74582  0.24892  1.0000
  C   C534      1.0  0.91093  0.70505  0.27995  1.0000
  C   C535      1.0  0.90585  0.73081  0.28145  1.0000
  C   C536      1.0  0.94148  0.69775  0.17865  1.0000
  H   H530      1.0  0.92986  0.74653  0.19015  1.0000
  H   H531      1.0  0.92688  0.67463  0.24507  1.0000
  H   H532      1.0  0.90930  0.76598  0.24991  1.0000
  H   H533      1.0  0.90562  0.69319  0.30504  1.0000
  H   H534      1.0  0.89669  0.73900  0.30789  1.0000
  H   H535      1.0  0.92669  0.68382  0.16607  1.0000
  H   H536      1.0  0.94672  0.71180  0.15543  1.0000
  H   H537      1.0  0.96136  0.68809  0.18644  1.0000
  C   C537      1.0  0.73114  0.67153  0.36510  1.0000
  C   C538      1.0  0.70914  0.86740  0.50209  1.0000
  N   N45       1.0  0.80874  0.75273  0.24793  1.0000
  H   H538      1.0  0.97435  0.51908  0.19270  1.0000
  H   H539      1.0  0.75234  0.50157  0.22267  1.0000
  C   C539      1.0  0.92688  0.89289  0.03544  1.0000
  C   C540      1.0  0.79947  0.54918  0.21470  1.0000
  H   H540      1.0  0.73843  0.75699  0.23572  1.0000
  C   C541      1.0  0.77419  0.53627  0.21082  1.0000
  Fe  Fe90      1.0  0.98482  0.82764  0.11613  1.0000
  C   C542      1.0  0.88483  0.82918  0.20938  1.0000
  C   C543      1.0  0.71823  0.67407  0.23503  1.0000
  H   H541      1.0  0.73196  0.91835  0.36927  1.0000
  H   H542      1.0  0.75714  0.63949  0.35306  1.0000
  H   H543      1.0  0.85682  0.51575  0.28290  1.0000
  H   H544      1.0  0.74725  0.71719  0.19922  1.0000
  C   C544      1.0  0.85569  0.82493  0.20683  1.0000
  H   H545      1.0  0.76281  0.66681  0.23858  1.0000
  C   C545      1.0  0.99704  0.85411  0.30127  1.0000
  N   N46       1.0  0.81951  0.51374  0.24835  1.0000
  H   H546      1.0  0.85629  0.49142  0.24525  1.0000
  S   S180      1.0  0.99135  0.85716  0.16271  1.0000
  H   H547      1.0  0.00211  0.49334  0.23905  1.0000
  H   H548      1.0  0.01499  0.63659  0.20877  1.0000
  H   H549      1.0  0.70136  0.70195  0.36940  1.0000
  C   C546      1.0  0.71181  0.91347  0.38242  1.0000
  C   C547      1.0  0.02282  0.70200  0.19153  1.0000
  C   C548      1.0  0.70572  0.68351  0.35710  1.0000
  C   C549      1.0  0.99937  0.87319  0.27299  1.0000
  H   H550      1.0  0.78556  0.82259  0.46431  1.0000
  H   H551      1.0  0.82946  0.46751  0.43663  1.0000
  C   C550      1.0  0.01846  0.72508  0.17284  1.0000
  S   S181      1.0  0.79368  0.44886  0.32888  1.0000
  H   H552      1.0  0.93395  0.87749  0.05530  1.0000
  S   S182      1.0  0.74547  0.44786  0.25930  1.0000
  H   H553      1.0  0.90715  0.90100  0.04747  1.0000
  H   H554      1.0  0.94370  0.90736  0.03580  1.0000
  C   C551      1.0  0.99680  0.87890  0.03755  1.0000
  S   S183      1.0  0.02287  0.80504  0.13307  1.0000
  C   C552      1.0  0.69211  0.66517  0.22225  1.0000
  H   H555      1.0  0.79985  0.45973  0.50587  1.0000
  C   C553      1.0  0.69240  0.89950  0.36102  1.0000
  H   H556      1.0  0.86789  0.44909  0.17316  1.0000
  C   C554      1.0  0.69283  0.64874  0.31537  1.0000
  C   C555      1.0  0.69059  0.64226  0.20238  1.0000
  H   H557      1.0  0.01979  0.82949  0.34023  1.0000
  C   C556      1.0  0.02125  0.84473  0.31903  1.0000
  H   H558      1.0  0.69230  0.92847  0.49475  1.0000
  Fe  Fe91      1.0  0.94566  0.91565  0.81725  1.0000
  S   S184      1.0  0.90077  0.90113  0.81945  1.0000
  C   C557      1.0  0.78293  0.87205  0.60102  1.0000
  Fe  Fe92      1.0  0.71736  0.91238  0.62473  1.0000
  S   S185      1.0  0.72967  0.89394  0.68192  1.0000
  H   H559      1.0  0.90745  0.89776  0.73402  1.0000
  C   C558      1.0  0.99775  0.89838  0.97207  1.0000
  H   H560      1.0  0.98434  0.87475  0.92429  1.0000
  Fe  Fe93      1.0  0.76739  0.91956  0.68001  1.0000
  H   H561      1.0  0.90481  0.83073  0.94610  1.0000
  Fe  Fe94      1.0  0.70669  0.92619  0.71084  1.0000
  H   H562      1.0  0.92089  0.90464  0.90077  1.0000
  H   H563      1.0  0.93064  0.91935  0.96860  1.0000
  H   H564      1.0  0.91402  0.84612  0.01377  1.0000
  C   C559      1.0  0.91501  0.85917  0.98912  1.0000
  C   C560      1.0  0.92431  0.90001  0.96399  1.0000
  C   C561      1.0  0.87688  0.90436  0.77989  1.0000
  C   C562      1.0  0.88556  0.90142  0.74066  1.0000
  H   H565      1.0  0.79406  0.89035  0.59873  1.0000
  C   C563      1.0  0.83709  0.90638  0.71822  1.0000
  C   C564      1.0  0.82851  0.91008  0.75735  1.0000
  C   C565      1.0  0.84828  0.90866  0.78810  1.0000
  H   H566      1.0  0.74741  0.83673  0.57737  1.0000
  H   H567      1.0  0.97377  0.83826  0.96764  1.0000
  H   H568      1.0  0.80656  0.91346  0.76400  1.0000
  H   H569      1.0  0.84135  0.91076  0.81842  1.0000
  C   C566      1.0  0.98577  0.85690  0.02141  1.0000
  C   C567      1.0  0.91911  0.89181  0.92550  1.0000
  S   S186      1.0  0.00232  0.92566  0.94301  1.0000
  C   C568      1.0  0.76428  0.84017  0.55631  1.0000
  S   S187      1.0  0.70073  0.88789  0.57524  1.0000
  C   C569      1.0  0.98794  0.87598  0.95574  1.0000
  S   S188      1.0  0.81326  0.90740  0.67832  1.0000
  H   H570      1.0  0.79277  0.86099  0.62512  1.0000
  C   C570      1.0  0.80508  0.86285  0.53694  1.0000
  Fe  Fe95      1.0  0.00789  0.92082  0.79185  1.0000
  S   S189      1.0  0.96740  0.93787  0.76981  1.0000
  C   C571      1.0  0.00271  0.89958  0.01291  1.0000
  C   C572      1.0  0.91193  0.86683  0.91893  1.0000
  H   H571      1.0  0.87250  0.89899  0.67988  1.0000
  C   C573      1.0  0.90991  0.85032  0.95090  1.0000
  Fe  Fe96      1.0  0.99083  0.92712  0.87817  1.0000
  H   H572      1.0  0.76082  0.87636  0.60928  1.0000
  S   S190      1.0  0.75604  0.93603  0.62102  1.0000
  C   C574      1.0  0.86567  0.90196  0.71007  1.0000
  H   H573      1.0  0.90816  0.86036  0.88899  1.0000
  N   N47       1.0  0.92232  0.88371  0.99518  1.0000
  C   C575      1.0  0.98202  0.85533  0.98036  1.0000
  S   S191      1.0  0.98528  0.89526  0.83541  1.0000
  N   N48       1.0  0.78408  0.85814  0.56375  1.0000
  H   H574      1.0  0.82077  0.87709  0.54285  1.0000
  H   H575      1.0  0.75011  0.91283  0.54227  1.0000
  S   S192      1.0  0.69156  0.94264  0.65380  1.0000
  H   H576      1.0  0.01056  0.91680  0.02567  1.0000
  C   C576      1.0  0.71889  0.88475  0.53001  1.0000
