data_image0
_chemical_formula_structural       CFeSFeS2FeHFe2SCFeCHFeSCFeSHS2C6H3SHSHC2HCNSC2H3NHSCH4CH3C2H2C4SHC2H3CHFeS2H2CHCH2CHFeS2FeS2FeSFeS3FeS2FeS2FeSFeS3FeS2FeS2FeSFeS3FeS2FeS2FeSFeS3CSFeSFeS2FeS2FeSFeS2FeS2C3H2C6H4C6H4C6H9CNCSHC6H4C6H4C6H4C7H3CHC2SHC10H4C6H3C6H4CH2C6H5CNHSHC6H4SNC6H8NC6H8CHCHCH2CHC3HSC3HCHC2H4C2HC2H3CNCHFeCH2CHCH2CNH2C2H3NC6H7C2H3S3HSHC2SFeH2SCNCSH2NFeHCHCNSCNSHSCH2CHCHCFeC4H2NCH5CH3CH3C2H2C2H3C2HNCH2C3H2C3SC2H4C2NC2H2FeC4HCH3CHC2H2CNC2HCH3NHCH5FeH2CSC2H2C3SFeCS2H2FeHC2SCH3CHCHCFeS2CFeSCHFeHC2HCHSHC3FeCSH3NSH2CHCSHCHSHCHS2Fe2SCHCH2C2SFeH3CHCHCHFeS2FeS2FeSFeS3FeS2FeS2FeSFeS3HSHSH2FeSHCHCHSC2S2HCHFeS2FeS2FeSFeS3FeS2FeS2FeSFeS3FeS2FeS2FeSFeCS2FeSFeS2FeSFeS2C8H4C2H3C6H4C6H4C6H4CH2C3HC7H6C7H5C2NC2H2C8H4C2NCNSHCH2C4HCH2CFeCHCHC6H4C6H4C4SNH2SHC2HC4H3NHC2HC2H2FeHSCHSNCH3NC6H8NC2H4NCHCH5CHNC5H5NC6H8CNC6H8C2FeH3CH2NC2H3CSC4H4C3HCSH2SH2C4H3C2H2SHC2SC2HC2HC2SCH3NC2HCHSH3SH5Fe2HCH3C2HSHSCFeCFeH2C2SH2CFeC2FeSC2H2NCFeCH2C2HC3HCH3C2HCH2C2H2C2HC2HNH2C2H5CH5C2H5CH2CNCHNC4SHC3H3SNHCHCHC4H2CSH2NHC3FeS2FeS2FeSFeS3C2FeSFeS2FeSFeS3FeS2FeS2FeSFeS3CFeS2FeS2FeSFeS3FeS2FeS2FeCFeS3FeS2FeSCFeSFeS3HC2HSHNHC9H3C4H2C6H4CH2C2H2CHC7H4C6H5C4H2C7H4NCHCH2C2HCHC5H3C6H4C6H4CH4CH5NHC6H2CN2C6H3CH3NHCH2CH3CHC3HSCH2C3H2CH2CHCHC3HCH2NC6H8NC2H3C2H8C2HC2H4CH4C3HC2H5CHC2HCHCHCH3CN2C6H9SHCHCHC4HCH2NHNH3CH2CHC3HC2HSC3H3CHSCHCH2CH2C2H2CH3CHCHC2SCH2C2H2FeCNCH2CFeC2FeS2FeS2FeSFeS2FeS2FeS2FeSFeS3FeS2FeS2FeSFeS3FeS2FeS2FeSFeS3FeS2FeS2FeSFeS3FeHS5FeCSH2FeC4H4CN2HSFeSH2C2FeC2HCHC6H4C6H4C6H2SHC6H4C6H4C6H4C6H4C6H4C6H6CHC3H4C8H3CHC3H5C6H4NC6H8NC6H8NC6H8C4HC2NFeSFeSC2Fe2HSCS2C2H3SH2CH2S2C4HCH2SC2SCHNCHCHSCHNCHCFeCH3C4H3CH2C2H2NC3H3CH2SC2H2CHCH2SC3HNH4SHCHCHC2NH2SHSCNHSNHC5HSHSHFe2CH5CH5FeC3HC4HC2HC4HNHC3H3SFeH3C2HNCHCH3S2FeC2HCHCH2CH2C4NSH2CH4C2H4CH2CHCHFeCH3SCH2SCH3SFeCH2CFeH2S2H2CH2FeS2FeS2FeSFeS3CFeS2FeS2FeSFeS4H2C3SHC4HS2CH2FeS2FeS2FeSFeS3FeS2FeS2FeSFeS3FeS2FeHFe2SFeS3FeS2FeS2FeS2C6H5FeC6H4C6H4C6H5NH2SC6H4FeH3FeHCH2C6H5C2H2C6H4C6H4C6H2C7H4C6H4C6H6C5H3C6SHNC5H6C4H2C2HNH4CHNH2CHCH2NC2H2CFeSHCH2CFeHNC6H15SC2NC2SNCHC3H3CFeNCHC2HC2H4C2SHCNC6H8NC6H7CH3C4SC2HC3HC2H2CNC2HCHSHSH2CH2C4HCHC2H2C3FeCHCH5NHSHNCHC2H2CH2NHC2HSHS3H2C3HCSNFeHCHSH2SHFeH2NH2CHFeHNH2C2H2CH2SHNH3CHCH2CSHFeC3H2CH2S2NHFeSH2FeS2CH2FeSCH2SCFeS2FeS2FeSFeS3FeS2FeS2FeSFeS4CFeCS2CHS2H2SHCSHCH5C3HCH2C5HNC2SC6H4C6H4C6H4C6H4C6H4CH3SH4C7H7FeHCHC5H3FeC6H5CHSHFeSH4CHNHSCHC7HCHCHCH3SFeCH2NCHCFeHC3HC3H2CHNFeCSC3H6C5NHNH3CH2SHCSHC2NHNHCHCHFeHCHCH4CHC3HFeHSH2C2NH2CFeS2CHCFeSFe2SH2S3CH3SH3C4HNCH3FeCHC3HC3H4C4HCH3C3NC2HCH2CSHSHCHFeH3CHCHSC2HFeH2CSHC2S2CNSCH2C4FeNHCNHCHC2H2CSH2CHC2H2C3HCHCHCSH3CH2CS2C2HCNFeS2FeS2FeSFeHS2H3SCNFeSCFeS2HFeS3FeS2FeS2FeSFeS3FeS2FeS2FeSFeS3HCHFeS2FeS2FeSFeS3FeS2FeS2FeSFeS3C6H5C4H5C5H3C6H7C4HC7H4C6H4C3H2C6H7N2HC2HC7H4C6H4C6H7C3H4C2NC8H4NC5H6CHC3HCHC7HCHC3HN2HC2H2C3H3CHC3H2NCHC2HCHCSC3H2CH2C2HC2H2CHC2H4C2HCNCHCH2C2HCH2C5NC2H5CHC4H2C3H7C3H3SCH5CHCFeHCH2NHNHCHC2H3CNCHCHSCHC2HCH9NC3HC4H2CH2CS2C2H3C3H3CNH7CHCHCH11CHS3FeSFeSFeH2C2H2CHCHC3HSC4H5N2HCHCHSHCSHSHFeHCSCHFeC2S2FeHCH3CHC2S2HC4H3C3FeCFeH
_chemical_formula_sum              "C1440 Fe240 S480 H1440 N120"
_cell_length_a       107.981
_cell_length_b       108.394
_cell_length_c       38.0753
_cell_angle_alpha    78.9111
_cell_angle_beta     78.9653
_cell_angle_gamma    102.231

_space_group_name_H-M_alt    "P 1"
_space_group_IT_number       1

loop_
  _space_group_symop_operation_xyz
  'x, y, z'

loop_
  _atom_site_type_symbol
  _atom_site_label
  _atom_site_symmetry_multiplicity
  _atom_site_fract_x
  _atom_site_fract_y
  _atom_site_fract_z
  _atom_site_occupancy
  C   C1        1.0  0.07417  0.49314  0.13010  1.0000
  Fe  Fe1       1.0  0.01352  0.48428  0.75182  1.0000
  S   S1        1.0  0.01419  0.47646  0.70129  1.0000
  Fe  Fe2       1.0  0.01757  0.46053  0.79902  1.0000
  S   S2        1.0  0.01879  0.45035  0.75236  1.0000
  S   S3        1.0  0.01776  0.45116  0.85784  1.0000
  Fe  Fe3       1.0  0.03136  0.46990  0.71678  1.0000
  H   H1        1.0  0.03713  0.43486  0.84772  1.0000
  Fe  Fe4       1.0  0.00159  0.45762  0.73977  1.0000
  Fe  Fe5       1.0  0.02305  0.49287  0.09835  1.0000
  S   S4        1.0  0.03156  0.47918  0.76440  1.0000
  C   C2        1.0  0.06425  0.46526  0.74863  1.0000
  Fe  Fe6       1.0  0.04616  0.48102  0.09445  1.0000
  C   C3        1.0  0.05521  0.45322  0.76445  1.0000
  H   H2        1.0  0.02376  0.49504  0.80629  1.0000
  Fe  Fe7       1.0  0.01781  0.46372  0.11811  1.0000
  S   S5        1.0  0.01063  0.47740  0.07935  1.0000
  C   C4        1.0  0.00713  0.49650  0.89921  1.0000
  Fe  Fe8       1.0  0.02914  0.47875  0.03751  1.0000
  S   S6        1.0  0.03178  0.48364  0.97478  1.0000
  H   H3        1.0  0.03200  0.44557  0.15424  1.0000
  S   S7        1.0  0.03578  0.46403  0.07533  1.0000
  S   S8        1.0  0.02893  0.47928  0.14004  1.0000
  C   C5        1.0  0.02140  0.46032  0.89029  1.0000
  C   C6        1.0  0.02793  0.47355  0.87905  1.0000
  C   C7        1.0  0.03126  0.48039  0.90527  1.0000
  C   C8        1.0  0.02786  0.47421  0.94313  1.0000
  C   C9        1.0  0.02133  0.46098  0.95439  1.0000
  C   C10       1.0  0.01823  0.45406  0.92802  1.0000
  H   H4        1.0  0.03061  0.47846  0.85011  1.0000
  H   H5        1.0  0.06115  0.47797  0.82383  1.0000
  H   H6        1.0  0.01868  0.45607  0.98336  1.0000
  S   S9        1.0  0.99959  0.46631  0.78924  1.0000
  H   H7        1.0  0.07019  0.46019  0.23671  1.0000
  S   S10       1.0  0.05006  0.47233  0.67348  1.0000
  H   H8        1.0  0.03049  0.43695  0.80801  1.0000
  C   C11       1.0  0.04497  0.45881  0.21739  1.0000
  C   C12       1.0  0.05096  0.45874  0.82220  1.0000
  H   H9        1.0  0.07691  0.47382  0.19697  1.0000
  C   C13       1.0  0.03547  0.45279  0.20133  1.0000
  N   N1        1.0  0.05793  0.46212  0.19966  1.0000
  S   S11       1.0  0.06750  0.48543  0.09815  1.0000
  C   C14       1.0  0.03970  0.43715  0.81704  1.0000
  C   C15       1.0  0.06778  0.46793  0.21759  1.0000
  H   H10       1.0  0.07333  0.48368  0.75777  1.0000
  H   H11       1.0  0.01326  0.44380  0.93699  1.0000
  H   H12       1.0  0.02515  0.45033  0.21499  1.0000
  N   N2        1.0  0.04892  0.44997  0.80102  1.0000
  H   H13       1.0  0.06424  0.47469  0.23325  1.0000
  S   S12       1.0  0.00485  0.44732  0.16610  1.0000
  C   C16       1.0  0.06423  0.48544  0.66448  1.0000
  H   H14       1.0  0.07201  0.46230  0.15168  1.0000
  H   H15       1.0  0.04392  0.42939  0.80846  1.0000
  H   H16       1.0  0.03650  0.49056  0.89615  1.0000
  H   H17       1.0  0.05324  0.44651  0.74718  1.0000
  C   C17       1.0  0.05253  0.45352  0.14926  1.0000
  H   H18       1.0  0.06931  0.46772  0.71969  1.0000
  H   H19       1.0  0.05561  0.45187  0.12209  1.0000
  H   H20       1.0  0.04573  0.45632  0.85097  1.0000
  C   C18       1.0  0.03931  0.45012  0.16710  1.0000
  C   C19       1.0  0.06177  0.45946  0.16617  1.0000
  H   H21       1.0  0.04192  0.46087  0.24400  1.0000
  H   H22       1.0  0.07380  0.48064  0.61573  1.0000
  C   C20       1.0  0.07475  0.48698  0.63436  1.0000
  C   C21       1.0  0.06648  0.47422  0.77004  1.0000
  C   C22       1.0  0.06624  0.49543  0.16048  1.0000
  C   C23       1.0  0.05971  0.47101  0.80702  1.0000
  S   S13       1.0  0.04082  0.49560  0.05389  1.0000
  H   H23       1.0  0.00556  0.48602  0.90777  1.0000
  C   C24       1.0  0.06563  0.49369  0.68839  1.0000
  C   C25       1.0  0.08780  0.49651  0.12579  1.0000
  H   H24       1.0  0.09469  0.49740  0.60559  1.0000
  H   H25       1.0  0.05575  0.49288  0.16429  1.0000
  H   H26       1.0  0.05765  0.49266  0.71161  1.0000
  C   C26       1.0  0.08661  0.49649  0.62851  1.0000
  H   H27       1.0  0.09405  0.49474  0.10248  1.0000
  Fe  Fe9       1.0  0.23139  0.58733  0.08111  1.0000
  S   S14       1.0  0.21462  0.57507  0.13000  1.0000
  S   S15       1.0  0.22871  0.60434  0.04174  1.0000
  H   H28       1.0  0.12832  0.66787  0.58033  1.0000
  H   H29       1.0  0.04431  0.58817  0.02054  1.0000
  C   C27       1.0  0.16537  0.67696  0.20266  1.0000
  H   H30       1.0  0.03266  0.58863  0.97009  1.0000
  C   C28       1.0  0.00889  0.52425  0.67006  1.0000
  H   H31       1.0  0.09920  0.60083  0.86848  1.0000
  H   H32       1.0  0.06768  0.54548  0.75882  1.0000
  C   C29       1.0  0.24748  0.65376  0.16059  1.0000
  H   H33       1.0  0.24111  0.64834  0.62258  1.0000
  Fe  Fe10      1.0  0.14221  0.53098  0.19758  1.0000
  S   S16       1.0  0.12938  0.51131  0.23172  1.0000
  S   S17       1.0  0.15972  0.53501  0.14888  1.0000
  Fe  Fe11      1.0  0.12553  0.54532  0.23776  1.0000
  S   S18       1.0  0.11141  0.52728  0.27432  1.0000
  S   S19       1.0  0.12263  0.56498  0.24024  1.0000
  Fe  Fe12      1.0  0.12931  0.52060  0.28023  1.0000
  S   S20       1.0  0.13088  0.51065  0.33713  1.0000
  Fe  Fe13      1.0  0.11229  0.51953  0.22315  1.0000
  S   S21       1.0  0.09182  0.50979  0.21792  1.0000
  S   S22       1.0  0.14353  0.53931  0.24654  1.0000
  S   S23       1.0  0.12509  0.53849  0.18608  1.0000
  Fe  Fe14      1.0  0.14531  0.63441  0.27113  1.0000
  S   S24       1.0  0.14679  0.62004  0.31986  1.0000
  S   S25       1.0  0.12548  0.63352  0.25651  1.0000
  Fe  Fe15      1.0  0.17475  0.64831  0.25391  1.0000
  S   S26       1.0  0.17827  0.63449  0.30110  1.0000
  S   S27       1.0  0.19039  0.66203  0.20439  1.0000
  Fe  Fe16      1.0  0.16525  0.61902  0.28389  1.0000
  S   S28       1.0  0.16856  0.59917  0.28664  1.0000
  Fe  Fe17      1.0  0.15955  0.63652  0.33496  1.0000
  S   S29       1.0  0.15587  0.63189  0.39805  1.0000
  S   S30       1.0  0.16312  0.63234  0.23397  1.0000
  S   S31       1.0  0.15659  0.65144  0.28856  1.0000
  Fe  Fe18      1.0  0.13224  0.55541  0.57061  1.0000
  S   S32       1.0  0.13287  0.54203  0.62213  1.0000
  S   S33       1.0  0.12718  0.57419  0.57380  1.0000
  Fe  Fe19      1.0  0.13777  0.53716  0.52232  1.0000
  S   S34       1.0  0.13894  0.52196  0.57122  1.0000
  S   S35       1.0  0.14192  0.54140  0.45911  1.0000
  Fe  Fe20      1.0  0.12085  0.52635  0.60231  1.0000
  S   S36       1.0  0.10333  0.51530  0.65058  1.0000
  Fe  Fe21      1.0  0.15077  0.53876  0.58849  1.0000
  S   S37       1.0  0.16811  0.53734  0.61504  1.0000
  S   S38       1.0  0.11907  0.54035  0.55275  1.0000
  S   S39       1.0  0.15089  0.55339  0.53775  1.0000
  Fe  Fe22      1.0  0.18056  0.65259  0.64600  1.0000
  S   S40       1.0  0.18313  0.64389  0.59661  1.0000
  S   S41       1.0  0.20044  0.65882  0.65998  1.0000
  Fe  Fe23      1.0  0.15047  0.64340  0.65963  1.0000
  S   S42       1.0  0.15134  0.63418  0.61172  1.0000
  S   S43       1.0  0.13031  0.64220  0.69389  1.0000
  Fe  Fe24      1.0  0.16722  0.62691  0.63204  1.0000
  S   S44       1.0  0.16969  0.60679  0.63560  1.0000
  Fe  Fe25      1.0  0.16709  0.65200  0.58046  1.0000
  S   S45       1.0  0.16794  0.66202  0.52135  1.0000
  S   S46       1.0  0.16538  0.63478  0.68226  1.0000
  S   S47       1.0  0.16541  0.66216  0.62714  1.0000
  C   C30       1.0  0.00017  0.52945  0.65300  1.0000
  S   S48       1.0  0.02688  0.58417  0.19147  1.0000
  Fe  Fe26      1.0  0.04455  0.57915  0.84264  1.0000
  S   S49       1.0  0.04769  0.59166  0.78497  1.0000
  Fe  Fe27      1.0  0.04785  0.55583  0.81382  1.0000
  S   S50       1.0  0.05150  0.56625  0.75469  1.0000
  S   S51       1.0  0.04780  0.53488  0.82964  1.0000
  Fe  Fe28      1.0  0.06438  0.58263  0.76983  1.0000
  S   S52       1.0  0.08506  0.58956  0.73271  1.0000
  S   S53       1.0  0.06195  0.57131  0.82788  1.0000
  Fe  Fe29      1.0  0.06459  0.58441  0.08423  1.0000
  S   S54       1.0  0.07040  0.58458  0.02294  1.0000
  Fe  Fe30      1.0  0.06146  0.56339  0.15378  1.0000
  S   S55       1.0  0.06010  0.57657  0.19195  1.0000
  S   S56       1.0  0.06077  0.54231  0.17241  1.0000
  Fe  Fe31      1.0  0.07657  0.59142  0.14912  1.0000
  S   S57       1.0  0.09676  0.60061  0.15782  1.0000
  S   S58       1.0  0.07886  0.57725  0.11357  1.0000
  C   C31       1.0  0.05921  0.57993  0.92919  1.0000
  C   C32       1.0  0.06589  0.57988  0.95761  1.0000
  C   C33       1.0  0.06067  0.58299  0.99058  1.0000
  H   H34       1.0  0.06354  0.57788  0.90363  1.0000
  H   H35       1.0  0.07532  0.57772  0.95365  1.0000
  C   C34       1.0  0.02852  0.51826  0.13334  1.0000
  C   C35       1.0  0.02681  0.52943  0.14473  1.0000
  C   C36       1.0  0.03650  0.53659  0.15805  1.0000
  C   C37       1.0  0.04791  0.53265  0.15996  1.0000
  C   C38       1.0  0.04935  0.52118  0.15019  1.0000
  C   C39       1.0  0.03975  0.51408  0.13647  1.0000
  H   H36       1.0  0.01809  0.53267  0.14270  1.0000
  H   H37       1.0  0.03506  0.54508  0.16728  1.0000
  H   H38       1.0  0.05817  0.51815  0.15165  1.0000
  H   H39       1.0  0.00367  0.53978  0.19194  1.0000
  C   C40       1.0  0.01937  0.51195  0.77685  1.0000
  C   C41       1.0  0.02581  0.50548  0.79999  1.0000
  C   C42       1.0  0.03465  0.51254  0.81606  1.0000
  C   C43       1.0  0.03681  0.52604  0.80961  1.0000
  C   C44       1.0  0.02984  0.53242  0.78802  1.0000
  C   C45       1.0  0.02113  0.52536  0.77171  1.0000
  H   H40       1.0  0.02982  0.53658  0.90137  1.0000
  H   H41       1.0  0.03971  0.50752  0.83368  1.0000
  H   H42       1.0  0.03106  0.54277  0.78404  1.0000
  H   H43       1.0  0.01579  0.53026  0.75499  1.0000
  C   C46       1.0  0.11787  0.62740  0.70601  1.0000
  C   C47       1.0  0.10523  0.62685  0.72559  1.0000
  C   C48       1.0  0.09505  0.61534  0.73429  1.0000
  C   C49       1.0  0.09744  0.60427  0.72343  1.0000
  C   C50       1.0  0.11007  0.60486  0.70377  1.0000
  C   C51       1.0  0.12023  0.61632  0.69524  1.0000
  H   H44       1.0  0.10328  0.63542  0.73373  1.0000
  H   H45       1.0  0.08534  0.61514  0.74872  1.0000
  H   H46       1.0  0.11204  0.59638  0.69510  1.0000
  H   H47       1.0  0.12989  0.61658  0.68026  1.0000
  H   H48       1.0  0.16984  0.50520  0.35030  1.0000
  H   H49       1.0  0.22958  0.72495  0.71977  1.0000
  H   H50       1.0  0.22847  0.65560  0.61069  1.0000
  H   H51       1.0  0.18348  0.58105  0.72537  1.0000
  H   H52       1.0  0.20221  0.63684  0.71547  1.0000
  C   C52       1.0  0.01173  0.52332  0.87734  1.0000
  N   N3        1.0  0.24593  0.66349  0.17788  1.0000
  C   C53       1.0  0.24215  0.65298  0.96012  1.0000
  S   S59       1.0  0.24740  0.59861  0.75407  1.0000
  H   H53       1.0  0.21430  0.65122  0.22508  1.0000
  C   C54       1.0  0.13889  0.58330  0.59107  1.0000
  C   C55       1.0  0.15101  0.58048  0.58940  1.0000
  C   C56       1.0  0.16053  0.58797  0.60231  1.0000
  C   C57       1.0  0.15782  0.59799  0.61807  1.0000
  C   C58       1.0  0.14551  0.60046  0.62119  1.0000
  C   C59       1.0  0.13612  0.59330  0.60699  1.0000
  H   H54       1.0  0.15317  0.57267  0.57767  1.0000
  H   H55       1.0  0.17003  0.58608  0.59998  1.0000
  H   H56       1.0  0.14309  0.60763  0.63540  1.0000
  H   H57       1.0  0.12665  0.59532  0.60905  1.0000
  C   C60       1.0  0.16024  0.64058  0.43088  1.0000
  C   C61       1.0  0.16476  0.65415  0.42229  1.0000
  C   C62       1.0  0.16731  0.66057  0.45011  1.0000
  C   C63       1.0  0.16559  0.65351  0.48659  1.0000
  C   C64       1.0  0.16134  0.63992  0.49498  1.0000
  C   C65       1.0  0.15856  0.63353  0.46737  1.0000
  H   H58       1.0  0.16604  0.65971  0.39444  1.0000
  H   H59       1.0  0.17057  0.67108  0.44334  1.0000
  H   H60       1.0  0.15996  0.63435  0.52288  1.0000
  H   H61       1.0  0.15500  0.62306  0.47438  1.0000
  C   C66       1.0  0.11746  0.62365  0.23061  1.0000
  C   C67       1.0  0.10416  0.62273  0.23177  1.0000
  C   C68       1.0  0.09757  0.61556  0.21039  1.0000
  C   C69       1.0  0.10429  0.60944  0.18677  1.0000
  C   C70       1.0  0.11760  0.61039  0.18554  1.0000
  C   C71       1.0  0.12410  0.61731  0.20753  1.0000
  H   H62       1.0  0.09888  0.62761  0.24938  1.0000
  H   H63       1.0  0.08736  0.61498  0.21169  1.0000
  H   H64       1.0  0.12293  0.60568  0.16753  1.0000
  H   H65       1.0  0.13430  0.61784  0.20627  1.0000
  C   C72       1.0  0.13176  0.51908  0.37265  1.0000
  C   C73       1.0  0.13114  0.51218  0.40855  1.0000
  C   C74       1.0  0.13340  0.51879  0.43623  1.0000
  C   C75       1.0  0.13645  0.53239  0.42808  1.0000
  C   C76       1.0  0.13669  0.53923  0.39244  1.0000
  C   C77       1.0  0.13425  0.53263  0.36502  1.0000
  C   C78       1.0  0.00474  0.51884  0.27121  1.0000
  H   H66       1.0  0.13324  0.51338  0.46340  1.0000
  H   H67       1.0  0.13917  0.54974  0.38550  1.0000
  H   H68       1.0  0.13475  0.53807  0.33759  1.0000
  C   C79       1.0  0.08818  0.50435  0.65335  1.0000
  H   H69       1.0  0.01273  0.55934  0.29666  1.0000
  C   C80       1.0  0.01325  0.57027  0.20486  1.0000
  C   C81       1.0  0.04845  0.58573  0.99537  1.0000
  S   S60       1.0  0.20829  0.58031  0.66249  1.0000
  H   H70       1.0  0.16251  0.52731  0.29079  1.0000
  C   C82       1.0  0.06530  0.61536  0.92545  1.0000
  C   C83       1.0  0.04187  0.58600  0.96667  1.0000
  C   C84       1.0  0.22189  0.58196  0.90400  1.0000
  C   C85       1.0  0.06706  0.61059  0.86455  1.0000
  C   C86       1.0  0.13450  0.57420  0.25694  1.0000
  C   C87       1.0  0.13657  0.58771  0.24907  1.0000
  C   C88       1.0  0.14682  0.59538  0.25917  1.0000
  C   C89       1.0  0.15512  0.58955  0.27674  1.0000
  C   C90       1.0  0.15278  0.57601  0.28578  1.0000
  C   C91       1.0  0.14236  0.56832  0.27630  1.0000
  H   H71       1.0  0.13039  0.59228  0.23459  1.0000
  H   H72       1.0  0.14839  0.60580  0.25268  1.0000
  H   H73       1.0  0.15898  0.57148  0.30018  1.0000
  H   H74       1.0  0.14032  0.55789  0.28434  1.0000
  C   C92       1.0  0.21714  0.68678  0.72702  1.0000
  C   C93       1.0  0.22476  0.67971  0.70969  1.0000
  C   C94       1.0  0.21956  0.67150  0.68857  1.0000
  C   C95       1.0  0.20660  0.67001  0.68509  1.0000
  C   C96       1.0  0.19894  0.67701  0.70267  1.0000
  C   C97       1.0  0.20423  0.68543  0.72321  1.0000
  H   H75       1.0  0.22564  0.66627  0.67490  1.0000
  H   H76       1.0  0.18896  0.67598  0.70033  1.0000
  H   H77       1.0  0.19825  0.69090  0.73636  1.0000
  C   C98       1.0  0.20497  0.67432  0.19856  1.0000
  C   C99       1.0  0.20830  0.67939  0.22762  1.0000
  C   C100      1.0  0.22002  0.68916  0.22126  1.0000
  C   C101      1.0  0.22866  0.69379  0.18602  1.0000
  C   C102      1.0  0.22532  0.68867  0.15705  1.0000
  C   C103      1.0  0.21352  0.67908  0.16327  1.0000
  H   H78       1.0  0.20182  0.67588  0.25491  1.0000
  H   H79       1.0  0.22249  0.69304  0.24389  1.0000
  H   H80       1.0  0.23179  0.69213  0.12979  1.0000
  H   H81       1.0  0.21106  0.67525  0.14055  1.0000
  C   C104      1.0  0.22544  0.63459  0.80267  1.0000
  H   H82       1.0  0.23154  0.62959  0.81644  1.0000
  H   H83       1.0  0.21679  0.63373  0.19261  1.0000
  C   C105      1.0  0.19796  0.56814  0.64749  1.0000
  C   C106      1.0  0.19756  0.55490  0.65716  1.0000
  C   C107      1.0  0.18866  0.54567  0.64615  1.0000
  C   C108      1.0  0.17992  0.54948  0.62566  1.0000
  C   C109      1.0  0.18047  0.56271  0.61558  1.0000
  C   C110      1.0  0.18942  0.57195  0.62628  1.0000
  H   H84       1.0  0.18840  0.53546  0.65402  1.0000
  H   H85       1.0  0.17392  0.56577  0.59959  1.0000
  H   H86       1.0  0.18956  0.58210  0.61851  1.0000
  H   H87       1.0  0.23673  0.65607  0.98246  1.0000
  H   H88       1.0  0.03569  0.56548  0.25998  1.0000
  C   C111      1.0  0.03440  0.54676  0.24722  1.0000
  N   N4        1.0  0.07203  0.61092  0.89492  1.0000
  H   H89       1.0  0.04064  0.55374  0.66591  1.0000
  S   S61       1.0  0.24676  0.59965  0.10158  1.0000
  H   H90       1.0  0.21596  0.66281  0.79212  1.0000
  C   C112      1.0  0.19974  0.56345  0.13452  1.0000
  C   C113      1.0  0.19069  0.55920  0.16906  1.0000
  C   C114      1.0  0.17843  0.55051  0.17387  1.0000
  C   C115      1.0  0.17518  0.54573  0.14433  1.0000
  C   C116      1.0  0.18433  0.54975  0.10996  1.0000
  C   C117      1.0  0.19650  0.55869  0.10492  1.0000
  H   H91       1.0  0.19312  0.56278  0.19216  1.0000
  H   H92       1.0  0.17154  0.54747  0.20046  1.0000
  H   H93       1.0  0.18193  0.54605  0.08699  1.0000
  H   H94       1.0  0.20338  0.56182  0.07825  1.0000
  S   S62       1.0  0.04737  0.56943  0.12247  1.0000
  N   N5        1.0  0.17766  0.58550  0.15966  1.0000
  C   C118      1.0  0.16524  0.58010  0.18115  1.0000
  C   C119      1.0  0.18104  0.58349  0.12511  1.0000
  C   C120      1.0  0.15596  0.57208  0.16865  1.0000
  C   C121      1.0  0.17198  0.57560  0.11166  1.0000
  C   C122      1.0  0.15941  0.56973  0.13383  1.0000
  C   C123      1.0  0.18753  0.59343  0.17345  1.0000
  H   H95       1.0  0.16247  0.58183  0.20827  1.0000
  H   H96       1.0  0.19097  0.58758  0.10836  1.0000
  H   H97       1.0  0.14621  0.56758  0.18605  1.0000
  H   H98       1.0  0.17485  0.57357  0.08490  1.0000
  H   H99       1.0  0.15247  0.56311  0.12441  1.0000
  H   H100      1.0  0.19621  0.58936  0.17214  1.0000
  H   H101      1.0  0.19065  0.60359  0.15632  1.0000
  H   H102      1.0  0.18379  0.59367  0.20262  1.0000
  N   N6        1.0  0.09441  0.56464  0.22178  1.0000
  C   C124      1.0  0.09018  0.55250  0.24523  1.0000
  C   C125      1.0  0.09662  0.56605  0.18448  1.0000
  C   C126      1.0  0.08798  0.54138  0.23137  1.0000
  C   C127      1.0  0.09451  0.55515  0.16972  1.0000
  C   C128      1.0  0.09010  0.54275  0.19338  1.0000
  C   C129      1.0  0.09639  0.57629  0.23637  1.0000
  H   H103      1.0  0.08871  0.55135  0.27475  1.0000
  H   H104      1.0  0.10010  0.57565  0.16592  1.0000
  H   H105      1.0  0.08472  0.53173  0.24982  1.0000
  H   H106      1.0  0.09615  0.55633  0.14019  1.0000
  H   H107      1.0  0.08821  0.53421  0.18235  1.0000
  H   H108      1.0  0.08850  0.58123  0.23315  1.0000
  H   H109      1.0  0.09674  0.57397  0.26581  1.0000
  H   H110      1.0  0.10593  0.58319  0.22108  1.0000
  C   C130      1.0  0.00311  0.54816  0.20306  1.0000
  H   H111      1.0  0.01317  0.56136  0.64655  1.0000
  C   C131      1.0  0.00868  0.53996  0.28757  1.0000
  H   H112      1.0  0.04133  0.50563  0.12717  1.0000
  C   C132      1.0  0.16496  0.52690  0.37767  1.0000
  H   H113      1.0  0.06701  0.61069  0.95218  1.0000
  H   H114      1.0  0.23852  0.69332  0.98624  1.0000
  C   C133      1.0  0.23859  0.59951  0.91152  1.0000
  H   H115      1.0  0.23905  0.66008  0.07791  1.0000
  C   C134      1.0  0.00328  0.51538  0.86227  1.0000
  C   C135      1.0  0.07188  0.50084  0.18644  1.0000
  C   C136      1.0  0.16757  0.54023  0.37602  1.0000
  H   H116      1.0  0.24325  0.71305  0.68775  1.0000
  S   S63       1.0  0.01948  0.57546  0.73914  1.0000
  C   C137      1.0  0.00287  0.55044  0.75578  1.0000
  C   C138      1.0  0.22365  0.65176  0.20723  1.0000
  C   C139      1.0  0.16076  0.50839  0.34970  1.0000
  H   H117      1.0  0.00761  0.51380  0.67757  1.0000
  C   C140      1.0  0.01547  0.50473  0.91382  1.0000
  H   H118      1.0  0.05787  0.61304  0.86358  1.0000
  C   C141      1.0  0.07348  0.60662  0.83486  1.0000
  C   C142      1.0  0.01910  0.53260  0.67838  1.0000
  H   H119      1.0  0.16839  0.54369  0.40065  1.0000
  H   H120      1.0  0.00846  0.54771  0.77531  1.0000
  H   H121      1.0  0.17019  0.55930  0.34162  1.0000
  H   H122      1.0  0.02238  0.52579  0.94662  1.0000
  C   C143      1.0  0.22504  0.64196  0.18897  1.0000
  C   C144      1.0  0.09019  0.60360  0.86708  1.0000
  H   H123      1.0  0.21996  0.61965  0.77469  1.0000
  C   C145      1.0  0.23841  0.73038  0.72511  1.0000
  C   C146      1.0  0.08510  0.60309  0.83618  1.0000
  H   H124      1.0  0.01365  0.53380  0.86808  1.0000
  H   H125      1.0  0.15304  0.50287  0.37492  1.0000
  H   H126      1.0  0.05454  0.61264  0.92852  1.0000
  C   C147      1.0  0.00189  0.54289  0.64385  1.0000
  N   N7        1.0  0.02049  0.54575  0.67033  1.0000
  C   C148      1.0  0.08549  0.50405  0.18246  1.0000
  H   H127      1.0  0.99848  0.53761  0.30213  1.0000
  Fe  Fe32      1.0  0.24143  0.69789  0.77591  1.0000
  C   C149      1.0  0.02613  0.53454  0.25071  1.0000
  H   H128      1.0  0.23788  0.60277  0.82130  1.0000
  H   H129      1.0  0.03045  0.56453  0.67509  1.0000
  C   C150      1.0  0.08352  0.60764  0.89632  1.0000
  H   H130      1.0  0.16711  0.55097  0.28642  1.0000
  C   C151      1.0  0.07759  0.50290  0.68321  1.0000
  H   H131      1.0  0.02987  0.52777  0.23676  1.0000
  H   H132      1.0  0.02572  0.52843  0.69212  1.0000
  C   C152      1.0  0.00588  0.56340  0.73590  1.0000
  N   N8        1.0  0.16325  0.52240  0.34727  1.0000
  H   H133      1.0  0.03609  0.52303  0.91613  1.0000
  H   H134      1.0  0.22775  0.73784  0.76659  1.0000
  C   C153      1.0  0.14179  0.57492  0.42052  1.0000
  C   C154      1.0  0.14806  0.58432  0.38773  1.0000
  H   H135      1.0  0.04795  0.55778  0.05471  1.0000
  H   H136      1.0  0.13582  0.56557  0.42006  1.0000
  H   H137      1.0  0.14702  0.58240  0.36133  1.0000
  N   N9        1.0  0.05723  0.54208  0.05702  1.0000
  C   C155      1.0  0.06703  0.54859  0.06988  1.0000
  C   C156      1.0  0.05672  0.52969  0.05331  1.0000
  C   C157      1.0  0.07640  0.54253  0.08056  1.0000
  C   C158      1.0  0.06602  0.52337  0.06340  1.0000
  C   C159      1.0  0.07585  0.52981  0.07743  1.0000
  C   C160      1.0  0.04724  0.54836  0.04672  1.0000
  H   H138      1.0  0.06752  0.55845  0.07248  1.0000
  H   H139      1.0  0.04887  0.52451  0.04342  1.0000
  H   H140      1.0  0.08385  0.54758  0.09197  1.0000
  H   H141      1.0  0.06543  0.51341  0.06140  1.0000
  H   H142      1.0  0.08285  0.52485  0.08648  1.0000
  H   H143      1.0  0.04840  0.55037  0.01638  1.0000
  H   H144      1.0  0.03732  0.54199  0.06094  1.0000
  C   C161      1.0  0.04732  0.58334  0.93316  1.0000
  C   C162      1.0  0.22550  0.58698  0.86556  1.0000
  H   H145      1.0  0.22574  0.58419  0.95654  1.0000
  H   H146      1.0  0.21418  0.57309  0.91593  1.0000
  H   H147      1.0  0.06938  0.60617  0.81114  1.0000
  S   S64       1.0  0.01684  0.50986  0.11417  1.0000
  S   S65       1.0  0.03009  0.56255  0.83304  1.0000
  S   S66       1.0  0.06312  0.59958  0.11736  1.0000
  H   H148      1.0  0.13832  0.57026  0.47956  1.0000
  S   S67       1.0  0.24053  0.63038  0.69673  1.0000
  H   H149      1.0  0.16052  0.60370  0.36374  1.0000
  C   C163      1.0  0.14325  0.57763  0.45419  1.0000
  C   C164      1.0  0.15564  0.59629  0.38903  1.0000
  S   S68       1.0  0.03972  0.58584  0.89578  1.0000
  Fe  Fe33      1.0  0.03450  0.57412  0.77434  1.0000
  H   H150      1.0  0.12914  0.50168  0.41483  1.0000
  H   H151      1.0  0.22651  0.64656  0.65726  1.0000
  S   S69       1.0  0.21847  0.59621  0.73602  1.0000
  C   C165      1.0  0.21674  0.65323  0.78893  1.0000
  N   N10       1.0  0.15076  0.58938  0.45516  1.0000
  C   C166      1.0  0.15680  0.59872  0.42318  1.0000
  S   S70       1.0  0.21817  0.57834  0.83675  1.0000
  H   H152      1.0  0.16252  0.60816  0.42386  1.0000
  H   H153      1.0  0.06561  0.50246  0.21001  1.0000
  N   N11       1.0  0.01787  0.51794  0.90228  1.0000
  Fe  Fe34      1.0  0.04668  0.58350  0.15848  1.0000
  H   H154      1.0  0.00943  0.51078  0.27759  1.0000
  C   C167      1.0  0.24610  0.56812  0.87948  1.0000
  H   H155      1.0  0.20404  0.55173  0.67330  1.0000
  C   C168      1.0  0.22842  0.58822  0.92701  1.0000
  N   N12       1.0  0.01343  0.53131  0.27050  1.0000
  S   S71       1.0  0.24057  0.68115  0.82189  1.0000
  C   C169      1.0  0.16844  0.54897  0.34298  1.0000
  N   N13       1.0  0.21157  0.63549  0.76031  1.0000
  S   S72       1.0  0.23101  0.57129  0.73936  1.0000
  H   H156      1.0  0.14291  0.59492  0.50334  1.0000
  S   S73       1.0  0.24375  0.70539  0.18001  1.0000
  C   C170      1.0  0.15178  0.59215  0.49084  1.0000
  H   H157      1.0  0.15264  0.58344  0.51008  1.0000
  H   H158      1.0  0.09733  0.57047  0.70864  1.0000
  C   C171      1.0  0.20488  0.62950  0.73534  1.0000
  H   H159      1.0  0.09010  0.59992  0.81333  1.0000
  C   C172      1.0  0.21016  0.64728  0.76583  1.0000
  H   H160      1.0  0.10990  0.57128  0.64621  1.0000
  C   C173      1.0  0.24423  0.56560  0.84591  1.0000
  Fe  Fe35      1.0  0.22352  0.58367  0.69736  1.0000
  C   C174      1.0  0.22447  0.64685  0.80729  1.0000
  C   C175      1.0  0.09502  0.56217  0.69684  1.0000
  C   C176      1.0  0.10217  0.56270  0.66154  1.0000
  C   C177      1.0  0.07815  0.55070  0.75364  1.0000
  H   H161      1.0  0.08248  0.54548  0.77418  1.0000
  H   H162      1.0  0.16052  0.60016  0.48808  1.0000
  N   N14       1.0  0.08524  0.55135  0.71613  1.0000
  C   C178      1.0  0.09931  0.55207  0.64612  1.0000
  H   H163      1.0  0.07844  0.56058  0.75822  1.0000
  H   H164      1.0  0.13512  0.66062  0.61666  1.0000
  H   H165      1.0  0.10393  0.50433  0.14826  1.0000
  H   H166      1.0  0.11701  0.61437  0.56555  1.0000
  H   H167      1.0  0.19585  0.62199  0.75147  1.0000
  C   C179      1.0  0.08246  0.54084  0.70134  1.0000
  H   H168      1.0  0.10483  0.55230  0.61886  1.0000
  H   H169      1.0  0.20716  0.64161  0.61286  1.0000
  H   H170      1.0  0.19554  0.62115  0.60062  1.0000
  C   C180      1.0  0.08936  0.54109  0.66601  1.0000
  H   H171      1.0  0.07490  0.53215  0.71687  1.0000
  H   H172      1.0  0.13538  0.67665  0.25117  1.0000
  H   H173      1.0  0.10924  0.61910  0.62635  1.0000
  C   C181      1.0  0.21176  0.63365  0.61284  1.0000
  C   C182      1.0  0.23429  0.66248  0.20146  1.0000
  H   H174      1.0  0.08713  0.53277  0.65421  1.0000
  H   H175      1.0  0.20405  0.65224  0.75198  1.0000
  C   C183      1.0  0.12037  0.62403  0.56976  1.0000
  C   C184      1.0  0.20513  0.62210  0.60618  1.0000
  H   H176      1.0  0.22767  0.60493  0.61544  1.0000
  H   H177      1.0  0.23545  0.55871  0.84502  1.0000
  H   H178      1.0  0.11724  0.64110  0.63538  1.0000
  C   C185      1.0  0.16670  0.54430  0.31207  1.0000
  C   C186      1.0  0.11603  0.62666  0.60382  1.0000
  H   H179      1.0  0.13240  0.63204  0.51432  1.0000
  N   N15       1.0  0.22392  0.63492  0.61943  1.0000
  C   C187      1.0  0.24211  0.65811  0.92360  1.0000
  H   H180      1.0  0.00033  0.57685  0.69610  1.0000
  H   H181      1.0  0.02201  0.55958  0.16985  1.0000
  C   C188      1.0  0.12903  0.63390  0.54108  1.0000
  C   C189      1.0  0.22965  0.62478  0.62043  1.0000
  C   C190      1.0  0.21089  0.61173  0.60707  1.0000
  H   H182      1.0  0.23665  0.66524  0.91730  1.0000
  H   H183      1.0  0.04437  0.54935  0.23085  1.0000
  C   C191      1.0  0.01363  0.55937  0.19062  1.0000
  C   C192      1.0  0.13466  0.66141  0.58736  1.0000
  C   C193      1.0  0.14278  0.67428  0.23195  1.0000
  S   S74       1.0  0.22346  0.69773  0.75250  1.0000
  C   C194      1.0  0.12065  0.63911  0.60887  1.0000
  C   C195      1.0  0.22323  0.61305  0.61423  1.0000
  H   H184      1.0  0.24135  0.65648  0.70279  1.0000
  H   H185      1.0  0.18264  0.58863  0.67989  1.0000
  H   H186      1.0  0.14783  0.54008  0.68599  1.0000
  H   H187      1.0  0.14031  0.65382  0.52486  1.0000
  C   C196      1.0  0.13350  0.64622  0.54721  1.0000
  C   C197      1.0  0.16372  0.54800  0.70855  1.0000
  N   N16       1.0  0.12958  0.64857  0.58110  1.0000
  C   C198      1.0  0.01668  0.55228  0.28457  1.0000
  C   C199      1.0  0.15012  0.56054  0.68324  1.0000
  H   H188      1.0  0.02997  0.55115  0.71114  1.0000
  H   H189      1.0  0.14480  0.66597  0.57029  1.0000
  Fe  Fe36      1.0  0.22743  0.58502  0.77540  1.0000
  C   C200      1.0  0.23731  0.73772  0.75149  1.0000
  C   C201      1.0  0.09345  0.50199  0.15168  1.0000
  C   C202      1.0  0.02958  0.55574  0.26390  1.0000
  C   C203      1.0  0.15767  0.57162  0.68998  1.0000
  H   H190      1.0  0.06879  0.62608  0.92047  1.0000
  C   C204      1.0  0.21887  0.62902  0.77894  1.0000
  H   H191      1.0  0.17981  0.55887  0.72471  1.0000
  H   H192      1.0  0.16647  0.53890  0.71457  1.0000
  H   H193      1.0  0.23473  0.68071  0.71204  1.0000
  C   C205      1.0  0.17122  0.55934  0.71421  1.0000
  H   H194      1.0  0.22986  0.65147  0.82462  1.0000
  C   C206      1.0  0.15596  0.68043  0.22660  1.0000
  C   C207      1.0  0.01218  0.55096  0.65270  1.0000
  H   H195      1.0  0.17569  0.68147  0.19887  1.0000
  H   H196      1.0  0.15892  0.68769  0.24151  1.0000
  C   C208      1.0  0.17666  0.58301  0.70778  1.0000
  N   N17       1.0  0.16817  0.57097  0.70473  1.0000
  C   C209      1.0  0.15324  0.54867  0.69243  1.0000
  C   C210      1.0  0.13920  0.66476  0.21300  1.0000
  H   H197      1.0  0.13404  0.64873  0.17213  1.0000
  C   C211      1.0  0.16146  0.66730  0.18448  1.0000
  H   H198      1.0  0.16889  0.66438  0.16681  1.0000
  H   H199      1.0  0.21136  0.62490  0.71872  1.0000
  H   H200      1.0  0.12894  0.65985  0.21789  1.0000
  N   N18       1.0  0.14850  0.66144  0.18947  1.0000
  H   H201      1.0  0.14999  0.65417  0.14107  1.0000
  C   C212      1.0  0.14471  0.65116  0.17063  1.0000
  H   H202      1.0  0.07872  0.50883  0.70277  1.0000
  H   H203      1.0  0.17078  0.58916  0.71951  1.0000
  H   H204      1.0  0.14697  0.64214  0.18407  1.0000
  H   H205      1.0  0.15528  0.58083  0.68256  1.0000
  H   H206      1.0  0.14217  0.56125  0.66999  1.0000
  Fe  Fe37      1.0  0.23878  0.60882  0.71190  1.0000
  H   H207      1.0  0.16391  0.52014  0.40375  1.0000
  H   H208      1.0  0.08743  0.60786  0.92049  1.0000
  C   C213      1.0  0.16412  0.53090  0.31471  1.0000
  S   S75       1.0  0.24651  0.58328  0.03758  1.0000
  C   C214      1.0  0.23036  0.64696  0.62775  1.0000
  C   C215      1.0  0.23533  0.59853  0.85050  1.0000
  H   H209      1.0  0.20577  0.60264  0.60257  1.0000
  H   H210      1.0  0.15704  0.50580  0.32604  1.0000
  C   C216      1.0  0.02693  0.52627  0.91748  1.0000
  C   C217      1.0  0.24191  0.60470  0.87329  1.0000
  C   C218      1.0  0.03093  0.55420  0.68095  1.0000
  S   S76       1.0  0.24366  0.59722  0.67070  1.0000
  Fe  Fe38      1.0  0.24492  0.60142  0.00015  1.0000
  C   C219      1.0  0.00196  0.56992  0.23114  1.0000
  S   S77       1.0  0.23985  0.63445  0.07289  1.0000
  S   S78       1.0  0.24260  0.69221  0.91088  1.0000
  H   H211      1.0  0.23872  0.56292  0.90459  1.0000
  H   H212      1.0  0.23918  0.62566  0.62640  1.0000
  Fe  Fe39      1.0  0.24466  0.61632  0.06014  1.0000
  H   H213      1.0  0.23312  0.67012  0.21543  1.0000
  C   C220      1.0  0.24533  0.70234  0.96985  1.0000
  C   C221      1.0  0.24698  0.65257  0.72066  1.0000
  S   S79       1.0  0.00923  0.50351  0.75372  1.0000
  C   C222      1.0  0.23706  0.64288  0.16575  1.0000
  H   H214      1.0  0.23822  0.63537  0.15110  1.0000
  H   H215      1.0  0.00236  0.51928  0.24389  1.0000
  H   H216      1.0  0.00151  0.57834  0.24220  1.0000
  C   C223      1.0  0.99822  0.56683  0.71138  1.0000
  H   H217      1.0  0.02017  0.50049  0.93407  1.0000
  C   C224      1.0  0.00109  0.50189  0.87303  1.0000
  H   H218      1.0  0.99879  0.51969  0.84151  1.0000
  C   C225      1.0  0.48246  0.06948  0.74568  1.0000
  Fe  Fe40      1.0  0.48128  0.01532  0.78181  1.0000
  S   S80       1.0  0.47017  0.01387  0.73727  1.0000
  S   S81       1.0  0.47348  0.02060  0.83535  1.0000
  C   C226      1.0  0.46910  0.04931  0.72127  1.0000
  Fe  Fe41      1.0  0.48883  0.02720  0.69869  1.0000
  S   S82       1.0  0.48933  0.99801  0.07612  1.0000
  C   C227      1.0  0.48945  0.01000  0.87460  1.0000
  H   H219      1.0  0.47067  0.02946  0.90242  1.0000
  Fe  Fe42      1.0  0.47896  0.01039  0.10478  1.0000
  H   H220      1.0  0.45598  0.01695  0.05941  1.0000
  C   C228      1.0  0.47161  0.04674  0.75616  1.0000
  C   C229      1.0  0.49190  0.01365  0.93471  1.0000
  H   H221      1.0  0.49299  0.09104  0.69371  1.0000
  C   C230      1.0  0.47745  0.02341  0.90316  1.0000
  H   H222      1.0  0.47611  0.09011  0.69289  1.0000
  S   S83       1.0  0.48507  0.02776  0.05544  1.0000
  H   H223      1.0  0.48087  0.02617  0.95568  1.0000
  C   C231      1.0  0.48066  0.01779  0.87338  1.0000
  C   C232      1.0  0.48410  0.08521  0.68806  1.0000
  C   C233      1.0  0.47336  0.06202  0.69914  1.0000
  Fe  Fe43      1.0  0.49656  0.01561  0.02809  1.0000
  C   C234      1.0  0.48312  0.02145  0.93357  1.0000
  S   S84       1.0  0.49070  0.04424  0.65101  1.0000
  H   H224      1.0  0.46419  0.04145  0.71095  1.0000
  H   H225      1.0  0.47166  0.06383  0.67165  1.0000
  H   H226      1.0  0.49193  0.00553  0.85206  1.0000
  N   N19       1.0  0.48003  0.07189  0.71134  1.0000
  S   S85       1.0  0.45810  0.00217  0.13863  1.0000
  H   H227      1.0  0.44070  0.00689  0.08716  1.0000
  H   H228      1.0  0.46843  0.03691  0.77354  1.0000
  C   C235      1.0  0.47837  0.05685  0.76850  1.0000
  H   H229      1.0  0.48674  0.08522  0.65833  1.0000
  C   C236      1.0  0.46323  0.99880  0.02807  1.0000
  S   S86       1.0  0.49519  0.01826  0.13024  1.0000
  H   H230      1.0  0.48044  0.05482  0.79554  1.0000
  C   C237      1.0  0.44763  0.00887  0.05979  1.0000
  H   H231      1.0  0.44277  0.01206  0.03774  1.0000
  S   S87       1.0  0.49684  0.01059  0.68602  1.0000
  H   H232      1.0  0.46887  0.00839  0.01173  1.0000
  C   C238      1.0  0.49490  0.00784  0.90528  1.0000
  H   H233      1.0  0.48772  0.07730  0.75542  1.0000
  S   S88       1.0  0.48893  0.99796  0.77541  1.0000
  S   S89       1.0  0.48456  0.47356  0.06790  1.0000
  Fe  Fe44      1.0  0.49004  0.48882  0.69131  1.0000
  Fe  Fe45      1.0  0.49218  0.49075  0.09010  1.0000
  S   S90       1.0  0.47235  0.48719  0.66713  1.0000
  C   C239      1.0  0.49251  0.46401  0.18375  1.0000
  H   H234      1.0  0.48697  0.45785  0.21137  1.0000
  C   C240      1.0  0.49033  0.49182  0.88679  1.0000
  H   H235      1.0  0.48640  0.47005  0.17220  1.0000
  H   H236      1.0  0.47940  0.44108  0.64789  1.0000
  C   C241      1.0  0.48678  0.44975  0.63136  1.0000
  C   C242      1.0  0.48525  0.46204  0.63384  1.0000
  S   S91       1.0  0.48802  0.49023  0.96087  1.0000
  Fe  Fe46      1.0  0.49612  0.48627  0.01177  1.0000
  H   H237      1.0  0.47664  0.46302  0.65210  1.0000
  H   H238      1.0  0.49436  0.45763  0.16469  1.0000
  H   H239      1.0  0.45495  0.49512  0.62308  1.0000
  C   C243      1.0  0.49351  0.48594  0.91897  1.0000
  H   H240      1.0  0.49360  0.48264  0.61479  1.0000
  C   C244      1.0  0.49426  0.48846  0.85316  1.0000
  H   H241      1.0  0.49163  0.49296  0.82872  1.0000
  C   C245      1.0  0.49494  0.47313  0.61280  1.0000
  H   H242      1.0  0.49629  0.48756  0.19759  1.0000
  Fe  Fe47      1.0  0.45974  0.56774  0.20416  1.0000
  S   S92       1.0  0.44376  0.57688  0.22370  1.0000
  S   S93       1.0  0.48049  0.57624  0.20469  1.0000
  Fe  Fe48      1.0  0.44186  0.54585  0.18614  1.0000
  S   S94       1.0  0.42398  0.55277  0.20530  1.0000
  S   S95       1.0  0.44111  0.52919  0.15796  1.0000
  Fe  Fe49      1.0  0.43633  0.57276  0.17483  1.0000
  S   S96       1.0  0.43136  0.58864  0.13572  1.0000
  Fe  Fe50      1.0  0.43276  0.55633  0.25297  1.0000
  S   S97       1.0  0.42049  0.55223  0.31147  1.0000
  S   S98       1.0  0.45361  0.56560  0.15241  1.0000
  S   S99       1.0  0.44932  0.54742  0.23668  1.0000
  Fe  Fe51      1.0  0.44755  0.54797  0.57935  1.0000
  S   S100      1.0  0.45659  0.56166  0.52400  1.0000
  S   S101      1.0  0.46070  0.54214  0.61599  1.0000
  Fe  Fe52      1.0  0.42055  0.55267  0.57734  1.0000
  S   S102      1.0  0.42757  0.56644  0.52081  1.0000
  S   S103      1.0  0.40084  0.54857  0.61762  1.0000
  Fe  Fe53      1.0  0.43898  0.55220  0.50616  1.0000
  S   S104      1.0  0.44601  0.54871  0.44937  1.0000
  Fe  Fe54      1.0  0.44457  0.57465  0.54238  1.0000
  S   S105      1.0  0.45386  0.59599  0.53161  1.0000
  S   S106      1.0  0.43051  0.53741  0.56131  1.0000
  S   S107      1.0  0.43696  0.56189  0.59928  1.0000
  H   H243      1.0  0.43115  0.52506  0.34447  1.0000
  S   S108      1.0  0.26076  0.61486  0.01566  1.0000
  H   H244      1.0  0.24923  0.65812  0.86687  1.0000
  S   S109      1.0  0.24843  0.71301  0.80629  1.0000
  H   H245      1.0  0.43830  0.63606  0.08064  1.0000
  H   H246      1.0  0.26729  0.63873  0.78457  1.0000
  Fe  Fe55      1.0  0.26162  0.59704  0.05519  1.0000
  S   S110      1.0  0.28083  0.59159  0.05749  1.0000
  H   H247      1.0  0.48464  0.49890  0.88794  1.0000
  C   C246      1.0  0.46904  0.50240  0.65226  1.0000
  H   H248      1.0  0.26140  0.63263  0.94508  1.0000
  C   C247      1.0  0.48265  0.60949  0.46893  1.0000
  H   H249      1.0  0.27330  0.69255  0.90165  1.0000
  S   S111      1.0  0.26759  0.73433  0.98864  1.0000
  C   C248      1.0  0.40316  0.62452  0.67560  1.0000
  C   C249      1.0  0.47300  0.50724  0.14322  1.0000
  S   S112      1.0  0.26960  0.57922  0.71224  1.0000
  S   S113      1.0  0.26690  0.66429  0.79357  1.0000
  H   H250      1.0  0.47751  0.51283  0.19164  1.0000
  C   C250      1.0  0.41556  0.55087  0.69163  1.0000
  H   H251      1.0  0.42062  0.64612  0.06623  1.0000
  Fe  Fe56      1.0  0.35431  0.62526  0.05265  1.0000
  S   S114      1.0  0.35901  0.60723  0.03929  1.0000
  S   S115      1.0  0.33410  0.62886  0.06311  1.0000
  Fe  Fe57      1.0  0.38319  0.63943  0.04314  1.0000
  S   S116      1.0  0.38988  0.62239  0.02895  1.0000
  S   S117      1.0  0.40092  0.65620  0.03555  1.0000
  Fe  Fe58      1.0  0.37532  0.62125  0.99424  1.0000
  S   S118      1.0  0.38249  0.62232  0.93400  1.0000
  Fe  Fe59      1.0  0.37327  0.61003  0.07537  1.0000
  S   S119      1.0  0.37493  0.59394  0.12075  1.0000
  S   S120      1.0  0.36969  0.63913  0.00507  1.0000
  S   S121      1.0  0.36736  0.62714  0.09233  1.0000
  Fe  Fe60      1.0  0.36700  0.59969  0.70623  1.0000
  S   S122      1.0  0.36222  0.61888  0.68992  1.0000
  S   S123      1.0  0.37907  0.59604  0.65493  1.0000
  Fe  Fe61      1.0  0.35554  0.59798  0.78721  1.0000
  S   S124      1.0  0.35027  0.61706  0.77578  1.0000
  S   S125      1.0  0.35079  0.58792  0.84766  1.0000
  Fe  Fe62      1.0  0.34274  0.60982  0.73019  1.0000
  S   S126      1.0  0.32448  0.61466  0.71540  1.0000
  Fe  Fe63      1.0  0.37011  0.62415  0.73683  1.0000
  S   S127      1.0  0.38561  0.64319  0.72439  1.0000
  S   S128      1.0  0.34684  0.59019  0.74368  1.0000
  S   S129      1.0  0.37596  0.60554  0.75111  1.0000
  Fe  Fe64      1.0  0.45970  0.71639  0.08545  1.0000
  S   S130      1.0  0.44214  0.72428  0.09343  1.0000
  S   S131      1.0  0.46993  0.72111  0.02503  1.0000
  Fe  Fe65      1.0  0.45592  0.70584  0.16769  1.0000
  S   S132      1.0  0.43792  0.71319  0.18097  1.0000
  S   S133      1.0  0.45961  0.69420  0.21953  1.0000
  Fe  Fe66      1.0  0.43234  0.70533  0.13425  1.0000
  S   S134      1.0  0.41135  0.69534  0.13757  1.0000
  Fe  Fe67      1.0  0.44934  0.73164  0.13901  1.0000
  C   C251      1.0  0.44369  0.74380  0.83263  1.0000
  S   S135      1.0  0.44941  0.69672  0.12358  1.0000
  S   S136      1.0  0.46781  0.72503  0.12841  1.0000
  Fe  Fe68      1.0  0.45234  0.69163  0.79789  1.0000
  S   S137      1.0  0.43446  0.69841  0.79040  1.0000
  Fe  Fe69      1.0  0.44503  0.68827  0.88061  1.0000
  S   S138      1.0  0.42658  0.69433  0.87925  1.0000
  S   S139      1.0  0.44752  0.68078  0.93765  1.0000
  Fe  Fe70      1.0  0.42382  0.68198  0.83915  1.0000
  S   S140      1.0  0.40359  0.66887  0.84860  1.0000
  Fe  Fe71      1.0  0.43882  0.71036  0.83090  1.0000
  S   S141      1.0  0.44126  0.67441  0.84449  1.0000
  S   S142      1.0  0.45771  0.70509  0.83444  1.0000
  C   C252      1.0  0.26450  0.58158  0.81464  1.0000
  C   C253      1.0  0.43623  0.73096  0.93282  1.0000
  C   C254      1.0  0.46392  0.70984  0.00059  1.0000
  C   C255      1.0  0.46556  0.71384  0.96228  1.0000
  C   C256      1.0  0.46037  0.70508  0.94266  1.0000
  C   C257      1.0  0.45392  0.69218  0.96112  1.0000
  C   C258      1.0  0.45243  0.68817  0.99928  1.0000
  C   C259      1.0  0.45724  0.69701  0.01904  1.0000
  H   H252      1.0  0.47074  0.72374  0.94777  1.0000
  H   H253      1.0  0.46160  0.70824  0.91318  1.0000
  H   H254      1.0  0.44757  0.67818  0.01364  1.0000
  H   H255      1.0  0.45604  0.69379  0.04841  1.0000
  C   C260      1.0  0.45631  0.74411  0.83696  1.0000
  C   C261      1.0  0.45994  0.50359  0.63071  1.0000
  H   H256      1.0  0.38945  0.72780  0.15816  1.0000
  H   H257      1.0  0.41546  0.51778  0.21056  1.0000
  H   H258      1.0  0.28544  0.65868  0.05493  1.0000
  C   C262      1.0  0.39100  0.64945  0.75990  1.0000
  C   C263      1.0  0.40269  0.65931  0.75091  1.0000
  C   C264      1.0  0.40701  0.66493  0.77822  1.0000
  C   C265      1.0  0.39946  0.66093  0.81455  1.0000
  C   C266      1.0  0.38787  0.65099  0.82365  1.0000
  C   C267      1.0  0.38370  0.64515  0.79649  1.0000
  H   H259      1.0  0.40840  0.66265  0.72264  1.0000
  H   H260      1.0  0.41599  0.67256  0.77097  1.0000
  H   H261      1.0  0.38211  0.64781  0.85184  1.0000
  H   H262      1.0  0.37472  0.63753  0.80366  1.0000
  C   C268      1.0  0.40353  0.66626  0.06622  1.0000
  C   C269      1.0  0.39328  0.66754  0.09273  1.0000
  C   C270      1.0  0.39579  0.67640  0.11478  1.0000
  C   C271      1.0  0.40855  0.68385  0.11082  1.0000
  C   C272      1.0  0.41882  0.68229  0.08492  1.0000
  C   C273      1.0  0.41629  0.67358  0.06263  1.0000
  H   H263      1.0  0.38339  0.66200  0.09557  1.0000
  H   H264      1.0  0.38780  0.67757  0.13475  1.0000
  H   H265      1.0  0.42869  0.68790  0.08177  1.0000
  H   H266      1.0  0.42425  0.67260  0.04223  1.0000
  C   C274      1.0  0.37390  0.61205  0.91127  1.0000
  C   C275      1.0  0.36378  0.60104  0.93048  1.0000
  C   C276      1.0  0.35702  0.59331  0.91085  1.0000
  C   C277      1.0  0.36011  0.59681  0.87212  1.0000
  C   C278      1.0  0.37021  0.60783  0.85316  1.0000
  C   C279      1.0  0.37722  0.61527  0.87266  1.0000
  H   H267      1.0  0.36127  0.59843  0.96031  1.0000
  H   H268      1.0  0.34931  0.58471  0.92566  1.0000
  H   H269      1.0  0.37266  0.61066  0.82342  1.0000
  H   H270      1.0  0.38513  0.62369  0.85771  1.0000
  C   C280      1.0  0.25603  0.63983  0.93882  1.0000
  H   H271      1.0  0.44599  0.72895  0.01281  1.0000
  H   H272      1.0  0.47294  0.58550  0.66047  1.0000
  C   C281      1.0  0.44096  0.72608  0.99248  1.0000
  C   C282      1.0  0.42848  0.63237  0.09814  1.0000
  C   C283      1.0  0.26557  0.64792  0.06100  1.0000
  H   H273      1.0  0.41874  0.50977  0.36338  1.0000
  C   C284      1.0  0.47630  0.67935  0.35159  1.0000
  C   C285      1.0  0.28440  0.58902  0.71659  1.0000
  C   C286      1.0  0.28648  0.60246  0.71226  1.0000
  C   C287      1.0  0.29864  0.61006  0.71352  1.0000
  C   C288      1.0  0.30882  0.60434  0.71968  1.0000
  C   C289      1.0  0.30657  0.59082  0.72559  1.0000
  C   C290      1.0  0.29446  0.58323  0.72367  1.0000
  H   H274      1.0  0.27884  0.60707  0.70685  1.0000
  H   H275      1.0  0.30027  0.62052  0.70887  1.0000
  H   H276      1.0  0.31429  0.58627  0.73048  1.0000
  H   H277      1.0  0.29291  0.57281  0.72741  1.0000
  H   H278      1.0  0.38417  0.68597  0.84676  1.0000
  H   H279      1.0  0.45162  0.57872  0.40983  1.0000
  C   C291      1.0  0.42875  0.71813  0.93995  1.0000
  C   C292      1.0  0.29585  0.60272  0.05422  1.0000
  C   C293      1.0  0.30736  0.59844  0.04982  1.0000
  C   C294      1.0  0.31928  0.60653  0.05093  1.0000
  C   C295      1.0  0.31976  0.61894  0.05693  1.0000
  C   C296      1.0  0.30833  0.62331  0.06054  1.0000
  C   C297      1.0  0.29644  0.61529  0.05893  1.0000
  H   H280      1.0  0.30695  0.58869  0.04640  1.0000
  H   H281      1.0  0.32798  0.60299  0.04847  1.0000
  H   H282      1.0  0.30861  0.63290  0.06521  1.0000
  H   H283      1.0  0.28765  0.61868  0.06254  1.0000
  H   H284      1.0  0.49516  0.53567  0.94824  1.0000
  C   C298      1.0  0.29408  0.71969  0.90871  1.0000
  C   C299      1.0  0.43332  0.71333  0.99891  1.0000
  N   N20       1.0  0.49543  0.56206  0.66022  1.0000
  C   C300      1.0  0.26603  0.58390  0.84864  1.0000
  C   C301      1.0  0.45667  0.59756  0.42183  1.0000
  H   H285      1.0  0.27269  0.67734  0.98358  1.0000
  H   H286      1.0  0.43243  0.70644  0.02463  1.0000
  C   C302      1.0  0.26276  0.72577  0.92794  1.0000
  C   C303      1.0  0.41545  0.71915  0.76411  1.0000
  C   C304      1.0  0.39524  0.56189  0.62912  1.0000
  C   C305      1.0  0.38510  0.55976  0.66073  1.0000
  C   C306      1.0  0.38033  0.57017  0.67004  1.0000
  C   C307      1.0  0.38544  0.58273  0.64716  1.0000
  C   C308      1.0  0.39556  0.58482  0.61562  1.0000
  C   C309      1.0  0.40061  0.57452  0.60700  1.0000
  H   H287      1.0  0.38085  0.55001  0.67794  1.0000
  H   H288      1.0  0.37247  0.56840  0.69423  1.0000
  H   H289      1.0  0.39939  0.59443  0.59734  1.0000
  H   H290      1.0  0.40834  0.57628  0.58248  1.0000
  C   C310      1.0  0.46375  0.52669  0.62874  1.0000
  C   C311      1.0  0.47270  0.52541  0.65063  1.0000
  N   N21       1.0  0.41981  0.61694  0.64115  1.0000
  C   C312      1.0  0.42978  0.52350  0.67281  1.0000
  N   N22       1.0  0.39911  0.70127  0.80716  1.0000
  S   S143      1.0  0.49225  0.64395  0.42781  1.0000
  H   H291      1.0  0.47754  0.53372  0.65908  1.0000
  C   C313      1.0  0.26303  0.64055  0.87301  1.0000
  H   H292      1.0  0.26955  0.73481  0.91166  1.0000
  H   H293      1.0  0.25977  0.71836  0.88053  1.0000
  C   C314      1.0  0.45563  0.59973  0.57328  1.0000
  C   C315      1.0  0.44609  0.59336  0.60581  1.0000
  C   C316      1.0  0.44778  0.59586  0.63952  1.0000
  C   C317      1.0  0.45905  0.60475  0.64065  1.0000
  H   H294      1.0  0.42416  0.71518  0.91888  1.0000
  C   C318      1.0  0.46673  0.60891  0.57430  1.0000
  H   H295      1.0  0.43721  0.58678  0.60483  1.0000
  H   H296      1.0  0.44041  0.59087  0.66467  1.0000
  C   C319      1.0  0.44242  0.73492  0.95918  1.0000
  Fe  Fe72      1.0  0.49012  0.62180  0.32755  1.0000
  C   C320      1.0  0.47131  0.68510  0.22212  1.0000
  H   H297      1.0  0.39724  0.69379  0.86401  1.0000
  C   C321      1.0  0.40783  0.61955  0.64594  1.0000
  H   H298      1.0  0.43321  0.61723  0.13495  1.0000
  C   C322      1.0  0.41541  0.58852  0.13024  1.0000
  C   C323      1.0  0.40423  0.58142  0.15774  1.0000
  C   C324      1.0  0.39182  0.58288  0.15410  1.0000
  C   C325      1.0  0.39051  0.59145  0.12304  1.0000
  C   C326      1.0  0.40168  0.59829  0.09526  1.0000
  C   C327      1.0  0.41403  0.59679  0.09880  1.0000
  H   H299      1.0  0.40516  0.57504  0.18215  1.0000
  H   H300      1.0  0.38324  0.57750  0.17570  1.0000
  H   H301      1.0  0.40085  0.60479  0.07105  1.0000
  H   H302      1.0  0.42262  0.60229  0.07733  1.0000
  C   C328      1.0  0.42801  0.55252  0.34892  1.0000
  C   C329      1.0  0.44098  0.55191  0.34532  1.0000
  C   C330      1.0  0.44636  0.55095  0.37629  1.0000
  C   C331      1.0  0.43891  0.55077  0.41108  1.0000
  C   C332      1.0  0.42604  0.55172  0.41453  1.0000
  C   C333      1.0  0.42058  0.55246  0.38361  1.0000
  H   H303      1.0  0.44675  0.55179  0.31893  1.0000
  H   H304      1.0  0.45632  0.55020  0.37339  1.0000
  H   H305      1.0  0.42019  0.55153  0.44119  1.0000
  H   H306      1.0  0.41051  0.55286  0.38670  1.0000
  C   C334      1.0  0.45394  0.52144  0.15164  1.0000
  C   C335      1.0  0.46206  0.52077  0.17611  1.0000
  C   C336      1.0  0.47147  0.51359  0.17208  1.0000
  C   C337      1.0  0.41696  0.53915  0.68325  1.0000
  S   S144      1.0  0.46141  0.60729  0.68299  1.0000
  N   N23       1.0  0.47419  0.60112  0.45226  1.0000
  H   H307      1.0  0.46085  0.52546  0.19871  1.0000
  H   H308      1.0  0.46094  0.62414  0.28839  1.0000
  S   S145      1.0  0.26966  0.73354  0.09441  1.0000
  H   H309      1.0  0.47614  0.69411  0.30512  1.0000
  C   C338      1.0  0.47959  0.58281  0.24318  1.0000
  C   C339      1.0  0.48981  0.59290  0.24451  1.0000
  H   H310      1.0  0.29083  0.59025  0.17536  1.0000
  C   C340      1.0  0.47659  0.59552  0.30045  1.0000
  C   C341      1.0  0.46669  0.58492  0.30023  1.0000
  C   C342      1.0  0.46820  0.57858  0.27159  1.0000
  C   C343      1.0  0.25643  0.67547  0.16950  1.0000
  H   H311      1.0  0.43249  0.52535  0.64225  1.0000
  H   H312      1.0  0.45768  0.58182  0.32158  1.0000
  H   H313      1.0  0.46042  0.57054  0.27119  1.0000
  N   N24       1.0  0.41941  0.51933  0.30858  1.0000
  H   H314      1.0  0.26529  0.57334  0.92604  1.0000
  C   C344      1.0  0.25353  0.57235  0.81335  1.0000
  C   C345      1.0  0.42808  0.51495  0.28609  1.0000
  H   H315      1.0  0.48759  0.58484  0.70354  1.0000
  C   C346      1.0  0.25979  0.72320  0.96659  1.0000
  C   C347      1.0  0.42099  0.51978  0.34577  1.0000
  H   H316      1.0  0.41447  0.52510  0.35923  1.0000
  H   H317      1.0  0.39275  0.68451  0.78711  1.0000
  Fe  Fe73      1.0  0.25077  0.58585  0.71554  1.0000
  H   H318      1.0  0.30076  0.72875  0.89179  1.0000
  S   S146      1.0  0.28594  0.73066  0.75370  1.0000
  C   C348      1.0  0.40922  0.52299  0.29678  1.0000
  H   H319      1.0  0.37633  0.74403  0.15586  1.0000
  S   S147      1.0  0.48592  0.64038  0.33695  1.0000
  N   N25       1.0  0.42728  0.70952  0.97284  1.0000
  C   C349      1.0  0.41946  0.69606  0.98029  1.0000
  H   H320      1.0  0.41239  0.69331  0.00765  1.0000
  H   H321      1.0  0.41378  0.69460  0.95936  1.0000
  H   H322      1.0  0.42594  0.68934  0.98029  1.0000
  N   N26       1.0  0.41269  0.65016  0.92481  1.0000
  C   C350      1.0  0.41343  0.64372  0.89719  1.0000
  C   C351      1.0  0.42305  0.65309  0.94025  1.0000
  C   C352      1.0  0.42475  0.63995  0.88451  1.0000
  C   C353      1.0  0.43455  0.64953  0.92812  1.0000
  C   C354      1.0  0.43538  0.64291  0.90008  1.0000
  C   C355      1.0  0.40092  0.65425  0.93775  1.0000
  H   H323      1.0  0.40527  0.64155  0.88461  1.0000
  H   H324      1.0  0.42251  0.65839  0.96176  1.0000
  H   H325      1.0  0.42529  0.63494  0.86244  1.0000
  H   H326      1.0  0.44284  0.65220  0.93982  1.0000
  H   H327      1.0  0.44432  0.64028  0.89001  1.0000
  H   H328      1.0  0.39296  0.65059  0.92473  1.0000
  H   H329      1.0  0.39727  0.65040  0.96796  1.0000
  H   H330      1.0  0.40315  0.66503  0.93098  1.0000
  N   N27       1.0  0.48386  0.63315  0.20754  1.0000
  C   C356      1.0  0.47695  0.63388  0.24082  1.0000
  C   C357      1.0  0.32612  0.58209  0.12847  1.0000
  H   H331      1.0  0.48423  0.60374  0.49441  1.0000
  H   H332      1.0  0.43754  0.51985  0.68362  1.0000
  H   H333      1.0  0.28084  0.73321  0.83032  1.0000
  H   H334      1.0  0.25142  0.66986  0.74101  1.0000
  N   N28       1.0  0.27651  0.69673  0.95211  1.0000
  C   C358      1.0  0.28321  0.70524  0.96842  1.0000
  H   H335      1.0  0.31598  0.61279  0.14652  1.0000
  C   C359      1.0  0.26731  0.68465  0.97521  1.0000
  H   H336      1.0  0.49217  0.61444  0.44907  1.0000
  H   H337      1.0  0.42062  0.73312  0.13797  1.0000
  H   H338      1.0  0.26171  0.68652  0.00048  1.0000
  H   H339      1.0  0.26001  0.68062  0.96064  1.0000
  H   H340      1.0  0.40895  0.53309  0.67594  1.0000
  C   C360      1.0  0.41399  0.73128  0.16564  1.0000
  H   H341      1.0  0.44932  0.60105  0.41001  1.0000
  N   N29       1.0  0.40316  0.62251  0.14193  1.0000
  C   C361      1.0  0.41289  0.61715  0.15068  1.0000
  C   C362      1.0  0.40588  0.63292  0.11235  1.0000
  C   C363      1.0  0.42567  0.62192  0.12879  1.0000
  C   C364      1.0  0.41855  0.63797  0.08994  1.0000
  C   C365      1.0  0.38983  0.61745  0.16522  1.0000
  H   H342      1.0  0.41075  0.60881  0.17391  1.0000
  H   H343      1.0  0.39821  0.63733  0.10573  1.0000
  H   H344      1.0  0.38797  0.60705  0.17970  1.0000
  H   H345      1.0  0.38818  0.62328  0.18585  1.0000
  H   H346      1.0  0.38256  0.61779  0.14819  1.0000
  N   N30       1.0  0.32556  0.60001  0.63678  1.0000
  C   C366      1.0  0.32195  0.58670  0.64757  1.0000
  C   C367      1.0  0.33831  0.60668  0.63112  1.0000
  C   C368      1.0  0.33120  0.57975  0.65370  1.0000
  C   C369      1.0  0.34785  0.60001  0.63614  1.0000
  C   C370      1.0  0.34425  0.58648  0.64782  1.0000
  C   C371      1.0  0.31590  0.60721  0.62926  1.0000
  H   H347      1.0  0.31182  0.58141  0.65211  1.0000
  H   H348      1.0  0.34115  0.61724  0.62302  1.0000
  H   H349      1.0  0.32828  0.56921  0.66296  1.0000
  H   H350      1.0  0.35799  0.60531  0.63127  1.0000
  H   H351      1.0  0.35159  0.58127  0.65239  1.0000
  H   H352      1.0  0.30577  0.60135  0.64333  1.0000
  H   H353      1.0  0.31746  0.61615  0.63988  1.0000
  H   H354      1.0  0.31670  0.60997  0.59914  1.0000
  C   C372      1.0  0.43760  0.55533  0.69922  1.0000
  N   N31       1.0  0.33439  0.60979  0.91416  1.0000
  C   C373      1.0  0.33319  0.61119  0.94954  1.0000
  C   C374      1.0  0.34365  0.61863  0.88570  1.0000
  C   C375      1.0  0.34156  0.62155  0.95722  1.0000
  C   C376      1.0  0.35215  0.62910  0.89239  1.0000
  C   C377      1.0  0.35117  0.63048  0.92842  1.0000
  C   C378      1.0  0.32580  0.59857  0.90715  1.0000
  H   H355      1.0  0.32582  0.60420  0.97208  1.0000
  H   H356      1.0  0.34482  0.61740  0.85775  1.0000
  H   H357      1.0  0.34071  0.62259  0.98532  1.0000
  H   H358      1.0  0.35971  0.63583  0.86987  1.0000
  H   H359      1.0  0.35798  0.63834  0.93407  1.0000
  H   H360      1.0  0.31541  0.59856  0.91662  1.0000
  H   H361      1.0  0.32779  0.59861  0.87733  1.0000
  H   H362      1.0  0.32748  0.58940  0.92183  1.0000
  C   C379      1.0  0.45736  0.51574  0.61869  1.0000
  C   C380      1.0  0.46264  0.61269  0.24815  1.0000
  Fe  Fe74      1.0  0.26026  0.71264  0.12750  1.0000
  H   H363      1.0  0.40712  0.63046  0.72402  1.0000
  H   H364      1.0  0.42203  0.71624  0.70992  1.0000
  H   H365      1.0  0.26365  0.58981  0.91340  1.0000
  C   C381      1.0  0.25723  0.71647  0.91030  1.0000
  H   H366      1.0  0.47820  0.66227  0.28576  1.0000
  H   H367      1.0  0.27460  0.59109  0.84936  1.0000
  N   N32       1.0  0.42835  0.53554  0.68334  1.0000
  C   C382      1.0  0.27866  0.69927  0.91452  1.0000
  C   C383      1.0  0.46518  0.50828  0.11806  1.0000
  H   H368      1.0  0.43619  0.51211  0.29535  1.0000
  H   H369      1.0  0.27171  0.58693  0.78938  1.0000
  H   H370      1.0  0.25712  0.62536  0.74677  1.0000
  C   C384      1.0  0.49548  0.56997  0.68424  1.0000
  S   S148      1.0  0.49267  0.49811  0.73817  1.0000
  C   C385      1.0  0.28744  0.71080  0.89225  1.0000
  C   C386      1.0  0.24860  0.74467  0.75873  1.0000
  C   C387      1.0  0.46965  0.67562  0.25476  1.0000
  C   C388      1.0  0.33181  0.60380  0.13745  1.0000
  H   H371      1.0  0.40175  0.61772  0.62691  1.0000
  H   H372      1.0  0.47410  0.61393  0.54918  1.0000
  H   H373      1.0  0.43374  0.51100  0.23247  1.0000
  H   H374      1.0  0.43727  0.73778  0.90693  1.0000
  C   C389      1.0  0.46849  0.61135  0.60807  1.0000
  C   C390      1.0  0.48897  0.66696  0.77090  1.0000
  C   C391      1.0  0.47414  0.67032  0.71901  1.0000
  H   H375      1.0  0.47804  0.61704  0.47751  1.0000
  C   C392      1.0  0.41642  0.51801  0.23834  1.0000
  S   S149      1.0  0.47386  0.60429  0.33392  1.0000
  H   H376      1.0  0.44778  0.54076  0.69023  1.0000
  H   H377      1.0  0.28892  0.71295  0.86246  1.0000
  S   S150      1.0  0.49059  0.61693  0.72515  1.0000
  H   H378      1.0  0.25082  0.72793  0.65234  1.0000
  H   H379      1.0  0.25220  0.57051  0.78710  1.0000
  C   C393      1.0  0.24919  0.65977  0.07252  1.0000
  C   C394      1.0  0.26080  0.74425  0.73944  1.0000
  C   C395      1.0  0.48059  0.62226  0.19455  1.0000
  C   C396      1.0  0.43863  0.54348  0.69103  1.0000
  H   H380      1.0  0.40655  0.55373  0.69103  1.0000
  H   H381      1.0  0.26061  0.71906  0.67541  1.0000
  H   H382      1.0  0.48711  0.55586  0.61794  1.0000
  C   C397      1.0  0.48736  0.57845  0.68479  1.0000
  C   C398      1.0  0.49209  0.64004  0.50130  1.0000
  H   H383      1.0  0.33907  0.61229  0.13831  1.0000
  H   H384      1.0  0.24972  0.61345  0.86107  1.0000
  S   S151      1.0  0.46422  0.68890  0.74541  1.0000
  H   H385      1.0  0.32894  0.57349  0.12294  1.0000
  C   C399      1.0  0.42723  0.61879  0.66603  1.0000
  C   C400      1.0  0.46765  0.58075  0.43614  1.0000
  S   S152      1.0  0.27966  0.70826  0.13056  1.0000
  C   C401      1.0  0.31306  0.58263  0.13331  1.0000
  C   C402      1.0  0.27197  0.67042  0.06550  1.0000
  H   H386      1.0  0.48169  0.63907  0.50570  1.0000
  C   C403      1.0  0.40717  0.71354  0.79923  1.0000
  C   C404      1.0  0.29578  0.59384  0.14559  1.0000
  H   H387      1.0  0.47715  0.61833  0.60884  1.0000
  C   C405      1.0  0.42596  0.55901  0.69956  1.0000
  C   C406      1.0  0.47915  0.57882  0.66061  1.0000
  S   S153      1.0  0.48449  0.49780  0.14054  1.0000
  C   C407      1.0  0.25571  0.63496  0.74571  1.0000
  H   H388      1.0  0.48295  0.65676  0.69538  1.0000
  H   H389      1.0  0.25672  0.65448  0.14203  1.0000
  H   H390      1.0  0.29700  0.72377  0.96019  1.0000
  N   N33       1.0  0.30953  0.59356  0.13972  1.0000
  C   C408      1.0  0.48228  0.66180  0.71723  1.0000
  C   C409      1.0  0.39093  0.69552  0.84466  1.0000
  H   H391      1.0  0.46863  0.57098  0.43631  1.0000
  C   C410      1.0  0.48830  0.59926  0.27319  1.0000
  H   H392      1.0  0.48293  0.58540  0.46386  1.0000
  S   S154      1.0  0.25854  0.70475  0.07792  1.0000
  H   H393      1.0  0.48131  0.54113  0.11845  1.0000
  H   H394      1.0  0.26592  0.67442  0.15456  1.0000
  H   H395      1.0  0.44583  0.56168  0.70477  1.0000
  S   S155      1.0  0.28426  0.68399  0.06528  1.0000
  H   H396      1.0  0.27109  0.73635  0.69894  1.0000
  H   H397      1.0  0.25382  0.68349  0.15190  1.0000
  H   H398      1.0  0.48244  0.51261  0.67860  1.0000
  H   H399      1.0  0.42012  0.61439  0.58668  1.0000
  H   H400      1.0  0.30580  0.57433  0.13142  1.0000
  Fe  Fe75      1.0  0.26119  0.68306  0.79316  1.0000
  Fe  Fe76      1.0  0.24938  0.69615  0.84933  1.0000
  H   H401      1.0  0.43663  0.61647  0.66273  1.0000
  C   C411      1.0  0.49510  0.64396  0.18658  1.0000
  H   H402      1.0  0.42504  0.56822  0.70548  1.0000
  H   H403      1.0  0.45045  0.51660  0.60180  1.0000
  H   H404      1.0  0.24961  0.57691  0.93717  1.0000
  C   C412      1.0  0.25248  0.64828  0.06786  1.0000
  C   C413      1.0  0.41544  0.71211  0.73702  1.0000
  H   H405      1.0  0.46001  0.73560  0.83655  1.0000
  S   S156      1.0  0.27003  0.69663  0.82458  1.0000
  H   H406      1.0  0.47998  0.68045  0.79482  1.0000
  S   S157      1.0  0.43318  0.72951  0.82840  1.0000
  C   C414      1.0  0.25889  0.67076  0.07166  1.0000
  Fe  Fe77      1.0  0.26882  0.71268  0.77948  1.0000
  C   C415      1.0  0.25091  0.71155  0.98737  1.0000
  Fe  Fe78      1.0  0.27826  0.70159  0.07892  1.0000
  H   H407      1.0  0.48412  0.69519  0.16909  1.0000
  H   H408      1.0  0.28163  0.70307  0.99821  1.0000
  C   C416      1.0  0.26151  0.64258  0.76705  1.0000
  C   C417      1.0  0.31869  0.60402  0.14215  1.0000
  S   S158      1.0  0.28903  0.72118  0.04280  1.0000
  H   H409      1.0  0.49251  0.65342  0.18539  1.0000
  H   H410      1.0  0.39367  0.62661  0.67914  1.0000
  C   C418      1.0  0.47545  0.51339  0.66196  1.0000
  Fe  Fe79      1.0  0.28893  0.72853  0.09405  1.0000
  C   C419      1.0  0.40717  0.69960  0.74533  1.0000
  C   C420      1.0  0.48858  0.55111  0.15684  1.0000
  Fe  Fe80      1.0  0.26942  0.72492  0.04511  1.0000
  S   S159      1.0  0.26176  0.69900  0.74500  1.0000
  C   C421      1.0  0.48048  0.67516  0.77343  1.0000
  C   C422      1.0  0.29199  0.71689  0.94704  1.0000
  H   H411      1.0  0.46083  0.67344  0.27640  1.0000
  H   H412      1.0  0.49558  0.53584  0.06949  1.0000
  N   N34       1.0  0.25685  0.57724  0.88048  1.0000
  C   C423      1.0  0.42283  0.62372  0.69613  1.0000
  Fe  Fe81      1.0  0.48237  0.61762  0.67554  1.0000
  C   C424      1.0  0.45800  0.58506  0.42152  1.0000
  H   H413      1.0  0.47979  0.64236  0.25156  1.0000
  H   H414      1.0  0.25719  0.63908  0.85240  1.0000
  C   C425      1.0  0.25995  0.65516  0.76553  1.0000
  C   C426      1.0  0.47570  0.58895  0.45159  1.0000
  H   H415      1.0  0.42875  0.62522  0.71574  1.0000
  C   C427      1.0  0.26154  0.73675  0.71338  1.0000
  C   C428      1.0  0.46500  0.60558  0.43699  1.0000
  C   C429      1.0  0.46623  0.62368  0.26159  1.0000
  H   H416      1.0  0.42156  0.60067  0.61939  1.0000
  C   C430      1.0  0.39901  0.69431  0.78075  1.0000
  H   H417      1.0  0.46622  0.67822  0.36537  1.0000
  H   H418      1.0  0.42209  0.72874  0.75845  1.0000
  H   H419      1.0  0.39971  0.52563  0.25187  1.0000
  C   C431      1.0  0.45557  0.51521  0.12259  1.0000
  C   C432      1.0  0.41072  0.62663  0.70081  1.0000
  H   H420      1.0  0.38499  0.70210  0.85335  1.0000
  C   C433      1.0  0.25898  0.57938  0.91598  1.0000
  H   H421      1.0  0.43520  0.61496  0.59991  1.0000
  H   H422      1.0  0.46391  0.61528  0.43720  1.0000
  C   C434      1.0  0.25266  0.66015  0.74234  1.0000
  C   C435      1.0  0.48272  0.68786  0.19424  1.0000
  H   H423      1.0  0.46858  0.67179  0.69844  1.0000
  H   H424      1.0  0.42006  0.73210  0.18603  1.0000
  C   C436      1.0  0.42440  0.61147  0.61029  1.0000
  C   C437      1.0  0.27531  0.65901  0.05972  1.0000
  H   H425      1.0  0.47938  0.55325  0.16725  1.0000
  C   C438      1.0  0.47323  0.67707  0.74700  1.0000
  C   C439      1.0  0.40759  0.52240  0.26151  1.0000
  H   H426      1.0  0.26816  0.63904  0.05748  1.0000
  N   N35       1.0  0.25576  0.64475  0.90316  1.0000
  H   H427      1.0  0.25615  0.67938  0.07632  1.0000
  H   H428      1.0  0.48948  0.57509  0.31854  1.0000
  C   C440      1.0  0.42673  0.51424  0.25066  1.0000
  C   C441      1.0  0.47946  0.66925  0.26006  1.0000
  H   H429      1.0  0.29054  0.58773  0.12987  1.0000
  H   H430      1.0  0.40784  0.72108  0.17309  1.0000
  H   H431      1.0  0.29486  0.60387  0.13560  1.0000
  H   H432      1.0  0.40742  0.71898  0.82032  1.0000
  H   H433      1.0  0.40723  0.69392  0.72476  1.0000
  C   C442      1.0  0.49262  0.68162  0.19977  1.0000
  H   H434      1.0  0.47268  0.57076  0.61761  1.0000
  H   H435      1.0  0.46622  0.50337  0.09586  1.0000
  H   H436      1.0  0.46740  0.60321  0.20443  1.0000
  H   H437      1.0  0.34572  0.59251  0.12667  1.0000
  H   H438      1.0  0.42054  0.51568  0.68376  1.0000
  C   C443      1.0  0.33554  0.59276  0.13059  1.0000
  C   C444      1.0  0.47908  0.57065  0.63642  1.0000
  H   H439      1.0  0.49418  0.59080  0.35655  1.0000
  H   H440      1.0  0.44925  0.51561  0.10371  1.0000
  H   H441      1.0  0.45450  0.60459  0.26436  1.0000
  H   H442      1.0  0.49614  0.60706  0.27391  1.0000
  H   H443      1.0  0.25781  0.67840  0.19522  1.0000
  C   C445      1.0  0.29451  0.74096  0.77737  1.0000
  H   H444      1.0  0.47949  0.66478  0.39398  1.0000
  H   H445      1.0  0.40249  0.52672  0.31427  1.0000
  C   C446      1.0  0.49664  0.67332  0.34942  1.0000
  N   N36       1.0  0.25042  0.72978  0.70693  1.0000
  C   C447      1.0  0.48731  0.56225  0.63667  1.0000
  H   H446      1.0  0.26530  0.63115  0.88310  1.0000
  N   N37       1.0  0.49461  0.68955  0.29958  1.0000
  C   C448      1.0  0.49113  0.67249  0.23295  1.0000
  C   C449      1.0  0.48977  0.54435  0.12904  1.0000
  C   C450      1.0  0.46988  0.61191  0.21452  1.0000
  C   C451      1.0  0.48999  0.66034  0.74262  1.0000
  S   S160      1.0  0.30951  0.74135  0.08730  1.0000
  H   H447      1.0  0.49493  0.66593  0.79059  1.0000
  C   C452      1.0  0.25134  0.72212  0.67915  1.0000
  C   C453      1.0  0.48371  0.67182  0.36758  1.0000
  C   C454      1.0  0.48199  0.68833  0.31755  1.0000
  H   H448      1.0  0.27230  0.64808  0.85895  1.0000
  H   H449      1.0  0.44842  0.74480  0.95359  1.0000
  H   H450      1.0  0.48628  0.62146  0.16873  1.0000
  S   S161      1.0  0.49090  0.63905  0.65135  1.0000
  N   N38       1.0  0.40613  0.74078  0.16528  1.0000
  H   H451      1.0  0.49533  0.68333  0.60411  1.0000
  C   C455      1.0  0.28986  0.74024  0.81485  1.0000
  H   H452      1.0  0.49298  0.70093  0.24898  1.0000
  C   C456      1.0  0.39368  0.73752  0.16070  1.0000
  H   H453      1.0  0.49179  0.63761  0.55918  1.0000
  C   C457      1.0  0.24841  0.63992  0.72253  1.0000
  C   C458      1.0  0.24913  0.65396  0.89525  1.0000
  C   C459      1.0  0.38623  0.74665  0.15922  1.0000
  C   C460      1.0  0.24865  0.70466  0.93138  1.0000
  H   H454      1.0  0.24811  0.70974  0.01699  1.0000
  H   H455      1.0  0.24929  0.63974  0.99602  1.0000
  C   C461      1.0  0.24920  0.64382  0.96779  1.0000
  S   S162      1.0  0.24807  0.60715  0.93796  1.0000
  H   H456      1.0  0.47750  0.74760  0.96155  1.0000
  H   H457      1.0  0.48364  0.94929  0.17347  1.0000
  N   N39       1.0  0.47209  0.76718  0.01905  1.0000
  H   H458      1.0  0.33554  0.75732  0.07284  1.0000
  C   C462      1.0  0.48468  0.91210  0.51504  1.0000
  C   C463      1.0  0.47429  0.92743  0.43249  1.0000
  C   C464      1.0  0.38063  0.89700  0.60831  1.0000
  Fe  Fe82      1.0  0.44989  0.91537  0.23451  1.0000
  S   S163      1.0  0.43799  0.89584  0.26820  1.0000
  S   S164      1.0  0.47165  0.92013  0.21338  1.0000
  Fe  Fe83      1.0  0.42664  0.92598  0.23358  1.0000
  S   S165      1.0  0.41237  0.90700  0.26856  1.0000
  S   S166      1.0  0.42159  0.94485  0.21220  1.0000
  Fe  Fe84      1.0  0.42725  0.90660  0.30321  1.0000
  S   S167      1.0  0.42503  0.89756  0.36450  1.0000
  Fe  Fe85      1.0  0.42413  0.89748  0.23131  1.0000
  S   S168      1.0  0.41935  0.87902  0.20994  1.0000
  S   S169      1.0  0.44022  0.92619  0.27125  1.0000
  S   S170      1.0  0.43721  0.91644  0.19457  1.0000
  C   C465      1.0  0.31583  0.75543  0.10235  1.0000
  C   C466      1.0  0.49298  0.86238  0.77750  1.0000
  Fe  Fe86      1.0  0.42836  0.92893  0.62739  1.0000
  S   S171      1.0  0.44117  0.92699  0.57583  1.0000
  Fe  Fe87      1.0  0.41236  0.90004  0.64463  1.0000
  S   S172      1.0  0.42430  0.89609  0.59455  1.0000
  S   S173      1.0  0.39536  0.88604  0.68964  1.0000
  Fe  Fe88      1.0  0.44130  0.90783  0.61038  1.0000
  S   S174      1.0  0.46081  0.90333  0.60663  1.0000
  Fe  Fe89      1.0  0.42313  0.91561  0.56393  1.0000
  S   S175      1.0  0.41949  0.92141  0.50644  1.0000
  S   S176      1.0  0.42959  0.91029  0.66281  1.0000
  S   S177      1.0  0.41006  0.91898  0.61311  1.0000
  Fe  Fe90      1.0  0.37292  0.82902  0.13195  1.0000
  S   S178      1.0  0.39042  0.82568  0.09650  1.0000
  S   S179      1.0  0.37351  0.84777  0.15169  1.0000
  Fe  Fe91      1.0  0.35488  0.80307  0.12745  1.0000
  S   S180      1.0  0.37134  0.79785  0.09286  1.0000
  S   S181      1.0  0.33358  0.79139  0.14206  1.0000
  Fe  Fe92      1.0  0.38314  0.80512  0.13088  1.0000
  S   S182      1.0  0.39748  0.79492  0.15135  1.0000
  Fe  Fe93      1.0  0.37692  0.81880  0.06213  1.0000
  S   S183      1.0  0.38356  0.82466  0.00018  1.0000
  S   S184      1.0  0.36625  0.80870  0.16866  1.0000
  S   S185      1.0  0.35988  0.82378  0.09432  1.0000
  C   C467      1.0  0.39875  0.83241  0.26936  1.0000
  Fe  Fe94      1.0  0.34654  0.80549  0.85878  1.0000
  S   S186      1.0  0.33542  0.80630  0.81439  1.0000
  S   S187      1.0  0.34020  0.81063  0.91298  1.0000
  Fe  Fe95      1.0  0.36475  0.79156  0.82180  1.0000
  S   S188      1.0  0.35476  0.79056  0.77548  1.0000
  S   S189      1.0  0.38215  0.78333  0.82533  1.0000
  Fe  Fe96      1.0  0.35537  0.81165  0.77463  1.0000
  S   S190      1.0  0.36490  0.82634  0.71902  1.0000
  Fe  Fe97      1.0  0.33570  0.78525  0.81871  1.0000
  S   S191      1.0  0.31671  0.76879  0.83611  1.0000
  S   S192      1.0  0.36619  0.81266  0.81895  1.0000
  S   S193      1.0  0.34598  0.78445  0.86499  1.0000
  Fe  Fe98      1.0  0.45342  0.83284  0.20221  1.0000
  S   S194      1.0  0.46600  0.85255  0.17043  1.0000
  S   S195      1.0  0.43231  0.83073  0.22765  1.0000
  Fe  Fe99      1.0  0.47410  0.81894  0.18205  1.0000
  S   S196      1.0  0.48868  0.83764  0.14878  1.0000
  S   S197      1.0  0.47938  0.79947  0.18711  1.0000
  Fe  Fe100     1.0  0.48181  0.84672  0.19524  1.0000
  C   C468      1.0  0.48810  0.97707  0.63006  1.0000
  Fe  Fe101     1.0  0.47197  0.84228  0.12682  1.0000
  S   S198      1.0  0.47305  0.85146  0.06761  1.0000
  S   S199      1.0  0.46864  0.82750  0.23079  1.0000
  S   S200      1.0  0.45796  0.82309  0.15643  1.0000
  Fe  Fe102     1.0  0.46779  0.81592  0.90999  1.0000
  S   S201      1.0  0.45160  0.79978  0.90650  1.0000
  S   S202      1.0  0.47245  0.81175  0.96562  1.0000
  Fe  Fe103     1.0  0.47286  0.82992  0.82856  1.0000
  S   S203      1.0  0.45726  0.81427  0.81880  1.0000
  C   C469      1.0  0.46067  0.96153  0.57339  1.0000
  Fe  Fe104     1.0  0.44540  0.81554  0.87261  1.0000
  S   S204      1.0  0.42487  0.81777  0.88333  1.0000
  Fe  Fe105     1.0  0.46489  0.79970  0.85370  1.0000
  S   S205      1.0  0.47001  0.78071  0.84813  1.0000
  S   S206      1.0  0.46040  0.83187  0.88076  1.0000
  S   S207      1.0  0.48160  0.81521  0.85864  1.0000
  H   H459      1.0  0.31735  0.78399  0.92467  1.0000
  C   C470      1.0  0.45959  0.76667  0.84225  1.0000
  C   C471      1.0  0.44691  0.76632  0.83836  1.0000
  H   H460      1.0  0.28843  0.75196  0.99996  1.0000
  S   S208      1.0  0.48261  0.84717  0.77861  1.0000
  H   H461      1.0  0.47403  0.75570  0.84456  1.0000
  N   N40       1.0  0.47674  0.89056  0.25053  1.0000
  H   H462      1.0  0.44324  0.77485  0.83879  1.0000
  C   C472      1.0  0.47313  0.77800  0.95676  1.0000
  C   C473      1.0  0.44498  0.98523  0.07485  1.0000
  C   C474      1.0  0.41157  0.75312  0.16763  1.0000
  C   C475      1.0  0.47343  0.84062  0.03873  1.0000
  C   C476      1.0  0.47357  0.84486  0.00139  1.0000
  C   C477      1.0  0.47311  0.83608  0.97856  1.0000
  C   C478      1.0  0.47280  0.82310  0.99296  1.0000
  C   C479      1.0  0.47286  0.81894  0.03012  1.0000
  C   C480      1.0  0.47312  0.82765  0.05299  1.0000
  H   H463      1.0  0.47392  0.85492  0.99020  1.0000
  H   H464      1.0  0.47320  0.83936  0.94981  1.0000
  H   H465      1.0  0.47878  0.93278  0.40406  1.0000
  C   C481      1.0  0.48939  0.97003  0.16784  1.0000
  C   C482      1.0  0.47015  0.78626  0.17372  1.0000
  C   C483      1.0  0.45881  0.78701  0.16165  1.0000
  C   C484      1.0  0.45163  0.77634  0.15168  1.0000
  H   H466      1.0  0.45550  0.79577  0.16022  1.0000
  H   H467      1.0  0.44288  0.77710  0.14247  1.0000
  C   C485      1.0  0.39406  0.79261  0.84208  1.0000
  C   C486      1.0  0.39149  0.80285  0.85707  1.0000
  C   C487      1.0  0.40105  0.81041  0.86970  1.0000
  C   C488      1.0  0.41323  0.80774  0.86781  1.0000
  C   C489      1.0  0.41583  0.79735  0.85347  1.0000
  C   C490      1.0  0.40621  0.78976  0.84061  1.0000
  H   H468      1.0  0.38200  0.80471  0.86019  1.0000
  H   H469      1.0  0.39904  0.81843  0.88079  1.0000
  H   H470      1.0  0.42524  0.79521  0.85209  1.0000
  H   H471      1.0  0.40822  0.78176  0.82932  1.0000
  C   C491      1.0  0.36027  0.85658  0.07477  1.0000
  H   H472      1.0  0.31446  0.77794  0.04124  1.0000
  H   H473      1.0  0.49351  0.90891  0.29716  1.0000
  C   C492      1.0  0.30845  0.75824  0.81248  1.0000
  C   C493      1.0  0.31310  0.75892  0.77506  1.0000
  H   H474      1.0  0.42151  0.75578  0.17069  1.0000
  H   H475      1.0  0.48838  0.88958  0.19939  1.0000
  C   C494      1.0  0.46052  0.97557  0.04315  1.0000
  H   H476      1.0  0.32204  0.76607  0.75948  1.0000
  C   C495      1.0  0.48606  0.98049  0.18009  1.0000
  C   C496      1.0  0.40682  0.80449  0.17418  1.0000
  C   C497      1.0  0.40439  0.81634  0.17850  1.0000
  C   C498      1.0  0.41223  0.82429  0.19506  1.0000
  C   C499      1.0  0.42244  0.82040  0.20784  1.0000
  C   C500      1.0  0.42486  0.80851  0.20382  1.0000
  C   C501      1.0  0.41705  0.80054  0.18703  1.0000
  H   H477      1.0  0.39649  0.81944  0.16892  1.0000
  H   H478      1.0  0.41054  0.83358  0.19738  1.0000
  H   H479      1.0  0.43275  0.80543  0.21368  1.0000
  H   H480      1.0  0.41907  0.79144  0.18371  1.0000
  C   C502      1.0  0.37138  0.82107  0.97620  1.0000
  C   C503      1.0  0.35813  0.81720  0.99440  1.0000
  C   C504      1.0  0.34862  0.81420  0.97463  1.0000
  C   C505      1.0  0.35232  0.81470  0.93687  1.0000
  C   C506      1.0  0.36558  0.81849  0.91883  1.0000
  C   C507      1.0  0.37505  0.82187  0.93836  1.0000
  H   H481      1.0  0.35519  0.81652  0.02365  1.0000
  H   H482      1.0  0.33838  0.81138  0.98872  1.0000
  H   H483      1.0  0.36852  0.81908  0.88969  1.0000
  H   H484      1.0  0.38527  0.82504  0.92417  1.0000
  H   H485      1.0  0.24792  0.75023  0.77956  1.0000
  C   C508      1.0  0.31347  0.77187  0.13685  1.0000
  C   C509      1.0  0.32701  0.77771  0.12564  1.0000
  C   C510      1.0  0.33489  0.77249  0.10205  1.0000
  C   C511      1.0  0.32933  0.76141  0.09056  1.0000
  H   H486      1.0  0.36956  0.83219  0.24785  1.0000
  H   H487      1.0  0.34530  0.77685  0.09323  1.0000
  C   C512      1.0  0.35491  0.84826  0.02363  1.0000
  C   C513      1.0  0.38832  0.86902  0.69852  1.0000
  C   C514      1.0  0.39041  0.86198  0.67172  1.0000
  C   C515      1.0  0.38324  0.84889  0.67850  1.0000
  C   C516      1.0  0.37420  0.84260  0.71244  1.0000
  C   C517      1.0  0.37253  0.84949  0.73973  1.0000
  C   C518      1.0  0.37943  0.86266  0.73260  1.0000
  H   H488      1.0  0.39724  0.86673  0.64542  1.0000
  H   H489      1.0  0.38466  0.84362  0.65727  1.0000
  H   H490      1.0  0.36558  0.84482  0.76591  1.0000
  H   H491      1.0  0.37768  0.86802  0.75347  1.0000
  N   N41       1.0  0.37732  0.85480  0.02668  1.0000
  C   C519      1.0  0.36576  0.87988  0.65982  1.0000
  H   H492      1.0  0.37324  0.86470  0.61663  1.0000
  C   C520      1.0  0.46760  0.98795  0.02200  1.0000
  H   H493      1.0  0.34855  0.77514  0.95210  1.0000
  H   H494      1.0  0.47022  0.75513  0.16712  1.0000
  C   C521      1.0  0.44896  0.98581  0.15873  1.0000
  C   C522      1.0  0.49373  0.87096  0.30800  1.0000
  H   H495      1.0  0.42923  0.75476  0.83039  1.0000
  C   C523      1.0  0.48688  0.93328  0.64822  1.0000
  H   H496      1.0  0.46824  0.98647  0.61376  1.0000
  C   C524      1.0  0.48427  0.91561  0.61725  1.0000
  C   C525      1.0  0.47102  0.91517  0.62111  1.0000
  C   C526      1.0  0.46587  0.92408  0.63733  1.0000
  C   C527      1.0  0.47375  0.93297  0.65122  1.0000
  C   C528      1.0  0.48200  0.92324  0.45564  1.0000
  H   H497      1.0  0.48840  0.90888  0.60411  1.0000
  H   H498      1.0  0.45577  0.92407  0.63978  1.0000
  H   H499      1.0  0.46969  0.93961  0.66456  1.0000
  C   C529      1.0  0.40705  0.87153  0.18993  1.0000
  C   C530      1.0  0.40843  0.86042  0.17714  1.0000
  C   C531      1.0  0.39841  0.85325  0.16451  1.0000
  C   C532      1.0  0.38681  0.85705  0.16473  1.0000
  C   C533      1.0  0.38555  0.86835  0.17663  1.0000
  C   C534      1.0  0.39560  0.87556  0.18917  1.0000
  H   H500      1.0  0.41724  0.85722  0.17769  1.0000
  H   H501      1.0  0.39957  0.84466  0.15515  1.0000
  H   H502      1.0  0.37664  0.87143  0.17681  1.0000
  H   H503      1.0  0.39436  0.88405  0.19902  1.0000
  C   C535      1.0  0.42414  0.90469  0.40308  1.0000
  C   C536      1.0  0.42484  0.89734  0.43713  1.0000
  C   C537      1.0  0.42371  0.90236  0.46885  1.0000
  C   C538      1.0  0.42169  0.91478  0.46700  1.0000
  C   C539      1.0  0.42111  0.92217  0.43293  1.0000
  C   C540      1.0  0.42241  0.91721  0.40110  1.0000
  H   H504      1.0  0.42615  0.88763  0.43901  1.0000
  H   H505      1.0  0.42416  0.89652  0.49478  1.0000
  H   H506      1.0  0.41951  0.93177  0.43115  1.0000
  H   H507      1.0  0.42178  0.92296  0.37524  1.0000
  C   C541      1.0  0.47531  0.88745  0.77307  1.0000
  H   H508      1.0  0.38606  0.76645  0.16079  1.0000
  H   H509      1.0  0.45462  0.92784  0.42888  1.0000
  H   H510      1.0  0.49249  0.92555  0.44494  1.0000
  H   H511      1.0  0.46591  0.86686  0.78605  1.0000
  C   C542      1.0  0.47162  0.77791  0.99416  1.0000
  H   H512      1.0  0.46355  0.94589  0.22154  1.0000
  H   H513      1.0  0.49457  0.90840  0.76517  1.0000
  H   H514      1.0  0.45876  0.90846  0.53356  1.0000
  H   H515      1.0  0.48331  0.85642  0.28470  1.0000
  H   H516      1.0  0.39323  0.85498  0.98300  1.0000
  N   N42       1.0  0.47640  0.91628  0.49126  1.0000
  H   H517      1.0  0.36460  0.86948  0.67307  1.0000
  C   C543      1.0  0.49285  0.94147  0.28529  1.0000
  C   C544      1.0  0.47953  0.93536  0.29798  1.0000
  C   C545      1.0  0.47308  0.92840  0.27647  1.0000
  C   C546      1.0  0.47983  0.92790  0.24178  1.0000
  C   C547      1.0  0.49323  0.93381  0.22942  1.0000
  C   C548      1.0  0.45457  0.96386  0.25030  1.0000
  H   H518      1.0  0.47425  0.93573  0.32479  1.0000
  H   H519      1.0  0.46298  0.92313  0.28727  1.0000
  C   C549      1.0  0.48550  0.90223  0.29169  1.0000
  N   N43       1.0  0.47898  0.97221  0.60885  1.0000
  N   N44       1.0  0.38201  0.79070  0.96835  1.0000
  C   C550      1.0  0.37074  0.79066  0.99208  1.0000
  C   C551      1.0  0.38149  0.78484  0.93972  1.0000
  C   C552      1.0  0.35854  0.78492  0.98693  1.0000
  C   C553      1.0  0.36947  0.77917  0.93338  1.0000
  C   C554      1.0  0.35793  0.77930  0.95707  1.0000
  C   C555      1.0  0.39466  0.79792  0.97180  1.0000
  H   H520      1.0  0.37113  0.79542  0.01457  1.0000
  H   H521      1.0  0.39041  0.78478  0.92108  1.0000
  H   H522      1.0  0.34965  0.78516  0.00546  1.0000
  C   C556      1.0  0.49224  0.92479  0.63038  1.0000
  H   H523      1.0  0.47959  0.88653  0.79672  1.0000
  H   H524      1.0  0.39717  0.80806  0.95464  1.0000
  H   H525      1.0  0.40260  0.79339  0.96226  1.0000
  N   N45       1.0  0.30226  0.76771  0.95930  1.0000
  H   H526      1.0  0.49270  0.90887  0.49937  1.0000
  C   C557      1.0  0.29643  0.76055  0.99462  1.0000
  H   H527      1.0  0.48035  0.91463  0.77561  1.0000
  H   H528      1.0  0.47982  0.77384  0.06130  1.0000
  C   C558      1.0  0.29793  0.76354  0.92824  1.0000
  H   H529      1.0  0.43619  0.98406  0.09591  1.0000
  H   H530      1.0  0.48612  0.98574  0.63939  1.0000
  H   H531      1.0  0.47142  0.94699  0.56970  1.0000
  C   C559      1.0  0.47087  0.95588  0.57834  1.0000
  H   H532      1.0  0.26968  0.74943  0.74518  1.0000
  C   C560      1.0  0.46366  0.88818  0.31131  1.0000
  C   C561      1.0  0.35093  0.85164  0.05679  1.0000
  C   C562      1.0  0.48616  0.91079  0.75496  1.0000
  H   H533      1.0  0.48851  0.80475  0.25158  1.0000
  S   S209      1.0  0.44605  0.75166  0.14079  1.0000
  C   C563      1.0  0.47518  0.76703  0.94484  1.0000
  H   H534      1.0  0.36915  0.77495  0.90976  1.0000
  H   H535      1.0  0.47415  0.90974  0.70006  1.0000
  C   C564      1.0  0.45899  0.96905  0.70154  1.0000
  C   C565      1.0  0.43619  0.98386  0.17916  1.0000
  C   C566      1.0  0.46981  0.95566  0.21005  1.0000
  H   H536      1.0  0.49150  0.96112  0.72150  1.0000
  H   H537      1.0  0.47016  0.78650  0.00320  1.0000
  C   C567      1.0  0.47453  0.97830  0.20714  1.0000
  H   H538      1.0  0.28748  0.75794  0.93653  1.0000
  H   H539      1.0  0.41825  0.97004  0.21062  1.0000
  C   C568      1.0  0.36823  0.84991  0.00890  1.0000
  H   H540      1.0  0.45155  0.98570  0.68629  1.0000
  C   C569      1.0  0.30066  0.76420  0.02451  1.0000
  H   H541      1.0  0.39839  0.89535  0.52617  1.0000
  C   C570      1.0  0.39182  0.89212  0.55350  1.0000
  C   C571      1.0  0.37766  0.87500  0.60454  1.0000
  C   C572      1.0  0.47079  0.76753  0.05788  1.0000
  H   H542      1.0  0.44356  0.96461  0.08662  1.0000
  C   C573      1.0  0.45363  0.97490  0.15423  1.0000
  H   H543      1.0  0.29595  0.75851  0.05247  1.0000
  H   H544      1.0  0.37121  0.84702  0.98349  1.0000
  N   N46       1.0  0.39988  0.81689  0.75426  1.0000
  C   C574      1.0  0.39689  0.82792  0.76166  1.0000
  C   C575      1.0  0.41082  0.81366  0.76202  1.0000
  C   C576      1.0  0.40460  0.83574  0.77878  1.0000
  C   C577      1.0  0.41886  0.82136  0.77865  1.0000
  C   C578      1.0  0.41561  0.83235  0.78757  1.0000
  C   C579      1.0  0.39170  0.80878  0.73639  1.0000
  H   H545      1.0  0.38835  0.83060  0.75494  1.0000
  H   H546      1.0  0.41317  0.80489  0.75629  1.0000
  H   H547      1.0  0.40196  0.84428  0.78544  1.0000
  H   H548      1.0  0.42732  0.81858  0.78579  1.0000
  H   H549      1.0  0.42150  0.83808  0.80182  1.0000
  H   H550      1.0  0.39079  0.79828  0.74766  1.0000
  H   H551      1.0  0.38161  0.81004  0.74141  1.0000
  H   H552      1.0  0.39591  0.81144  0.70616  1.0000
  N   N47       1.0  0.40213  0.84489  0.27320  1.0000
  C   C580      1.0  0.48120  0.95753  0.18278  1.0000
  C   C581      1.0  0.43901  0.75493  0.83347  1.0000
  H   H553      1.0  0.38065  0.86157  0.07400  1.0000
  H   H554      1.0  0.30728  0.77583  0.15506  1.0000
  H   H555      1.0  0.41850  0.84276  0.29537  1.0000
  C   C582      1.0  0.46469  0.88942  0.71203  1.0000
  C   C583      1.0  0.44911  0.97417  0.06970  1.0000
  H   H556      1.0  0.48747  0.86694  0.33548  1.0000
  H   H557      1.0  0.47284  0.78659  0.93706  1.0000
  H   H558      1.0  0.49174  0.96068  0.78674  1.0000
  H   H559      1.0  0.45725  0.87865  0.27099  1.0000
  H   H560      1.0  0.30397  0.75735  0.91747  1.0000
  H   H561      1.0  0.49236  0.99023  0.16850  1.0000
  H   H562      1.0  0.47488  0.74800  0.02715  1.0000
  H   H563      1.0  0.48659  0.81479  0.30529  1.0000
  C   C584      1.0  0.46528  0.88517  0.27684  1.0000
  C   C585      1.0  0.39167  0.75921  0.16197  1.0000
  H   H564      1.0  0.49445  0.85749  0.83378  1.0000
  C   C586      1.0  0.47391  0.89668  0.31879  1.0000
  C   C587      1.0  0.31257  0.77838  0.95271  1.0000
  H   H565      1.0  0.40873  0.77226  0.16790  1.0000
  H   H566      1.0  0.48295  0.77397  0.18477  1.0000
  H   H567      1.0  0.35609  0.88127  0.65689  1.0000
  H   H568      1.0  0.38831  0.87173  0.55443  1.0000
  C   C588      1.0  0.30789  0.76081  0.12523  1.0000
  H   H569      1.0  0.40546  0.82629  0.27162  1.0000
  H   H570      1.0  0.46379  0.95064  0.71366  1.0000
  H   H571      1.0  0.36929  0.88559  0.67896  1.0000
  H   H572      1.0  0.29295  0.74836  0.86098  1.0000
  C   C589      1.0  0.43267  0.96034  0.19141  1.0000
  C   C590      1.0  0.37851  0.83560  0.25612  1.0000
  C   C591      1.0  0.39121  0.85600  0.01192  1.0000
  H   H573      1.0  0.44483  0.91596  0.49433  1.0000
  C   C592      1.0  0.45994  0.97280  0.58529  1.0000
  C   C593      1.0  0.38615  0.87890  0.56935  1.0000
  H   H574      1.0  0.37865  0.90416  0.62352  1.0000
  H   H575      1.0  0.44689  0.95541  0.24912  1.0000
  H   H576      1.0  0.39337  0.91155  0.56069  1.0000
  H   H577      1.0  0.45180  0.97700  0.58257  1.0000
  H   H578      1.0  0.39429  0.84817  0.02877  1.0000
  C   C594      1.0  0.31107  0.77511  0.01814  1.0000
  H   H579      1.0  0.45033  0.97238  0.24645  1.0000
  C   C595      1.0  0.48008  0.96147  0.59589  1.0000
  C   C596      1.0  0.31707  0.78227  0.98203  1.0000
  H   H580      1.0  0.45671  0.96201  0.27793  1.0000
  C   C597      1.0  0.44873  0.94954  0.68346  1.0000
  H   H581      1.0  0.47272  0.80893  0.04131  1.0000
  C   C598      1.0  0.46080  0.92470  0.44635  1.0000
  H   H582      1.0  0.49032  0.91863  0.72912  1.0000
  C   C599      1.0  0.47245  0.90036  0.71883  1.0000
  H   H583      1.0  0.48906  0.92027  0.52620  1.0000
  H   H584      1.0  0.46062  0.89037  0.68793  1.0000
  H   H585      1.0  0.47318  0.82432  0.08157  1.0000
  C   C600      1.0  0.46923  0.97804  0.60316  1.0000
  N   N48       1.0  0.37509  0.88402  0.62365  1.0000
  N   N49       1.0  0.43903  0.83941  0.08870  1.0000
  C   C601      1.0  0.43506  0.82615  0.10069  1.0000
  C   C602      1.0  0.44250  0.84520  0.05177  1.0000
  C   C603      1.0  0.43488  0.81830  0.07554  1.0000
  C   C604      1.0  0.44233  0.83765  0.02579  1.0000
  C   C605      1.0  0.43866  0.82412  0.03781  1.0000
  C   C606      1.0  0.43907  0.84751  0.11545  1.0000
  H   H586      1.0  0.43223  0.82157  0.12983  1.0000
  H   H587      1.0  0.44590  0.85571  0.04225  1.0000
  H   H588      1.0  0.43193  0.80778  0.08536  1.0000
  H   H589      1.0  0.44553  0.84226  0.99651  1.0000
  H   H590      1.0  0.43894  0.81817  0.01788  1.0000
  H   H591      1.0  0.43942  0.84200  0.14292  1.0000
  H   H592      1.0  0.44788  0.85591  0.10622  1.0000
  H   H593      1.0  0.43014  0.85113  0.11882  1.0000
  H   H594      1.0  0.47191  0.98654  0.21603  1.0000
  S   S210      1.0  0.49612  0.94422  0.66772  1.0000
  H   H595      1.0  0.44900  0.95373  0.16700  1.0000
  C   C607      1.0  0.45770  0.95591  0.70087  1.0000
  H   H596      1.0  0.45311  0.95702  0.56128  1.0000
  C   C608      1.0  0.44182  0.96924  0.66826  1.0000
  H   H597      1.0  0.34774  0.84413  0.00979  1.0000
  C   C609      1.0  0.37349  0.85806  0.05928  1.0000
  C   C610      1.0  0.40442  0.76249  0.16608  1.0000
  C   C611      1.0  0.47424  0.75643  0.00759  1.0000
  C   C612      1.0  0.42812  0.97129  0.19508  1.0000
  H   H598      1.0  0.47339  0.87726  0.21663  1.0000
  C   C613      1.0  0.49133  0.86498  0.27922  1.0000
  H   H599      1.0  0.47321  0.89387  0.19716  1.0000
  H   H600      1.0  0.39444  0.79840  0.00081  1.0000
  N   N50       1.0  0.47790  0.89924  0.74853  1.0000
  H   H601      1.0  0.46389  0.96709  0.03902  1.0000
  N   N51       1.0  0.46652  0.96601  0.22154  1.0000
  H   H602      1.0  0.37550  0.85456  0.25712  1.0000
  H   H603      1.0  0.46238  0.77144  0.06775  1.0000
  H   H604      1.0  0.45445  0.88409  0.33187  1.0000
  C   C614      1.0  0.47797  0.88770  0.21411  1.0000
  H   H605      1.0  0.32513  0.79081  0.97672  1.0000
  H   H606      1.0  0.43567  0.97447  0.65560  1.0000
  C   C615      1.0  0.47421  0.77468  0.17548  1.0000
  H   H607      1.0  0.39722  0.86562  0.01236  1.0000
  C   C616      1.0  0.44548  0.96214  0.17070  1.0000
  C   C617      1.0  0.45525  0.91794  0.48302  1.0000
  C   C618      1.0  0.46232  0.87729  0.73631  1.0000
  H   H608      1.0  0.29750  0.75634  0.13454  1.0000
  C   C619      1.0  0.45563  0.76475  0.15366  1.0000
  C   C620      1.0  0.45083  0.97565  0.68561  1.0000
  H   H609      1.0  0.46898  0.75767  0.07616  1.0000
  S   S211      1.0  0.43055  0.94900  0.64048  1.0000
  C   C621      1.0  0.38184  0.84816  0.26130  1.0000
  C   C622      1.0  0.46754  0.87629  0.76724  1.0000
  C   C623      1.0  0.38899  0.90124  0.57295  1.0000
  H   H610      1.0  0.46341  0.97628  0.13792  1.0000
  H   H611      1.0  0.44783  0.93944  0.68318  1.0000
  H   H612      1.0  0.39661  0.86272  0.27175  1.0000
  C   C624      1.0  0.39379  0.85270  0.26973  1.0000
  H   H613      1.0  0.45651  0.86866  0.73111  1.0000
  S   S212      1.0  0.47137  0.97672  0.72113  1.0000
  C   C625      1.0  0.46701  0.76398  0.16545  1.0000
  H   H614      1.0  0.47905  0.90375  0.53856  1.0000
  C   C626      1.0  0.38694  0.82760  0.26054  1.0000
  H   H615      1.0  0.38457  0.81788  0.25597  1.0000
  H   H616      1.0  0.42226  0.85352  0.25013  1.0000
  C   C627      1.0  0.41524  0.85022  0.27767  1.0000
  H   H617      1.0  0.47644  0.76707  0.91578  1.0000
  H   H618      1.0  0.41560  0.85872  0.29015  1.0000
  C   C628      1.0  0.44092  0.95623  0.66633  1.0000
  C   C629      1.0  0.49335  0.82011  0.27919  1.0000
  H   H619      1.0  0.29889  0.77205  0.90530  1.0000
  H   H620      1.0  0.47285  0.89908  0.34539  1.0000
  C   C630      1.0  0.46422  0.75550  0.84167  1.0000
  H   H621      1.0  0.35730  0.85885  0.10120  1.0000
  H   H622      1.0  0.48789  0.95695  0.60018  1.0000
  H   H623      1.0  0.43242  0.99215  0.18265  1.0000
  C   C631      1.0  0.46322  0.91376  0.50519  1.0000
  H   H624      1.0  0.34062  0.85014  0.06899  1.0000
  C   C632      1.0  0.48671  0.89915  0.25737  1.0000
  H   H625      1.0  0.49348  0.87031  0.72064  1.0000
  C   C633      1.0  0.49683  0.87221  0.74458  1.0000
  C   C634      1.0  0.29677  0.74886  0.83218  1.0000
  S   S213      1.0  0.49726  0.86275  0.20622  1.0000
  C   C635      1.0  0.47575  0.75616  0.97040  1.0000
  H   H626      1.0  0.48700  0.96939  0.65532  1.0000
  H   H627      1.0  0.49566  0.90373  0.23621  1.0000
  C   C636      1.0  0.49443  0.81447  0.24911  1.0000
  C   C637      1.0  0.30613  0.75037  0.75764  1.0000
  H   H628      1.0  0.47651  0.98919  0.00127  1.0000
  H   H629      1.0  0.30980  0.75106  0.72863  1.0000
  Fe  Fe106     1.0  0.47914  0.99733  0.72804  1.0000
  C   C638      1.0  0.49733  0.86497  0.80827  1.0000
  N   N52       1.0  0.45212  0.99736  0.05448  1.0000
  C   C639      1.0  0.59563  0.22299  0.91229  1.0000
  H   H630      1.0  0.62507  0.12862  0.56675  1.0000
  H   H631      1.0  0.55840  0.10352  0.67681  1.0000
  C   C640      1.0  0.59126  0.04252  0.97683  1.0000
  Fe  Fe107     1.0  0.57834  0.03087  0.89427  1.0000
  C   C641      1.0  0.63305  0.05408  0.92153  1.0000
  C   C642      1.0  0.70171  0.23761  0.97630  1.0000
  Fe  Fe108     1.0  0.59973  0.04031  0.82353  1.0000
  S   S214      1.0  0.58654  0.05036  0.85353  1.0000
  S   S215      1.0  0.62150  0.04938  0.80222  1.0000
  Fe  Fe109     1.0  0.57293  0.04248  0.82049  1.0000
  S   S216      1.0  0.56008  0.05250  0.79225  1.0000
  S   S217      1.0  0.58676  0.03381  0.78735  1.0000
  Fe  Fe110     1.0  0.57032  0.03403  0.19317  1.0000
  S   S218      1.0  0.54884  0.03246  0.20541  1.0000
  Fe  Fe111     1.0  0.59580  0.05005  0.20364  1.0000
  S   S219      1.0  0.60052  0.06804  0.22669  1.0000
  S   S220      1.0  0.58466  0.05244  0.15951  1.0000
  Fe  Fe112     1.0  0.53967  0.10643  0.20313  1.0000
  S   S221      1.0  0.55753  0.12160  0.16638  1.0000
  S   S222      1.0  0.52611  0.08820  0.19467  1.0000
  Fe  Fe113     1.0  0.54227  0.11787  0.27136  1.0000
  S   S223      1.0  0.55997  0.13390  0.24033  1.0000
  S   S224      1.0  0.53269  0.11342  0.33266  1.0000
  Fe  Fe114     1.0  0.54999  0.13621  0.19378  1.0000
  S   S225      1.0  0.54839  0.15613  0.16499  1.0000
  Fe  Fe115     1.0  0.56648  0.11854  0.21508  1.0000
  S   S226      1.0  0.58658  0.11553  0.21200  1.0000
  S   S227      1.0  0.53134  0.12130  0.22718  1.0000
  S   S228      1.0  0.54953  0.10226  0.24961  1.0000
  Fe  Fe116     1.0  0.64753  0.12048  0.29649  1.0000
  S   S229      1.0  0.63300  0.12245  0.34460  1.0000
  S   S230      1.0  0.64741  0.10246  0.27320  1.0000
  Fe  Fe117     1.0  0.66458  0.14873  0.28448  1.0000
  S   S231      1.0  0.65121  0.15279  0.33154  1.0000
  S   S232      1.0  0.68330  0.16207  0.24456  1.0000
  Fe  Fe118     1.0  0.65021  0.13260  0.36325  1.0000
  S   S233      1.0  0.65185  0.12587  0.42272  1.0000
  Fe  Fe119     1.0  0.63520  0.14231  0.30937  1.0000
  S   S234      1.0  0.61794  0.14963  0.29932  1.0000
  S   S235      1.0  0.66473  0.12913  0.31745  1.0000
  S   S236      1.0  0.64859  0.13980  0.26011  1.0000
  Fe  Fe120     1.0  0.53788  0.11618  0.59359  1.0000
  S   S237      1.0  0.55039  0.10865  0.55275  1.0000
  S   S238      1.0  0.52048  0.10253  0.63750  1.0000
  Fe  Fe121     1.0  0.55817  0.14285  0.57799  1.0000
  S   S239      1.0  0.57169  0.13672  0.53613  1.0000
  S   S240      1.0  0.56782  0.16340  0.58242  1.0000
  Fe  Fe122     1.0  0.55436  0.12864  0.51523  1.0000
  S   S241      1.0  0.55984  0.13416  0.45209  1.0000
  Fe  Fe123     1.0  0.56645  0.11760  0.57664  1.0000
  S   S242      1.0  0.58165  0.10779  0.59198  1.0000
  S   S243      1.0  0.54082  0.13592  0.55472  1.0000
  S   S244      1.0  0.55385  0.12392  0.61984  1.0000
  Fe  Fe124     1.0  0.64975  0.12507  0.68784  1.0000
  S   S245      1.0  0.63636  0.12606  0.64952  1.0000
  S   S246      1.0  0.65463  0.10589  0.70679  1.0000
  Fe  Fe125     1.0  0.65428  0.15380  0.69028  1.0000
  S   S247      1.0  0.64100  0.15666  0.65227  1.0000
  S   S248      1.0  0.65943  0.17198  0.71273  1.0000
  Fe  Fe126     1.0  0.62790  0.13765  0.68593  1.0000
  S   S249      1.0  0.60657  0.13627  0.70080  1.0000
  Fe  Fe127     1.0  0.65061  0.14500  0.61806  1.0000
  S   S250      1.0  0.65354  0.15355  0.55630  1.0000
  S   S251      1.0  0.64011  0.13534  0.72673  1.0000
  S   S252      1.0  0.66509  0.14342  0.65346  1.0000
  Fe  Fe128     1.0  0.60157  0.22787  0.07176  1.0000
  H   H632      1.0  0.56513  0.06616  0.71546  1.0000
  S   S253      1.0  0.58077  0.21559  0.09874  1.0000
  S   S254      1.0  0.64368  0.22999  0.10906  1.0000
  S   S255      1.0  0.61792  0.21897  0.05463  1.0000
  S   S256      1.0  0.57877  0.18972  0.71459  1.0000
  S   S257      1.0  0.60308  0.20209  0.76701  1.0000
  Fe  Fe129     1.0  0.59503  0.03923  0.13407  1.0000
  C   C643      1.0  0.59781  0.04674  0.00278  1.0000
  S   S258      1.0  0.60267  0.04551  0.07144  1.0000
  H   H633      1.0  0.66441  0.19624  0.64127  1.0000
  H   H634      1.0  0.50343  0.05650  0.70152  1.0000
  Fe  Fe130     1.0  0.63001  0.23479  0.07353  1.0000
  C   C644      1.0  0.51234  0.07651  0.67181  1.0000
  C   C645      1.0  0.52384  0.02956  0.87229  1.0000
  C   C646      1.0  0.67301  0.23464  0.74286  1.0000
  C   C647      1.0  0.66347  0.22566  0.73390  1.0000
  H   H635      1.0  0.68199  0.23228  0.74659  1.0000
  H   H636      1.0  0.66502  0.21634  0.73130  1.0000
  H   H637      1.0  0.68564  0.24606  0.13633  1.0000
  H   H638      1.0  0.65232  0.20163  0.84967  1.0000
  C   C648      1.0  0.71322  0.22600  0.93868  1.0000
  N   N53       1.0  0.52791  0.01740  0.87831  1.0000
  N   N54       1.0  0.55155  0.04518  0.05149  1.0000
  H   H639      1.0  0.66386  0.23086  0.14784  1.0000
  S   S259      1.0  0.57153  0.02631  0.95711  1.0000
  Fe  Fe131     1.0  0.72743  0.23919  0.06903  1.0000
  S   S260      1.0  0.73012  0.22846  0.02417  1.0000
  H   H640      1.0  0.60186  0.22918  0.95806  1.0000
  H   H641      1.0  0.58560  0.22321  0.92211  1.0000
  C   C649      1.0  0.67188  0.17987  0.73167  1.0000
  C   C650      1.0  0.68369  0.17642  0.73072  1.0000
  Fe  Fe132     1.0  0.62247  0.23384  0.00089  1.0000
  C   C651      1.0  0.68008  0.19804  0.75809  1.0000
  C   C652      1.0  0.67011  0.19064  0.74578  1.0000
  H   H642      1.0  0.68523  0.16818  0.71998  1.0000
  C   C653      1.0  0.61275  0.10407  0.15843  1.0000
  H   H643      1.0  0.66098  0.19333  0.74686  1.0000
  C   C654      1.0  0.57102  0.17031  0.61975  1.0000
  C   C655      1.0  0.57945  0.18289  0.61182  1.0000
  C   C656      1.0  0.58210  0.18894  0.64030  1.0000
  C   C657      1.0  0.57609  0.18259  0.67719  1.0000
  C   C658      1.0  0.56770  0.17000  0.68510  1.0000
  C   C659      1.0  0.56530  0.16383  0.65668  1.0000
  H   H644      1.0  0.58386  0.18806  0.58336  1.0000
  H   H645      1.0  0.58851  0.19863  0.63362  1.0000
  H   H646      1.0  0.56292  0.16499  0.71348  1.0000
  H   H647      1.0  0.55875  0.15420  0.66332  1.0000
  C   C660      1.0  0.58851  0.11551  0.62272  1.0000
  C   C661      1.0  0.58564  0.12703  0.62868  1.0000
  C   C662      1.0  0.59063  0.13298  0.65429  1.0000
  C   C663      1.0  0.59909  0.12781  0.67256  1.0000
  C   C664      1.0  0.60221  0.11640  0.66622  1.0000
  C   C665      1.0  0.59683  0.11018  0.64147  1.0000
  H   H648      1.0  0.57992  0.13166  0.61279  1.0000
  H   H649      1.0  0.58834  0.14190  0.65868  1.0000
  H   H650      1.0  0.60863  0.11235  0.68086  1.0000
  H   H651      1.0  0.59912  0.10131  0.63668  1.0000
  C   C666      1.0  0.68887  0.17931  0.23355  1.0000
  C   C667      1.0  0.69937  0.18557  0.20278  1.0000
  C   C668      1.0  0.70462  0.19916  0.19403  1.0000
  C   C669      1.0  0.69957  0.20663  0.21643  1.0000
  C   C670      1.0  0.68903  0.20039  0.24715  1.0000
  C   C671      1.0  0.68359  0.18681  0.25547  1.0000
  H   H652      1.0  0.70360  0.17984  0.18584  1.0000
  H   H653      1.0  0.71285  0.20380  0.17065  1.0000
  S   S261      1.0  0.51426  0.05535  0.07527  1.0000
  H   H654      1.0  0.67550  0.18215  0.27920  1.0000
  C   C672      1.0  0.65137  0.13357  0.46006  1.0000
  C   C673      1.0  0.65118  0.14664  0.45584  1.0000
  C   C674      1.0  0.65181  0.15257  0.48561  1.0000
  C   C675      1.0  0.65245  0.14549  0.52006  1.0000
  C   C676      1.0  0.65237  0.13236  0.52449  1.0000
  C   C677      1.0  0.65191  0.12648  0.49458  1.0000
  H   H655      1.0  0.65066  0.15220  0.42958  1.0000
  H   H656      1.0  0.65181  0.16272  0.48194  1.0000
  H   H657      1.0  0.65292  0.12679  0.55070  1.0000
  H   H658      1.0  0.65212  0.11639  0.49809  1.0000
  C   C678      1.0  0.55856  0.17228  0.14687  1.0000
  C   C679      1.0  0.55221  0.18217  0.14017  1.0000
  C   C680      1.0  0.55928  0.19521  0.12639  1.0000
  C   C681      1.0  0.57294  0.19874  0.11794  1.0000
  C   C682      1.0  0.57951  0.18890  0.12422  1.0000
  C   C683      1.0  0.57230  0.17567  0.13911  1.0000
  H   H659      1.0  0.54165  0.17975  0.14598  1.0000
  H   H660      1.0  0.55407  0.20264  0.12180  1.0000
  H   H661      1.0  0.59007  0.19147  0.11800  1.0000
  H   H662      1.0  0.57735  0.16814  0.14414  1.0000
  C   C684      1.0  0.54012  0.11959  0.36554  1.0000
  C   C685      1.0  0.53403  0.11467  0.40329  1.0000
  C   C686      1.0  0.53978  0.11917  0.43029  1.0000
  C   C687      1.0  0.55159  0.12879  0.41965  1.0000
  C   C688      1.0  0.55749  0.13395  0.38184  1.0000
  C   C689      1.0  0.55188  0.12929  0.35491  1.0000
  H   H663      1.0  0.52489  0.10722  0.41174  1.0000
  H   H664      1.0  0.53512  0.11514  0.45928  1.0000
  H   H665      1.0  0.56662  0.14143  0.37334  1.0000
  H   H666      1.0  0.55664  0.13320  0.32597  1.0000
  C   C690      1.0  0.59574  0.12556  0.23425  1.0000
  C   C691      1.0  0.60511  0.12118  0.25029  1.0000
  C   C692      1.0  0.61231  0.12879  0.26907  1.0000
  C   C693      1.0  0.61005  0.14081  0.27225  1.0000
  C   C694      1.0  0.60082  0.14533  0.25570  1.0000
  C   C695      1.0  0.59377  0.13777  0.23637  1.0000
  H   H667      1.0  0.60663  0.11177  0.24871  1.0000
  H   H668      1.0  0.61930  0.12516  0.28215  1.0000
  H   H669      1.0  0.59912  0.15467  0.25783  1.0000
  H   H670      1.0  0.58704  0.14154  0.22256  1.0000
  C   C696      1.0  0.61329  0.07612  0.24404  1.0000
  C   C697      1.0  0.62554  0.07343  0.23954  1.0000
  C   C698      1.0  0.63578  0.08129  0.24983  1.0000
  C   C699      1.0  0.63385  0.09179  0.26512  1.0000
  C   C700      1.0  0.62143  0.09401  0.27134  1.0000
  C   C701      1.0  0.61126  0.08630  0.26055  1.0000
  H   H671      1.0  0.62724  0.06558  0.22709  1.0000
  H   H672      1.0  0.64533  0.07939  0.24525  1.0000
  H   H673      1.0  0.61973  0.10181  0.28396  1.0000
  H   H674      1.0  0.60178  0.08834  0.26466  1.0000
  C   C702      1.0  0.62987  0.06567  0.77810  1.0000
  C   C703      1.0  0.62383  0.07597  0.77312  1.0000
  C   C704      1.0  0.63121  0.08858  0.75196  1.0000
  C   C705      1.0  0.64462  0.09084  0.73597  1.0000
  C   C706      1.0  0.65051  0.08055  0.74175  1.0000
  C   C707      1.0  0.64324  0.06814  0.76258  1.0000
  H   H675      1.0  0.61351  0.07422  0.78528  1.0000
  H   H676      1.0  0.62656  0.09647  0.74786  1.0000
  H   H677      1.0  0.66083  0.08216  0.72973  1.0000
  H   H678      1.0  0.64804  0.06034  0.76629  1.0000
  H   H679      1.0  0.59453  0.04768  0.94804  1.0000
  H   H680      1.0  0.60611  0.05517  0.99372  1.0000
  C   C708      1.0  0.67386  0.21326  0.65692  1.0000
  H   H681      1.0  0.57272  0.00478  0.75064  1.0000
  C   C709      1.0  0.60635  0.01698  0.94386  1.0000
  C   C710      1.0  0.52314  0.07925  0.16076  1.0000
  C   C711      1.0  0.53026  0.08342  0.12389  1.0000
  H   H682      1.0  0.50998  0.00650  0.18173  1.0000
  H   H683      1.0  0.55887  0.05641  0.13745  1.0000
  H   H684      1.0  0.70361  0.22396  0.70282  1.0000
  H   H685      1.0  0.53771  0.09254  0.11482  1.0000
  C   C712      1.0  0.59371  0.04016  0.04030  1.0000
  C   C713      1.0  0.52750  0.00614  0.14416  1.0000
  C   C714      1.0  0.54109  0.01076  0.13306  1.0000
  C   C715      1.0  0.54766  0.01918  0.15108  1.0000
  C   C716      1.0  0.54070  0.02268  0.18091  1.0000
  C   C717      1.0  0.52709  0.01819  0.19168  1.0000
  C   C718      1.0  0.52049  0.00997  0.17320  1.0000
  C   C719      1.0  0.53525  0.00145  0.91644  1.0000
  H   H686      1.0  0.55805  0.02319  0.14121  1.0000
  H   H687      1.0  0.52165  0.02100  0.21443  1.0000
  H   H688      1.0  0.55369  0.00451  0.21462  1.0000
  C   C720      1.0  0.51081  0.05976  0.14631  1.0000
  H   H689      1.0  0.63965  0.06368  0.91583  1.0000
  C   C721      1.0  0.52746  0.07595  0.09834  1.0000
  C   C722      1.0  0.51485  0.08589  0.63847  1.0000
  C   C723      1.0  0.51093  0.08208  0.60840  1.0000
  H   H690      1.0  0.54649  0.00810  0.10991  1.0000
  H   H691      1.0  0.64249  0.08503  0.62219  1.0000
  H   H692      1.0  0.52854  0.01705  0.93419  1.0000
  H   H693      1.0  0.51256  0.08927  0.58280  1.0000
  H   H694      1.0  0.60856  0.01183  0.92178  1.0000
  C   C724      1.0  0.53606  0.02298  0.74430  1.0000
  C   C725      1.0  0.54651  0.02025  0.75811  1.0000
  C   C726      1.0  0.55374  0.02924  0.77321  1.0000
  C   C727      1.0  0.55089  0.04123  0.77345  1.0000
  C   C728      1.0  0.54066  0.04415  0.75863  1.0000
  C   C729      1.0  0.53327  0.03504  0.74400  1.0000
  H   H695      1.0  0.63098  0.05019  0.98047  1.0000
  H   H696      1.0  0.56134  0.02667  0.78521  1.0000
  H   H697      1.0  0.53836  0.05339  0.75879  1.0000
  H   H698      1.0  0.52554  0.03742  0.73213  1.0000
  N   N55       1.0  0.54959  0.06581  0.21861  1.0000
  C   C730      1.0  0.55605  0.06034  0.24243  1.0000
  C   C731      1.0  0.55507  0.07806  0.19638  1.0000
  C   C732      1.0  0.56820  0.06729  0.24495  1.0000
  C   C733      1.0  0.56721  0.08528  0.19819  1.0000
  C   C734      1.0  0.57375  0.07988  0.22288  1.0000
  C   C735      1.0  0.53647  0.05885  0.21788  1.0000
  H   H699      1.0  0.55185  0.05053  0.25957  1.0000
  H   H700      1.0  0.54997  0.08239  0.17743  1.0000
  H   H701      1.0  0.57335  0.06294  0.26378  1.0000
  H   H702      1.0  0.57140  0.09510  0.18114  1.0000
  H   H703      1.0  0.58312  0.08543  0.22485  1.0000
  H   H704      1.0  0.52916  0.06360  0.23031  1.0000
  H   H705      1.0  0.53585  0.05894  0.18907  1.0000
  H   H706      1.0  0.53377  0.04852  0.23355  1.0000
  N   N56       1.0  0.60522  0.16787  0.72139  1.0000
  C   C736      1.0  0.60944  0.18063  0.70220  1.0000
  C   C737      1.0  0.61319  0.16215  0.73922  1.0000
  C   C738      1.0  0.62191  0.18805  0.70071  1.0000
  C   C739      1.0  0.62574  0.16927  0.73817  1.0000
  C   C740      1.0  0.63008  0.18232  0.71892  1.0000
  C   C741      1.0  0.59197  0.16049  0.72318  1.0000
  H   H707      1.0  0.60312  0.18517  0.68816  1.0000
  H   H708      1.0  0.60993  0.15200  0.75412  1.0000
  H   H709      1.0  0.62515  0.19822  0.68594  1.0000
  H   H710      1.0  0.63209  0.16469  0.75203  1.0000
  H   H711      1.0  0.63976  0.18798  0.71817  1.0000
  H   H712      1.0  0.58996  0.15010  0.73777  1.0000
  H   H713      1.0  0.58469  0.16477  0.73799  1.0000
  H   H714      1.0  0.59059  0.16076  0.69490  1.0000
  N   N57       1.0  0.57868  0.19717  0.00644  1.0000
  C   C742      1.0  0.59023  0.19973  0.01681  1.0000
  C   C743      1.0  0.57811  0.19321  0.97460  1.0000
  C   C744      1.0  0.60168  0.19859  0.99468  1.0000
  C   C745      1.0  0.58936  0.19195  0.95186  1.0000
  C   C746      1.0  0.60121  0.19468  0.96201  1.0000
  C   C747      1.0  0.56679  0.19819  0.03050  1.0000
  H   H715      1.0  0.59066  0.20282  0.04212  1.0000
  H   H716      1.0  0.56898  0.19119  0.96624  1.0000
  H   H717      1.0  0.61091  0.20105  0.00232  1.0000
  H   H718      1.0  0.58896  0.18929  0.92593  1.0000
  H   H719      1.0  0.61009  0.19416  0.94406  1.0000
  H   H720      1.0  0.55901  0.19902  0.01556  1.0000
  H   H721      1.0  0.56305  0.18947  0.05411  1.0000
  H   H722      1.0  0.56885  0.20701  0.04151  1.0000
  C   C748      1.0  0.55367  0.06741  0.67480  1.0000
  C   C749      1.0  0.55705  0.09333  0.67659  1.0000
  C   C750      1.0  0.56095  0.07241  0.69797  1.0000
  C   C751      1.0  0.56266  0.08547  0.69875  1.0000
  H   H723      1.0  0.55228  0.05720  0.67462  1.0000
  C   C752      1.0  0.65173  0.22850  0.72950  1.0000
  C   C753      1.0  0.60484  0.22643  0.93261  1.0000
  N   N58       1.0  0.54832  0.07523  0.65283  1.0000
  Fe  Fe133     1.0  0.59198  0.20773  0.72459  1.0000
  S   S262      1.0  0.58759  0.21426  0.85550  1.0000
  Fe  Fe134     1.0  0.50601  0.00714  0.09731  1.0000
  S   S263      1.0  0.63991  0.21676  0.71944  1.0000
  C   C754      1.0  0.59933  0.21911  0.87964  1.0000
  C   C755      1.0  0.54982  0.08802  0.65373  1.0000
  Fe  Fe135     1.0  0.59601  0.21658  0.79487  1.0000
  Fe  Fe136     1.0  0.61942  0.21910  0.73275  1.0000
  H   H724      1.0  0.70277  0.19762  0.65788  1.0000
  S   S264      1.0  0.58024  0.03257  0.23960  1.0000
  C   C756      1.0  0.61773  0.22584  0.92048  1.0000
  S   S265      1.0  0.58381  0.22129  0.75527  1.0000
  S   S266      1.0  0.61333  0.24291  0.09477  1.0000
  C   C757      1.0  0.56415  0.05063  0.05185  1.0000
  C   C758      1.0  0.61229  0.21893  0.86691  1.0000
  H   H725      1.0  0.56042  0.16407  0.22657  1.0000
  H   H726      1.0  0.56761  0.01711  0.03524  1.0000
  H   H727      1.0  0.70879  0.24086  0.02388  1.0000
  S   S267      1.0  0.60900  0.22402  0.68832  1.0000
  H   H728      1.0  0.61160  0.05058  0.72802  1.0000
  H   H729      1.0  0.59400  0.06216  0.73465  1.0000
  C   C759      1.0  0.55422  0.16938  0.24126  1.0000
  H   H730      1.0  0.55359  0.16684  0.31317  1.0000
  H   H731      1.0  0.54934  0.17424  0.22151  1.0000
  S   S268      1.0  0.56326  0.02418  0.86402  1.0000
  S   S269      1.0  0.57983  0.02081  0.16529  1.0000
  C   C760      1.0  0.69199  0.19477  0.75646  1.0000
  C   C761      1.0  0.61345  0.06064  0.71306  1.0000
  C   C762      1.0  0.60362  0.06717  0.71693  1.0000
  C   C763      1.0  0.54551  0.16016  0.30802  1.0000
  H   H732      1.0  0.56065  0.17713  0.24973  1.0000
  C   C764      1.0  0.69068  0.15938  0.32983  1.0000
  H   H733      1.0  0.54549  0.09422  0.63666  1.0000
  H   H734      1.0  0.61683  0.16233  0.61901  1.0000
  S   S270      1.0  0.60745  0.03812  0.17575  1.0000
  C   C765      1.0  0.58038  0.03177  0.98833  1.0000
  C   C766      1.0  0.69368  0.18385  0.74300  1.0000
  S   S271      1.0  0.68841  0.22759  0.82029  1.0000
  C   C767      1.0  0.62591  0.06734  0.69105  1.0000
  H   H735      1.0  0.63358  0.06227  0.68905  1.0000
  N   N59       1.0  0.54443  0.16024  0.27272  1.0000
  C   C768      1.0  0.60632  0.08024  0.69849  1.0000
  H   H736      1.0  0.59879  0.08546  0.70158  1.0000
  C   C769      1.0  0.53628  0.15132  0.33810  1.0000
  H   H737      1.0  0.53728  0.15107  0.36607  1.0000
  S   S272      1.0  0.61345  0.23302  0.76495  1.0000
  C   C770      1.0  0.58275  0.02949  0.05185  1.0000
  H   H738      1.0  0.70283  0.18117  0.74178  1.0000
  N   N60       1.0  0.62851  0.08019  0.67344  1.0000
  C   C771      1.0  0.61887  0.08661  0.67650  1.0000
  H   H739      1.0  0.64363  0.09765  0.64732  1.0000
  C   C772      1.0  0.53447  0.15148  0.26636  1.0000
  Fe  Fe137     1.0  0.59095  0.02067  0.20928  1.0000
  C   C773      1.0  0.64157  0.08696  0.65003  1.0000
  H   H740      1.0  0.62093  0.09678  0.66240  1.0000
  H   H741      1.0  0.64924  0.08377  0.66249  1.0000
  H   H742      1.0  0.53376  0.15136  0.23838  1.0000
  C   C774      1.0  0.59946  0.15674  0.55554  1.0000
  C   C775      1.0  0.54093  0.06973  0.62843  1.0000
  C   C776      1.0  0.61961  0.03422  0.96452  1.0000
  C   C777      1.0  0.52607  0.14240  0.33183  1.0000
  H   H743      1.0  0.53212  0.06199  0.64503  1.0000
  H   H744      1.0  0.62566  0.14496  0.59877  1.0000
  H   H745      1.0  0.65142  0.22189  0.80798  1.0000
  C   C778      1.0  0.52518  0.14241  0.29576  1.0000
  H   H746      1.0  0.53764  0.07721  0.61084  1.0000
  H   H747      1.0  0.62415  0.13506  0.52040  1.0000
  C   C779      1.0  0.61830  0.14821  0.58649  1.0000
  C   C780      1.0  0.61854  0.13187  0.54969  1.0000
  H   H748      1.0  0.61022  0.12334  0.55298  1.0000
  H   H749      1.0  0.60089  0.14229  0.52456  1.0000
  N   N61       1.0  0.61369  0.14254  0.56077  1.0000
  C   C781      1.0  0.61341  0.15814  0.59785  1.0000
  C   C782      1.0  0.60451  0.14678  0.54500  1.0000
  C   C783      1.0  0.57609  0.02537  0.02599  1.0000
  H   H750      1.0  0.51916  0.13512  0.35480  1.0000
  H   H751      1.0  0.51753  0.13519  0.29063  1.0000
  H   H752      1.0  0.59972  0.16985  0.59137  1.0000
  C   C784      1.0  0.60384  0.16235  0.58241  1.0000
  H   H753      1.0  0.59201  0.15996  0.54344  1.0000
  H   H754      1.0  0.61519  0.21590  0.84177  1.0000
  S   S273      1.0  0.59218  0.02100  0.86596  1.0000
  C   C785      1.0  0.62916  0.04931  0.89276  1.0000
  C   C786      1.0  0.62141  0.22217  0.88753  1.0000
  H   H755      1.0  0.57942  0.02436  0.08064  1.0000
  H   H756      1.0  0.67816  0.16712  0.40768  1.0000
  C   C787      1.0  0.58942  0.12649  0.38977  1.0000
  H   H757      1.0  0.53597  0.04689  0.13564  1.0000
  C   C788      1.0  0.69535  0.14945  0.31767  1.0000
  H   H758      1.0  0.55717  0.04388  0.99534  1.0000
  H   H759      1.0  0.64822  0.12647  0.18617  1.0000
  S   S274      1.0  0.62932  0.22898  0.94654  1.0000
  C   C789      1.0  0.64962  0.24049  0.73358  1.0000
  C   C790      1.0  0.62827  0.04650  0.95768  1.0000
  C   C791      1.0  0.54401  0.04805  0.11223  1.0000
  H   H760      1.0  0.65854  0.20265  0.90903  1.0000
  N   N62       1.0  0.69523  0.21371  0.66712  1.0000
  H   H761      1.0  0.57209  0.05174  0.02832  1.0000
  H   H762      1.0  0.68471  0.12634  0.39864  1.0000
  H   H763      1.0  0.67745  0.19739  0.17917  1.0000
  H   H764      1.0  0.66537  0.20628  0.17487  1.0000
  S   S275      1.0  0.70769  0.23663  0.10498  1.0000
  H   H765      1.0  0.53255  0.03787  0.85875  1.0000
  C   C792      1.0  0.61834  0.09388  0.15318  1.0000
  H   H766      1.0  0.71250  0.21328  0.68677  1.0000
  C   C793      1.0  0.67577  0.20653  0.16420  1.0000
  H   H767      1.0  0.68201  0.21494  0.17074  1.0000
  C   C794      1.0  0.70669  0.22017  0.67828  1.0000
  C   C795      1.0  0.65436  0.22226  0.83349  1.0000
  N   N63       1.0  0.66137  0.23463  0.87544  1.0000
  H   H768      1.0  0.66912  0.16695  0.37244  1.0000
  H   H769      1.0  0.58859  0.12534  0.32070  1.0000
  S   S276      1.0  0.70523  0.20435  0.76912  1.0000
  H   H770      1.0  0.69768  0.20400  0.12425  1.0000
  S   S277      1.0  0.60533  0.24194  0.01628  1.0000
  C   C796      1.0  0.67965  0.24739  0.11687  1.0000
  N   N64       1.0  0.67903  0.20768  0.12432  1.0000
  H   H771      1.0  0.64580  0.10355  0.18228  1.0000
  S   S278      1.0  0.69260  0.23347  0.91621  1.0000
  N   N65       1.0  0.61590  0.02959  0.93609  1.0000
  H   H772      1.0  0.55331  0.09496  0.34708  1.0000
  C   C797      1.0  0.69086  0.20615  0.10790  1.0000
  C   C798      1.0  0.67900  0.16783  0.37773  1.0000
  C   C799      1.0  0.63741  0.12384  0.19630  1.0000
  C   C800      1.0  0.65820  0.21142  0.89039  1.0000
  C   C801      1.0  0.67057  0.21073  0.10353  1.0000
  H   H773      1.0  0.66122  0.21207  0.11634  1.0000
  S   S279      1.0  0.51429  0.02361  0.04743  1.0000
  H   H774      1.0  0.63496  0.11994  0.22667  1.0000
  S   S280      1.0  0.59359  0.00200  0.24219  1.0000
  H   H775      1.0  0.60631  0.01051  0.97036  1.0000
  Fe  Fe138     1.0  0.57754  0.01554  0.83262  1.0000
  Fe  Fe139     1.0  0.70604  0.22302  0.78949  1.0000
  C   C802      1.0  0.69446  0.20764  0.06972  1.0000
  H   H776      1.0  0.68505  0.20609  0.26464  1.0000
  H   H777      1.0  0.70398  0.20670  0.05668  1.0000
  H   H778      1.0  0.60316  0.10404  0.15356  1.0000
  H   H779      1.0  0.69192  0.16845  0.30996  1.0000
  H   H780      1.0  0.59358  0.12102  0.41029  1.0000
  C   C803      1.0  0.68679  0.13571  0.37925  1.0000
  H   H781      1.0  0.54873  0.01095  0.75843  1.0000
  H   H782      1.0  0.68551  0.22858  0.67406  1.0000
  H   H783      1.0  0.72880  0.21958  0.95838  1.0000
  H   H784      1.0  0.63408  0.13288  0.19042  1.0000
  H   H785      1.0  0.61309  0.08575  0.14451  1.0000
  Fe  Fe140     1.0  0.70103  0.23503  0.85607  1.0000
  C   C804      1.0  0.53531  0.00073  0.85348  1.0000
  C   C805      1.0  0.68587  0.21069  0.04837  1.0000
  C   C806      1.0  0.71971  0.23000  0.99417  1.0000
  H   H786      1.0  0.64067  0.24283  0.72970  1.0000
  C   C807      1.0  0.67323  0.20140  0.64729  1.0000
  C   C808      1.0  0.53016  0.01158  0.84971  1.0000
  C   C809      1.0  0.55684  0.05344  0.11309  1.0000
  C   C810      1.0  0.56095  0.10101  0.35578  1.0000
  H   H787      1.0  0.55171  0.09375  0.41379  1.0000
  C   C811      1.0  0.51766  0.06410  0.10922  1.0000
  C   C812      1.0  0.58075  0.11820  0.34119  1.0000
  H   H788      1.0  0.70004  0.15087  0.28876  1.0000
  C   C813      1.0  0.56702  0.05470  0.08277  1.0000
  C   C814      1.0  0.69481  0.20223  0.65690  1.0000
  C   C815      1.0  0.68382  0.19592  0.64674  1.0000
  C   C816      1.0  0.68241  0.14590  0.39054  1.0000
  H   H789      1.0  0.54043  0.04385  0.01134  1.0000
  N   N66       1.0  0.68440  0.15756  0.36595  1.0000
  H   H790      1.0  0.57709  0.05866  0.08322  1.0000
  C   C817      1.0  0.69336  0.13754  0.34258  1.0000
  C   C818      1.0  0.57141  0.10995  0.32953  1.0000
  C   C819      1.0  0.56005  0.10034  0.39322  1.0000
  H   H791      1.0  0.66723  0.21503  0.04889  1.0000
  H   H792      1.0  0.67714  0.14430  0.41897  1.0000
  H   H793      1.0  0.56827  0.08948  0.71660  1.0000
  S   S281      1.0  0.70638  0.22366  0.20771  1.0000
  Fe  Fe141     1.0  0.60187  0.23704  0.72325  1.0000
  H   H794      1.0  0.59769  0.13246  0.36633  1.0000
  H   H795      1.0  0.57212  0.11074  0.30029  1.0000
  H   H796      1.0  0.71447  0.22183  0.91501  1.0000
  C   C820      1.0  0.56964  0.10870  0.40386  1.0000
  C   C821      1.0  0.50111  0.05984  0.64586  1.0000
  H   H797      1.0  0.67859  0.20632  0.76866  1.0000
  N   N67       1.0  0.57982  0.11748  0.37791  1.0000
  C   C822      1.0  0.61939  0.11413  0.17131  1.0000
  H   H798      1.0  0.53160  0.03921  0.08144  1.0000
  C   C823      1.0  0.68510  0.21940  0.66635  1.0000
  H   H799      1.0  0.56861  0.10851  0.43291  1.0000
  H   H800      1.0  0.68534  0.17763  0.36249  1.0000
  H   H801      1.0  0.61489  0.12193  0.17563  1.0000
  S   S282      1.0  0.71817  0.22872  0.82908  1.0000
  S   S283      1.0  0.73729  0.23753  0.11610  1.0000
  Fe  Fe142     1.0  0.71767  0.23670  0.15131  1.0000
  C   C824      1.0  0.67388  0.21235  0.06527  1.0000
  C   C825      1.0  0.65774  0.23414  0.84311  1.0000
  H   H802      1.0  0.54604  0.02958  0.02685  1.0000
  C   C826      1.0  0.63049  0.09390  0.16073  1.0000
  H   H803      1.0  0.69653  0.12962  0.33321  1.0000
  C   C827      1.0  0.51345  0.06734  0.17170  1.0000
  H   H804      1.0  0.68860  0.21195  0.01869  1.0000
  H   H805      1.0  0.58466  0.13325  0.40251  1.0000
  C   C828      1.0  0.54867  0.04040  0.01968  1.0000
  H   H806      1.0  0.63470  0.08580  0.15795  1.0000
  H   H807      1.0  0.71303  0.22834  0.65536  1.0000
  C   C829      1.0  0.70332  0.23233  0.94538  1.0000
  C   C830      1.0  0.72128  0.22467  0.96334  1.0000
  C   C831      1.0  0.54156  0.04373  0.08133  1.0000
  C   C832      1.0  0.63673  0.10398  0.17438  1.0000
  N   N68       1.0  0.63118  0.11394  0.17939  1.0000
  S   S284      1.0  0.52631  0.01087  0.72963  1.0000
  H   H808      1.0  0.66557  0.21749  0.65810  1.0000
  H   H809      1.0  0.50783  0.06398  0.20005  1.0000
  C   C833      1.0  0.66731  0.23881  0.12341  1.0000
  H   H810      1.0  0.51518  0.07940  0.69539  1.0000
  H   H811      1.0  0.63127  0.22155  0.87840  1.0000
  H   H812      1.0  0.59639  0.01847  0.94561  1.0000
  H   H813      1.0  0.54712  0.06551  0.60975  1.0000
  C   C834      1.0  0.66137  0.22345  0.89932  1.0000
  C   C835      1.0  0.65928  0.24071  0.09909  1.0000
  H   H814      1.0  0.51682  0.02929  0.85439  1.0000
  H   H815      1.0  0.61560  0.02859  0.99286  1.0000
  H   H816      1.0  0.68321  0.18649  0.64043  1.0000
  H   H817      1.0  0.52819  0.01551  0.82356  1.0000
  C   C836      1.0  0.71002  0.23663  0.00035  1.0000
  H   H818      1.0  0.53281  0.07946  0.06976  1.0000
  H   H819      1.0  0.65753  0.24298  0.82446  1.0000
  C   C837      1.0  0.53030  0.01244  0.91148  1.0000
  H   H820      1.0  0.66402  0.22383  0.92526  1.0000
  C   C838      1.0  0.50566  0.06350  0.67537  1.0000
  H   H821      1.0  0.61750  0.03343  0.87797  1.0000
  Fe  Fe143     1.0  0.50575  0.01243  0.73368  1.0000
  C   C839      1.0  0.65472  0.21086  0.85715  1.0000
  H   H822      1.0  0.51884  0.03120  0.89873  1.0000
  H   H823      1.0  0.50045  0.06644  0.58930  1.0000
  H   H824      1.0  0.63270  0.05514  0.86449  1.0000
  S   S285      1.0  0.71375  0.24279  0.74976  1.0000
  C   C840      1.0  0.62051  0.03698  0.90059  1.0000
  H   H825      1.0  0.50322  0.05074  0.15526  1.0000
  H   H826      1.0  0.69406  0.24253  0.98162  1.0000
  S   S286      1.0  0.49896  0.02983  0.74366  1.0000
  C   C841      1.0  0.50397  0.06915  0.61223  1.0000
  H   H827      1.0  0.59777  0.24125  0.83145  1.0000
  H   H828      1.0  0.58656  0.24592  0.78229  1.0000
  H   H829      1.0  0.50155  0.00166  0.90608  1.0000
  S   S287      1.0  0.49987  0.01121  0.97117  1.0000
  Fe  Fe144     1.0  0.50246  0.03455  0.07898  1.0000
  C   C842      1.0  0.67085  0.24656  0.74741  1.0000
  H   H830      1.0  0.53203  0.99961  0.25804  1.0000
  H   H831      1.0  0.67206  0.24724  0.90206  1.0000
  C   C843      1.0  0.66461  0.24710  0.88547  1.0000
  Fe  Fe145     1.0  0.69664  0.24757  0.78310  1.0000
  H   H832      1.0  0.53740  0.99772  0.94252  1.0000
  H   H833      1.0  0.64039  0.47991  0.51834  1.0000
  S   S288      1.0  0.53371  0.48109  0.63495  1.0000
  S   S289      1.0  0.50595  0.47397  0.81044  1.0000
  H   H834      1.0  0.69244  0.47501  0.74301  1.0000
  H   H835      1.0  0.64690  0.48072  0.55792  1.0000
  C   C844      1.0  0.58421  0.41779  0.08930  1.0000
  H   H836      1.0  0.55021  0.44931  0.57725  1.0000
  H   H837      1.0  0.73357  0.48127  0.82573  1.0000
  Fe  Fe146     1.0  0.58530  0.43293  0.22848  1.0000
  S   S290      1.0  0.57550  0.41294  0.26365  1.0000
  S   S291      1.0  0.60605  0.44159  0.22821  1.0000
  Fe  Fe147     1.0  0.56171  0.43574  0.19772  1.0000
  S   S292      1.0  0.54975  0.41587  0.23107  1.0000
  S   S293      1.0  0.55725  0.45105  0.15589  1.0000
  Fe  Fe148     1.0  0.55830  0.42110  0.27766  1.0000
  S   S294      1.0  0.54634  0.41714  0.33639  1.0000
  Fe  Fe149     1.0  0.56812  0.40948  0.21436  1.0000
  S   S295      1.0  0.56787  0.39088  0.19565  1.0000
  S   S296      1.0  0.56867  0.44155  0.24557  1.0000
  S   S297      1.0  0.57944  0.42891  0.17777  1.0000
  C   C845      1.0  0.56294  0.38167  0.35923  1.0000
  Fe  Fe150     1.0  0.57898  0.43715  0.55465  1.0000
  S   S298      1.0  0.56655  0.42735  0.61110  1.0000
  S   S299      1.0  0.59302  0.45680  0.54173  1.0000
  Fe  Fe151     1.0  0.56880  0.41459  0.52311  1.0000
  S   S300      1.0  0.55560  0.40267  0.57823  1.0000
  S   S301      1.0  0.57375  0.40853  0.46934  1.0000
  Fe  Fe152     1.0  0.55076  0.42170  0.58294  1.0000
  S   S302      1.0  0.53135  0.42446  0.61040  1.0000
  Fe  Fe153     1.0  0.57275  0.40949  0.60190  1.0000
  S   S303      1.0  0.58025  0.40083  0.65045  1.0000
  S   S304      1.0  0.56274  0.43301  0.52635  1.0000
  S   S305      1.0  0.58626  0.41988  0.54678  1.0000
  S   S306      1.0  0.60600  0.47140  0.68569  1.0000
  H   H838      1.0  0.65830  0.44134  0.25784  1.0000
  H   H839      1.0  0.73694  0.26527  0.21731  1.0000
  C   C846      1.0  0.58412  0.44272  0.42347  1.0000
  C   C847      1.0  0.63038  0.45888  0.60209  1.0000
  C   C848      1.0  0.51585  0.46784  0.18241  1.0000
  S   S307      1.0  0.62351  0.27826  0.01561  1.0000
  H   H840      1.0  0.57044  0.37864  0.77108  1.0000
  C   C849      1.0  0.60285  0.31961  0.01235  1.0000
  C   C850      1.0  0.58197  0.35178  0.78536  1.0000
  C   C851      1.0  0.57419  0.43566  0.09006  1.0000
  C   C852      1.0  0.73617  0.25473  0.87836  1.0000
  H   H841      1.0  0.61159  0.45024  0.42536  1.0000
  S   S308      1.0  0.68232  0.25743  0.76130  1.0000
  S   S309      1.0  0.60093  0.25798  0.70317  1.0000
  C   C853      1.0  0.68369  0.47500  0.73312  1.0000
  H   H842      1.0  0.60266  0.30932  0.02400  1.0000
  H   H843      1.0  0.58752  0.34714  0.80230  1.0000
  Fe  Fe154     1.0  0.63703  0.36941  0.99469  1.0000
  S   S310      1.0  0.61903  0.36073  0.04086  1.0000
  S   S311      1.0  0.63918  0.37557  0.93342  1.0000
  Fe  Fe155     1.0  0.65545  0.37093  0.04647  1.0000
  S   S312      1.0  0.63905  0.36182  0.09700  1.0000
  S   S313      1.0  0.67684  0.38006  0.04129  1.0000
  Fe  Fe156     1.0  0.63123  0.34803  0.06376  1.0000
  S   S314      1.0  0.62181  0.32632  0.08877  1.0000
  Fe  Fe157     1.0  0.62826  0.37510  0.07020  1.0000
  S   S315      1.0  0.62217  0.39092  0.09537  1.0000
  S   S316      1.0  0.64869  0.35604  0.01557  1.0000
  S   S317      1.0  0.64520  0.38479  0.02139  1.0000
  Fe  Fe158     1.0  0.61225  0.34610  0.72311  1.0000
  S   S318      1.0  0.63179  0.34175  0.70780  1.0000
  S   S319      1.0  0.60079  0.35003  0.67990  1.0000
  Fe  Fe159     1.0  0.61241  0.34156  0.80409  1.0000
  S   S320      1.0  0.63187  0.33695  0.79543  1.0000
  S   S321      1.0  0.60140  0.34142  0.86067  1.0000
  Fe  Fe160     1.0  0.63768  0.35402  0.74643  1.0000
  S   S322      1.0  0.65637  0.37022  0.72838  1.0000
  Fe  Fe161     1.0  0.62417  0.32500  0.75807  1.0000
  S   S323      1.0  0.62820  0.30497  0.76341  1.0000
  S   S324      1.0  0.61866  0.35956  0.75788  1.0000
  S   S325      1.0  0.60418  0.32837  0.77075  1.0000
  Fe  Fe162     1.0  0.71148  0.43191  0.12981  1.0000
  S   S326      1.0  0.70998  0.45142  0.10082  1.0000
  S   S327      1.0  0.69252  0.41600  0.14824  1.0000
  Fe  Fe163     1.0  0.61868  0.25615  0.03761  1.0000
  H   H844      1.0  0.74203  0.33432  0.83517  1.0000
  Fe  Fe164     1.0  0.51781  0.48594  0.67388  1.0000
  Fe  Fe165     1.0  0.72142  0.45920  0.13886  1.0000
  S   S328      1.0  0.71696  0.47377  0.17210  1.0000
  Fe  Fe166     1.0  0.72952  0.45264  0.06472  1.0000
  S   S329      1.0  0.73589  0.45733  0.00261  1.0000
  S   S330      1.0  0.72186  0.43955  0.17035  1.0000
  S   S331      1.0  0.73023  0.43261  0.09128  1.0000
  Fe  Fe167     1.0  0.69172  0.44279  0.78924  1.0000
  S   S332      1.0  0.70437  0.42991  0.77137  1.0000
  S   S333      1.0  0.67705  0.44793  0.75668  1.0000
  Fe  Fe168     1.0  0.69709  0.43805  0.86651  1.0000
  S   S334      1.0  0.70968  0.42463  0.85486  1.0000
  S   S335      1.0  0.69087  0.44149  0.92299  1.0000
  Fe  Fe169     1.0  0.69462  0.41611  0.82650  1.0000
  S   S336      1.0  0.68477  0.39447  0.84054  1.0000
  S   S337      1.0  0.68136  0.42834  0.84301  1.0000
  C   C854      1.0  0.72318  0.45183  0.98216  1.0000
  C   C855      1.0  0.72601  0.44807  0.94888  1.0000
  C   C856      1.0  0.71613  0.44482  0.93051  1.0000
  C   C857      1.0  0.70338  0.44521  0.94561  1.0000
  C   C858      1.0  0.70049  0.44855  0.97944  1.0000
  C   C859      1.0  0.71037  0.45183  0.99772  1.0000
  H   H845      1.0  0.73586  0.44780  0.93711  1.0000
  H   H846      1.0  0.71840  0.44209  0.90463  1.0000
  H   H847      1.0  0.69066  0.44893  0.99105  1.0000
  H   H848      1.0  0.70816  0.45487  0.02311  1.0000
  H   H849      1.0  0.55080  0.47137  0.58694  1.0000
  Fe  Fe170     1.0  0.71351  0.25830  0.09504  1.0000
  C   C860      1.0  0.66438  0.37655  0.75996  1.0000
  C   C861      1.0  0.67408  0.38838  0.74713  1.0000
  C   C862      1.0  0.68027  0.39406  0.77161  1.0000
  C   C863      1.0  0.67712  0.38772  0.80898  1.0000
  C   C864      1.0  0.66764  0.37573  0.82173  1.0000
  C   C865      1.0  0.66113  0.37026  0.79743  1.0000
  H   H850      1.0  0.67671  0.39327  0.71815  1.0000
  H   H851      1.0  0.68763  0.40323  0.76142  1.0000
  H   H852      1.0  0.66519  0.37075  0.85059  1.0000
  H   H853      1.0  0.65372  0.36112  0.80758  1.0000
  C   C866      1.0  0.68108  0.38994  0.07136  1.0000
  C   C867      1.0  0.67216  0.38956  0.10372  1.0000
  C   C868      1.0  0.67587  0.39742  0.12736  1.0000
  C   C869      1.0  0.68840  0.40594  0.11844  1.0000
  C   C870      1.0  0.69723  0.40653  0.08566  1.0000
  C   C871      1.0  0.69362  0.39844  0.06247  1.0000
  H   H854      1.0  0.66248  0.38305  0.11090  1.0000
  H   H855      1.0  0.66897  0.39691  0.15261  1.0000
  H   H856      1.0  0.70690  0.41305  0.07846  1.0000
  H   H857      1.0  0.70060  0.39879  0.03756  1.0000
  C   C872      1.0  0.62806  0.36658  0.91380  1.0000
  C   C873      1.0  0.61555  0.35937  0.93434  1.0000
  C   C874      1.0  0.60719  0.35186  0.91775  1.0000
  C   C875      1.0  0.61137  0.35152  0.88079  1.0000
  C   C876      1.0  0.62379  0.35890  0.86031  1.0000
  C   C877      1.0  0.63207  0.36641  0.87678  1.0000
  H   H858      1.0  0.61236  0.35954  0.96291  1.0000
  H   H859      1.0  0.59756  0.34619  0.93366  1.0000
  H   H860      1.0  0.62713  0.35869  0.83184  1.0000
  H   H861      1.0  0.64175  0.37186  0.86106  1.0000
  H   H862      1.0  0.69947  0.45431  0.30386  1.0000
  N   N69       1.0  0.56115  0.41363  0.11488  1.0000
  H   H863      1.0  0.67927  0.26817  0.03811  1.0000
  H   H864      1.0  0.58294  0.36803  0.81045  1.0000
  S   S338      1.0  0.51455  0.47981  0.01367  1.0000
  C   C878      1.0  0.60810  0.27079  0.72157  1.0000
  C   C879      1.0  0.61746  0.26953  0.74186  1.0000
  C   C880      1.0  0.62343  0.28008  0.75463  1.0000
  C   C881      1.0  0.61998  0.29194  0.74774  1.0000
  C   C882      1.0  0.61044  0.29317  0.72805  1.0000
  C   C883      1.0  0.60460  0.28266  0.71479  1.0000
  H   H865      1.0  0.62043  0.26059  0.74685  1.0000
  H   H866      1.0  0.63083  0.27905  0.76974  1.0000
  H   H867      1.0  0.60769  0.30226  0.72258  1.0000
  H   H868      1.0  0.59738  0.28374  0.69906  1.0000
  Fe  Fe171     1.0  0.71845  0.43962  0.80115  1.0000
  H   H869      1.0  0.59318  0.32010  0.00709  1.0000
  H   H870      1.0  0.63447  0.46499  0.61867  1.0000
  H   H871      1.0  0.60149  0.43490  0.45552  1.0000
  Fe  Fe172     1.0  0.62703  0.48398  0.33618  1.0000
  H   H872      1.0  0.67220  0.45603  0.28515  1.0000
  C   C884      1.0  0.50086  0.47680  0.91708  1.0000
  H   H873      1.0  0.56205  0.36809  0.69101  1.0000
  H   H874      1.0  0.63226  0.27140  0.08815  1.0000
  C   C885      1.0  0.62361  0.29117  0.03816  1.0000
  C   C886      1.0  0.61532  0.28961  0.07266  1.0000
  C   C887      1.0  0.61512  0.30042  0.08815  1.0000
  C   C888      1.0  0.62333  0.31282  0.06968  1.0000
  C   C889      1.0  0.63207  0.31422  0.03605  1.0000
  C   C890      1.0  0.63201  0.30351  0.02005  1.0000
  H   H875      1.0  0.60877  0.28019  0.08688  1.0000
  H   H876      1.0  0.60839  0.29921  0.11433  1.0000
  H   H877      1.0  0.63879  0.32356  0.02220  1.0000
  H   H878      1.0  0.63855  0.30479  0.99351  1.0000
  H   H879      1.0  0.56723  0.44089  0.40051  1.0000
  C   C891      1.0  0.66336  0.46337  0.72362  1.0000
  C   C892      1.0  0.67464  0.46320  0.73691  1.0000
  H   H880      1.0  0.62301  0.44198  0.64800  1.0000
  H   H881      1.0  0.65631  0.45430  0.72642  1.0000
  C   C893      1.0  0.58748  0.38760  0.65428  1.0000
  C   C894      1.0  0.58564  0.37852  0.63295  1.0000
  C   C895      1.0  0.59011  0.36721  0.64038  1.0000
  C   C896      1.0  0.59662  0.36500  0.66870  1.0000
  C   C897      1.0  0.59883  0.37431  0.68917  1.0000
  C   C898      1.0  0.59418  0.38550  0.68216  1.0000
  H   H882      1.0  0.58042  0.37999  0.61156  1.0000
  H   H883      1.0  0.58837  0.36004  0.62441  1.0000
  H   H884      1.0  0.60378  0.37273  0.71107  1.0000
  H   H885      1.0  0.59560  0.39247  0.69886  1.0000
  C   C899      1.0  0.59672  0.46074  0.58174  1.0000
  C   C900      1.0  0.59364  0.45120  0.61477  1.0000
  C   C901      1.0  0.59623  0.45454  0.64690  1.0000
  C   C902      1.0  0.60249  0.46734  0.64566  1.0000
  C   C903      1.0  0.60609  0.47677  0.61221  1.0000
  C   C904      1.0  0.60306  0.47352  0.58043  1.0000
  H   H886      1.0  0.58967  0.44116  0.61550  1.0000
  H   H887      1.0  0.59372  0.44712  0.67245  1.0000
  H   H888      1.0  0.66746  0.26085  0.18258  1.0000
  H   H889      1.0  0.60567  0.48095  0.55484  1.0000
  C   C905      1.0  0.67593  0.47854  0.21558  1.0000
  C   C906      1.0  0.67783  0.47060  0.19089  1.0000
  C   C907      1.0  0.69038  0.46930  0.17654  1.0000
  C   C908      1.0  0.70120  0.47612  0.18628  1.0000
  C   C909      1.0  0.69937  0.48448  0.20975  1.0000
  C   C910      1.0  0.68677  0.48559  0.22469  1.0000
  H   H890      1.0  0.66949  0.46517  0.18356  1.0000
  H   H891      1.0  0.69167  0.46289  0.15837  1.0000
  C   C911      1.0  0.50120  0.47897  0.85161  1.0000
  C   C912      1.0  0.58311  0.39030  0.16983  1.0000
  C   C913      1.0  0.58411  0.37974  0.15407  1.0000
  C   C914      1.0  0.59607  0.37959  0.13160  1.0000
  C   C915      1.0  0.60705  0.39007  0.12467  1.0000
  C   C916      1.0  0.60601  0.40056  0.14064  1.0000
  C   C917      1.0  0.59415  0.40065  0.16329  1.0000
  H   H892      1.0  0.57561  0.37169  0.15899  1.0000
  H   H893      1.0  0.59677  0.37146  0.11938  1.0000
  H   H894      1.0  0.61445  0.40869  0.13551  1.0000
  H   H895      1.0  0.59358  0.40876  0.17557  1.0000
  C   C918      1.0  0.55450  0.41614  0.37252  1.0000
  C   C919      1.0  0.54787  0.41609  0.40816  1.0000
  C   C920      1.0  0.55374  0.41408  0.43810  1.0000
  C   C921      1.0  0.56616  0.41181  0.43265  1.0000
  C   C922      1.0  0.57279  0.41193  0.39701  1.0000
  C   C923      1.0  0.56709  0.41429  0.36700  1.0000
  H   H896      1.0  0.53810  0.41745  0.41272  1.0000
  H   H897      1.0  0.54854  0.41398  0.46548  1.0000
  H   H898      1.0  0.58245  0.41027  0.39251  1.0000
  H   H899      1.0  0.57233  0.41435  0.33980  1.0000
  C   C924      1.0  0.60667  0.44670  0.26889  1.0000
  C   C925      1.0  0.61870  0.45294  0.27382  1.0000
  C   C926      1.0  0.61915  0.45910  0.30282  1.0000
  C   C927      1.0  0.60759  0.45906  0.32691  1.0000
  C   C928      1.0  0.59560  0.45213  0.32333  1.0000
  C   C929      1.0  0.59515  0.44585  0.29451  1.0000
  H   H900      1.0  0.62765  0.45337  0.25459  1.0000
  H   H901      1.0  0.62849  0.46411  0.30593  1.0000
  H   H902      1.0  0.58663  0.45211  0.34163  1.0000
  H   H903      1.0  0.58586  0.44071  0.29158  1.0000
  H   H904      1.0  0.60566  0.44872  0.47431  1.0000
  H   H905      1.0  0.62562  0.46050  0.51688  1.0000
  C   C930      1.0  0.53222  0.43869  0.15355  1.0000
  C   C931      1.0  0.54267  0.44986  0.14083  1.0000
  C   C932      1.0  0.54168  0.46048  0.11489  1.0000
  C   C933      1.0  0.53031  0.46007  0.10196  1.0000
  C   C934      1.0  0.68773  0.43608  0.22396  1.0000
  H   H906      1.0  0.62350  0.46760  0.19064  1.0000
  H   H907      1.0  0.54975  0.46912  0.10478  1.0000
  H   H908      1.0  0.52968  0.46836  0.08205  1.0000
  C   C935      1.0  0.53286  0.46519  0.62937  1.0000
  C   C936      1.0  0.52258  0.45457  0.65025  1.0000
  C   C937      1.0  0.52218  0.44207  0.64435  1.0000
  C   C938      1.0  0.53212  0.44012  0.61797  1.0000
  C   C939      1.0  0.54249  0.45072  0.59758  1.0000
  C   C940      1.0  0.54279  0.46321  0.60308  1.0000
  S   S339      1.0  0.70653  0.45370  0.81441  1.0000
  H   H909      1.0  0.67259  0.42425  0.99769  1.0000
  N   N70       1.0  0.61311  0.32492  0.97807  1.0000
  C   C941      1.0  0.61174  0.32028  0.94768  1.0000
  C   C942      1.0  0.62407  0.33422  0.97673  1.0000
  C   C943      1.0  0.62147  0.32502  0.91476  1.0000
  C   C944      1.0  0.63411  0.33900  0.94450  1.0000
  C   C945      1.0  0.63274  0.33441  0.91327  1.0000
  H   H910      1.0  0.60300  0.31299  0.94864  1.0000
  H   H911      1.0  0.62509  0.33801  0.00070  1.0000
  H   H912      1.0  0.62015  0.32167  0.89032  1.0000
  H   H913      1.0  0.64266  0.34655  0.94338  1.0000
  H   H914      1.0  0.64022  0.33839  0.88767  1.0000
  H   H915      1.0  0.60452  0.32508  0.03369  1.0000
  C   C946      1.0  0.62552  0.45635  0.54526  1.0000
  C   C947      1.0  0.62392  0.44583  0.61886  1.0000
  C   C948      1.0  0.61900  0.44325  0.56113  1.0000
  C   C949      1.0  0.61822  0.43797  0.59817  1.0000
  H   H916      1.0  0.65744  0.25870  0.74631  1.0000
  H   H917      1.0  0.61418  0.43736  0.54519  1.0000
  C   C950      1.0  0.51670  0.49209  0.19661  1.0000
  C   C951      1.0  0.64652  0.27557  0.67786  1.0000
  H   H918      1.0  0.57490  0.44603  0.08494  1.0000
  N   N71       1.0  0.59159  0.44952  0.44211  1.0000
  H   H919      1.0  0.51612  0.45905  0.56936  1.0000
  H   H920      1.0  0.74457  0.30223  0.80918  1.0000
  H   H921      1.0  0.54799  0.40248  0.16499  1.0000
  H   H922      1.0  0.61348  0.25053  0.86493  1.0000
  C   C952      1.0  0.69537  0.44452  0.23970  1.0000
  H   H923      1.0  0.54981  0.43427  0.68022  1.0000
  N   N72       1.0  0.68980  0.45156  0.26139  1.0000
  H   H924      1.0  0.69353  0.46794  0.28501  1.0000
  H   H925      1.0  0.53433  0.46147  0.73248  1.0000
  C   C953      1.0  0.58529  0.43115  0.08117  1.0000
  H   H926      1.0  0.59476  0.43799  0.06870  1.0000
  C   C954      1.0  0.67662  0.45029  0.26846  1.0000
  H   H927      1.0  0.55363  0.43033  0.11472  1.0000
  H   H928      1.0  0.70584  0.44563  0.23388  1.0000
  N   N73       1.0  0.64948  0.27171  0.10836  1.0000
  C   C955      1.0  0.66175  0.27884  0.10676  1.0000
  C   C956      1.0  0.64358  0.26069  0.13590  1.0000
  H   H929      1.0  0.58883  0.27766  0.80241  1.0000
  H   H930      1.0  0.55278  0.47932  0.69239  1.0000
  C   C957      1.0  0.66833  0.27513  0.13366  1.0000
  Fe  Fe173     1.0  0.74111  0.25947  0.10442  1.0000
  S   S340      1.0  0.74043  0.44676  0.77579  1.0000
  H   H931      1.0  0.63413  0.25467  0.13621  1.0000
  C   C958      1.0  0.72134  0.26535  0.91064  1.0000
  H   H932      1.0  0.53274  0.43876  0.72636  1.0000
  H   H933      1.0  0.68546  0.49181  0.24344  1.0000
  C   C959      1.0  0.59918  0.25134  0.83247  1.0000
  Fe  Fe174     1.0  0.50380  0.48340  0.75390  1.0000
  H   H934      1.0  0.57676  0.47513  0.61520  1.0000
  N   N74       1.0  0.68030  0.38410  0.93709  1.0000
  C   C960      1.0  0.67508  0.39445  0.92911  1.0000
  C   C961      1.0  0.69139  0.38548  0.94995  1.0000
  C   C962      1.0  0.68099  0.40658  0.93404  1.0000
  C   C963      1.0  0.69754  0.39746  0.95523  1.0000
  C   C964      1.0  0.69232  0.40806  0.94702  1.0000
  C   C965      1.0  0.67457  0.37166  0.92957  1.0000
  H   H935      1.0  0.66648  0.39344  0.91803  1.0000
  H   H936      1.0  0.69546  0.37726  0.95656  1.0000
  H   H937      1.0  0.67693  0.41481  0.92724  1.0000
  H   H938      1.0  0.70624  0.39848  0.96581  1.0000
  H   H939      1.0  0.69712  0.41744  0.95049  1.0000
  H   H940      1.0  0.66427  0.37079  0.92803  1.0000
  H   H941      1.0  0.68019  0.37099  0.90262  1.0000
  H   H942      1.0  0.67466  0.36340  0.95180  1.0000
  H   H943      1.0  0.60491  0.47023  0.23126  1.0000
  H   H944      1.0  0.59178  0.48464  0.25259  1.0000
  H   H945      1.0  0.67826  0.28052  0.13151  1.0000
  H   H946      1.0  0.64407  0.31831  0.68786  1.0000
  H   H947      1.0  0.51418  0.43388  0.66037  1.0000
  H   H948      1.0  0.49926  0.43918  0.60572  1.0000
  H   H949      1.0  0.60473  0.28749  0.83463  1.0000
  S   S341      1.0  0.51004  0.48418  0.09754  1.0000
  C   C966      1.0  0.54592  0.38452  0.32963  1.0000
  C   C967      1.0  0.60909  0.48067  0.22316  1.0000
  N   N75       1.0  0.64270  0.30044  0.67091  1.0000
  C   C968      1.0  0.74492  0.47428  0.89060  1.0000
  C   C969      1.0  0.66869  0.44199  0.25301  1.0000
  S   S342      1.0  0.69910  0.26916  0.07908  1.0000
  N   N76       1.0  0.56157  0.46687  0.66457  1.0000
  C   C970      1.0  0.51983  0.44896  0.11463  1.0000
  H   H950      1.0  0.54976  0.36619  0.73271  1.0000
  C   C971      1.0  0.57248  0.47757  0.64115  1.0000
  C   C972      1.0  0.57308  0.44632  0.41542  1.0000
  C   C973      1.0  0.57198  0.40912  0.10627  1.0000
  H   H951      1.0  0.57978  0.33720  0.75405  1.0000
  H   H952      1.0  0.66885  0.25528  0.86048  1.0000
  H   H953      1.0  0.56819  0.45238  0.64115  1.0000
  C   C974      1.0  0.60321  0.44566  0.44971  1.0000
  Fe  Fe175     1.0  0.74070  0.44237  0.12848  1.0000
  N   N77       1.0  0.63124  0.46394  0.56563  1.0000
  C   C975      1.0  0.58873  0.46032  0.45168  1.0000
  H   H954      1.0  0.51557  0.45830  0.17731  1.0000
  C   C976      1.0  0.66115  0.47518  0.70660  1.0000
  C   C977      1.0  0.67030  0.48696  0.70218  1.0000
  H   H955      1.0  0.65723  0.30391  0.70131  1.0000
  C   C978      1.0  0.57750  0.34613  0.75865  1.0000
  C   C979      1.0  0.64089  0.31364  0.66633  1.0000
  H   H956      1.0  0.73444  0.28046  0.80105  1.0000
  H   H957      1.0  0.65245  0.47514  0.69645  1.0000
  H   H958      1.0  0.59499  0.46604  0.46504  1.0000
  H   H959      1.0  0.61284  0.42793  0.61108  1.0000
  C   C980      1.0  0.57233  0.36946  0.76759  1.0000
  C   C981      1.0  0.65918  0.24953  0.74249  1.0000
  S   S343      1.0  0.63612  0.24879  0.01819  1.0000
  H   H960      1.0  0.56141  0.46003  0.41959  1.0000
  C   C982      1.0  0.57778  0.46420  0.44407  1.0000
  N   N78       1.0  0.65083  0.40362  0.80466  1.0000
  C   C983      1.0  0.65971  0.41443  0.78158  1.0000
  C   C984      1.0  0.64371  0.39463  0.79050  1.0000
  C   C985      1.0  0.66148  0.41662  0.74334  1.0000
  C   C986      1.0  0.64521  0.39651  0.75237  1.0000
  C   C987      1.0  0.65419  0.40756  0.72869  1.0000
  C   C988      1.0  0.64951  0.40129  0.84461  1.0000
  H   H961      1.0  0.66559  0.42140  0.79259  1.0000
  H   H962      1.0  0.63699  0.38584  0.80857  1.0000
  H   H963      1.0  0.66863  0.42521  0.72533  1.0000
  H   H964      1.0  0.63986  0.38916  0.74118  1.0000
  H   H965      1.0  0.65573  0.40893  0.69905  1.0000
  H   H966      1.0  0.65170  0.41060  0.85317  1.0000
  H   H967      1.0  0.63942  0.39580  0.86020  1.0000
  H   H968      1.0  0.65638  0.39561  0.85273  1.0000
  N   N79       1.0  0.66907  0.41890  0.05600  1.0000
  C   C989      1.0  0.65641  0.41234  0.07341  1.0000
  C   C990      1.0  0.67621  0.42728  0.07181  1.0000
  C   C991      1.0  0.65072  0.41376  0.10812  1.0000
  C   C992      1.0  0.67081  0.42897  0.10645  1.0000
  C   C993      1.0  0.65800  0.42210  0.12475  1.0000
  C   C994      1.0  0.67485  0.41731  0.01960  1.0000
  H   H969      1.0  0.65068  0.40576  0.06088  1.0000
  H   H970      1.0  0.68629  0.43240  0.05825  1.0000
  H   H971      1.0  0.64078  0.40827  0.12211  1.0000
  H   H972      1.0  0.67671  0.43524  0.11943  1.0000
  H   H973      1.0  0.65377  0.42310  0.15192  1.0000
  H   H974      1.0  0.68563  0.41913  0.01487  1.0000
  H   H975      1.0  0.67110  0.40719  0.01734  1.0000
  C   C995      1.0  0.56988  0.45710  0.42595  1.0000
  H   H976      1.0  0.72515  0.27545  0.89318  1.0000
  H   H977      1.0  0.66833  0.42840  0.21828  1.0000
  H   H978      1.0  0.58127  0.26044  0.77429  1.0000
  C   C996      1.0  0.59410  0.27164  0.81646  1.0000
  C   C997      1.0  0.64303  0.27550  0.07903  1.0000
  C   C998      1.0  0.55233  0.46941  0.69022  1.0000
  C   C999      1.0  0.55055  0.44409  0.68370  1.0000
  S   S344      1.0  0.60816  0.46865  0.35901  1.0000
  C   C1000     1.0  0.56542  0.38068  0.29552  1.0000
  C   C1001     1.0  0.65378  0.28457  0.69278  1.0000
  H   H979      1.0  0.61111  0.48663  0.61066  1.0000
  C   C1002     1.0  0.63773  0.47774  0.54899  1.0000
  C   C1003     1.0  0.54185  0.45934  0.71298  1.0000
  C   C1004     1.0  0.62962  0.47714  0.19149  1.0000
  H   H980      1.0  0.69219  0.43060  0.20643  1.0000
  C   C1005     1.0  0.57940  0.36353  0.78990  1.0000
  C   C1006     1.0  0.61007  0.26963  0.85235  1.0000
  H   H981      1.0  0.70769  0.46496  0.25882  1.0000
  H   H982      1.0  0.53654  0.47228  0.17974  1.0000
  C   C1007     1.0  0.67431  0.43484  0.23065  1.0000
  N   N80       1.0  0.56806  0.36387  0.74130  1.0000
  C   C1008     1.0  0.57048  0.35231  0.73682  1.0000
  C   C1009     1.0  0.56031  0.36998  0.71900  1.0000
  H   H983      1.0  0.56737  0.34800  0.71544  1.0000
  C   C1010     1.0  0.60159  0.48879  0.23525  1.0000
  H   H984      1.0  0.56310  0.38075  0.71470  1.0000
  S   S345      1.0  0.64616  0.47964  0.33949  1.0000
  H   H985      1.0  0.58679  0.43457  0.41433  1.0000
  S   S346      1.0  0.65978  0.47864  0.23581  1.0000
  H   H986      1.0  0.59281  0.41413  0.08333  1.0000
  H   H987      1.0  0.74035  0.44002  0.85425  1.0000
  C   C1011     1.0  0.68155  0.48682  0.71562  1.0000
  H   H988      1.0  0.53287  0.43047  0.17365  1.0000
  H   H989      1.0  0.54760  0.39505  0.12663  1.0000
  C   C1012     1.0  0.54861  0.40444  0.13488  1.0000
  C   C1013     1.0  0.69800  0.46007  0.27829  1.0000
  C   C1014     1.0  0.52814  0.48794  0.19091  1.0000
  C   C1015     1.0  0.56214  0.42671  0.10714  1.0000
  H   H990      1.0  0.57554  0.47272  0.45192  1.0000
  C   C1016     1.0  0.52772  0.47568  0.18404  1.0000
  H   H991      1.0  0.54026  0.40834  0.12928  1.0000
  C   C1017     1.0  0.66365  0.25126  0.06820  1.0000
  C   C1018     1.0  0.56090  0.45439  0.66150  1.0000
  H   H992      1.0  0.72562  0.46641  0.86106  1.0000
  H   H993      1.0  0.57126  0.39877  0.11319  1.0000
  C   C1019     1.0  0.52084  0.43823  0.14027  1.0000
  C   C1020     1.0  0.50456  0.47325  0.88366  1.0000
  C   C1021     1.0  0.54097  0.44662  0.70954  1.0000
  Fe  Fe176     1.0  0.62111  0.49047  0.66954  1.0000
  C   C1022     1.0  0.51597  0.48374  0.56849  1.0000
  H   H994      1.0  0.53658  0.37441  0.41037  1.0000
  C   C1023     1.0  0.55312  0.38295  0.29682  1.0000
  H   H995      1.0  0.62835  0.29434  0.64193  1.0000
  H   H996      1.0  0.51334  0.48758  0.54252  1.0000
  H   H997      1.0  0.53644  0.38648  0.33029  1.0000
  H   H998      1.0  0.57118  0.37966  0.26999  1.0000
  H   H999      1.0  0.64657  0.31977  0.63876  1.0000
  N   N81       1.0  0.50595  0.47199  0.59037  1.0000
  H   H1000     1.0  0.58012  0.37869  0.32577  1.0000
  S   S347      1.0  0.73253  0.26092  0.05487  1.0000
  H   H1001     1.0  0.54877  0.38825  0.41311  1.0000
  N   N82       1.0  0.55082  0.38376  0.36035  1.0000
  C   C1024     1.0  0.54268  0.38430  0.39531  1.0000
  H   H1002     1.0  0.54930  0.38368  0.27231  1.0000
  C   C1025     1.0  0.68397  0.25801  0.08618  1.0000
  C   C1026     1.0  0.66229  0.26404  0.16222  1.0000
  H   H1003     1.0  0.51704  0.49136  0.58429  1.0000
  H   H1004     1.0  0.53620  0.39085  0.39044  1.0000
  C   C1027     1.0  0.57045  0.38017  0.32678  1.0000
  H   H1005     1.0  0.63138  0.27210  0.64855  1.0000
  H   H1006     1.0  0.51273  0.42963  0.15030  1.0000
  N   N83       1.0  0.59241  0.25887  0.81511  1.0000
  H   H1007     1.0  0.50332  0.47214  0.94165  1.0000
  C   C1028     1.0  0.67594  0.25996  0.06189  1.0000
  C   C1029     1.0  0.63564  0.29172  0.65586  1.0000
  H   H1008     1.0  0.56689  0.38123  0.38347  1.0000
  S   S348      1.0  0.49915  0.47258  0.71068  1.0000
  H   H1009     1.0  0.64480  0.28625  0.07066  1.0000
  S   S349      1.0  0.70786  0.25548  0.82131  1.0000
  S   S350      1.0  0.72228  0.25856  0.14394  1.0000
  S   S351      1.0  0.74105  0.46252  0.09947  1.0000
  H   H1010     1.0  0.64783  0.26579  0.68111  1.0000
  H   H1011     1.0  0.58027  0.47966  0.65618  1.0000
  C   C1030     1.0  0.60811  0.25658  0.85133  1.0000
  C   C1031     1.0  0.63738  0.27914  0.65928  1.0000
  C   C1032     1.0  0.65173  0.29704  0.68904  1.0000
  H   H1012     1.0  0.66665  0.28726  0.08408  1.0000
  C   C1033     1.0  0.64984  0.25675  0.16340  1.0000
  S   S352      1.0  0.74595  0.25981  0.78067  1.0000
  N   N84       1.0  0.50480  0.47224  0.18642  1.0000
  Fe  Fe177     1.0  0.72441  0.24897  0.79183  1.0000
  H   H1013     1.0  0.51492  0.45599  0.67072  1.0000
  C   C1034     1.0  0.60303  0.27724  0.83485  1.0000
  H   H1014     1.0  0.73545  0.47371  0.90778  1.0000
  S   S353      1.0  0.50518  0.44865  0.10033  1.0000
  H   H1015     1.0  0.63117  0.48386  0.55735  1.0000
  H   H1016     1.0  0.61710  0.27389  0.86643  1.0000
  S   S354      1.0  0.63955  0.49153  0.62906  1.0000
  H   H1017     1.0  0.63550  0.47535  0.21202  1.0000
  Fe  Fe178     1.0  0.50351  0.46826  0.07105  1.0000
  H   H1018     1.0  0.63638  0.48148  0.16385  1.0000
  H   H1019     1.0  0.63040  0.31345  0.66937  1.0000
  N   N85       1.0  0.73190  0.25877  0.90932  1.0000
  H   H1020     1.0  0.66085  0.28186  0.70753  1.0000
  H   H1021     1.0  0.73555  0.46571  0.81865  1.0000
  C   C1035     1.0  0.73467  0.47168  0.83931  1.0000
  H   H1022     1.0  0.71333  0.26003  0.90036  1.0000
  Fe  Fe179     1.0  0.65274  0.48927  0.27884  1.0000
  H   H1023     1.0  0.64673  0.27197  0.05456  1.0000
  N   N86       1.0  0.62157  0.48580  0.20185  1.0000
  H   H1024     1.0  0.68871  0.49588  0.71222  1.0000
  H   H1025     1.0  0.50992  0.46589  0.88275  1.0000
  C   C1036     1.0  0.50738  0.45999  0.58706  1.0000
  C   C1037     1.0  0.58291  0.25302  0.79627  1.0000
  H   H1026     1.0  0.73170  0.25626  0.85525  1.0000
  H   H1027     1.0  0.56916  0.48650  0.63303  1.0000
  C   C1038     1.0  0.50506  0.48411  0.19406  1.0000
  H   H1028     1.0  0.53729  0.49424  0.19179  1.0000
  H   H1029     1.0  0.52573  0.48172  0.56192  1.0000
  S   S355      1.0  0.63299  0.49218  0.27529  1.0000
  H   H1030     1.0  0.70771  0.48988  0.21716  1.0000
  N   N87       1.0  0.74618  0.47344  0.85474  1.0000
  H   H1031     1.0  0.64525  0.24782  0.18459  1.0000
  H   H1032     1.0  0.65567  0.24868  0.90199  1.0000
  H   H1033     1.0  0.71697  0.26564  0.93930  1.0000
  C   C1039     1.0  0.74749  0.26703  0.20939  1.0000
  H   H1034     1.0  0.52798  0.49323  0.84347  1.0000
  C   C1040     1.0  0.73769  0.25703  0.93825  1.0000
  H   H1035     1.0  0.65759  0.25278  0.04924  1.0000
  H   H1036     1.0  0.73427  0.26011  0.96303  1.0000
  C   C1041     1.0  0.74488  0.28351  0.79787  1.0000
  S   S356      1.0  0.52310  0.49563  0.71771  1.0000
  H   H1037     1.0  0.74689  0.25097  0.18339  1.0000
  Fe  Fe180     1.0  0.51952  0.49625  0.04067  1.0000
  C   C1042     1.0  0.49787  0.44869  0.60762  1.0000
  C   C1043     1.0  0.74629  0.24853  0.87603  1.0000
  C   C1044     1.0  0.74778  0.25076  0.93702  1.0000
  H   H1038     1.0  0.57349  0.24786  0.81646  1.0000
  H   H1039     1.0  0.54002  0.59584  0.13909  1.0000
  C   C1045     1.0  0.50608  0.56392  0.28337  1.0000
  H   H1040     1.0  0.60097  0.56140  0.99621  1.0000
  H   H1041     1.0  0.49917  0.56689  0.26718  1.0000
  S   S357      1.0  0.51769  0.65122  0.32607  1.0000
  S   S358      1.0  0.63424  0.51458  0.53990  1.0000
  N   N88       1.0  0.54033  0.51183  0.81432  1.0000
  H   H1042     1.0  0.55965  0.53416  0.00067  1.0000
  Fe  Fe181     1.0  0.51910  0.63150  0.31690  1.0000
  S   S359      1.0  0.53756  0.62453  0.30669  1.0000
  H   H1043     1.0  0.52112  0.54335  0.11954  1.0000
  H   H1044     1.0  0.52235  0.50691  0.85426  1.0000
  Fe  Fe182     1.0  0.50774  0.61260  0.69112  1.0000
  S   S360      1.0  0.51852  0.63364  0.66824  1.0000
  S   S361      1.0  0.51392  0.59505  0.71759  1.0000
  C   C1046     1.0  0.58491  0.54665  0.99135  1.0000
  H   H1045     1.0  0.50908  0.54899  0.92155  1.0000
  H   H1046     1.0  0.51647  0.59686  0.36771  1.0000
  Fe  Fe183     1.0  0.50792  0.63287  0.62261  1.0000
  S   S362      1.0  0.51906  0.64163  0.56304  1.0000
  C   C1047     1.0  0.66094  0.50637  0.46281  1.0000
  H   H1047     1.0  0.54279  0.52102  0.72260  1.0000
  H   H1048     1.0  0.51193  0.68312  0.30078  1.0000
  S   S363      1.0  0.66812  0.50199  0.67957  1.0000
  C   C1048     1.0  0.58354  0.60118  0.11492  1.0000
  Fe  Fe184     1.0  0.55777  0.56155  0.90352  1.0000
  S   S364      1.0  0.57617  0.57249  0.86024  1.0000
  S   S365      1.0  0.55097  0.55785  0.96552  1.0000
  Fe  Fe185     1.0  0.54507  0.55014  0.84774  1.0000
  S   S366      1.0  0.56226  0.55971  0.79991  1.0000
  S   S367      1.0  0.52646  0.53629  0.84891  1.0000
  Fe  Fe186     1.0  0.57436  0.55418  0.83925  1.0000
  S   S368      1.0  0.58849  0.54144  0.83447  1.0000
  Fe  Fe187     1.0  0.56241  0.57711  0.82420  1.0000
  S   S369      1.0  0.56245  0.59664  0.78976  1.0000
  S   S370      1.0  0.55691  0.54310  0.88509  1.0000
  S   S371      1.0  0.54433  0.56767  0.86949  1.0000
  Fe  Fe188     1.0  0.57255  0.55201  0.21711  1.0000
  S   S372      1.0  0.57095  0.54407  0.16726  1.0000
  S   S373      1.0  0.58101  0.54258  0.26250  1.0000
  Fe  Fe189     1.0  0.55455  0.57006  0.20247  1.0000
  S   S374      1.0  0.55193  0.56354  0.15145  1.0000
  S   S375      1.0  0.54000  0.58207  0.21340  1.0000
  Fe  Fe190     1.0  0.54974  0.54350  0.18401  1.0000
  S   S376      1.0  0.53237  0.52853  0.18158  1.0000
  Fe  Fe191     1.0  0.57324  0.56484  0.13825  1.0000
  S   S377      1.0  0.58409  0.57366  0.07843  1.0000
  S   S378      1.0  0.55085  0.54971  0.23607  1.0000
  S   S379      1.0  0.57645  0.57317  0.18689  1.0000
  S   S380      1.0  0.51990  0.53103  0.69227  1.0000
  C   C1049     1.0  0.62908  0.53982  0.33905  1.0000
  Fe  Fe192     1.0  0.63927  0.51135  0.28834  1.0000
  C   C1050     1.0  0.54554  0.52052  0.74873  1.0000
  S   S381      1.0  0.63604  0.52928  0.25312  1.0000
  S   S382      1.0  0.50297  0.62048  0.36677  1.0000
  C   C1051     1.0  0.64988  0.53605  0.40663  1.0000
  H   H1049     1.0  0.66894  0.53238  0.39672  1.0000
  S   S383      1.0  0.63157  0.50347  0.34956  1.0000
  S   S384      1.0  0.50847  0.50137  0.65163  1.0000
  H   H1050     1.0  0.66469  0.54467  0.65363  1.0000
  H   H1051     1.0  0.50486  0.62664  0.78345  1.0000
  S   S385      1.0  0.65969  0.50930  0.28775  1.0000
  H   H1052     1.0  0.60082  0.55619  0.88684  1.0000
  C   C1052     1.0  0.56046  0.52806  0.78441  1.0000
  S   S386      1.0  0.62292  0.53686  0.68471  1.0000
  H   H1053     1.0  0.56229  0.52752  0.96132  1.0000
  C   C1053     1.0  0.55176  0.51972  0.81634  1.0000
  H   H1054     1.0  0.50335  0.64409  0.20018  1.0000
  H   H1055     1.0  0.53594  0.62651  0.80851  1.0000
  H   H1056     1.0  0.54722  0.58890  0.10413  1.0000
  H   H1057     1.0  0.56381  0.53513  0.72558  1.0000
  H   H1058     1.0  0.59386  0.60937  0.15169  1.0000
  C   C1054     1.0  0.51554  0.62755  0.77893  1.0000
  C   C1055     1.0  0.52056  0.67021  0.64907  1.0000
  C   C1056     1.0  0.63946  0.53788  0.39112  1.0000
  H   H1059     1.0  0.64915  0.53545  0.43582  1.0000
  C   C1057     1.0  0.60234  0.55998  0.93981  1.0000
  H   H1060     1.0  0.62346  0.54573  0.35298  1.0000
  H   H1061     1.0  0.53343  0.58657  0.34201  1.0000
  C   C1058     1.0  0.63484  0.50710  0.47534  1.0000
  C   C1059     1.0  0.61968  0.50738  0.20377  1.0000
  C   C1060     1.0  0.50264  0.67982  0.61617  1.0000
  C   C1061     1.0  0.65629  0.51683  0.74621  1.0000
  C   C1062     1.0  0.50452  0.68267  0.64938  1.0000
  H   H1062     1.0  0.54113  0.60684  0.84079  1.0000
  N   N89       1.0  0.64025  0.53830  0.35456  1.0000
  C   C1063     1.0  0.66160  0.53446  0.34771  1.0000
  C   C1064     1.0  0.52270  0.53481  0.95203  1.0000
  S   S387      1.0  0.50628  0.63158  0.27718  1.0000
  C   C1065     1.0  0.59603  0.53814  0.25716  1.0000
  C   C1066     1.0  0.59750  0.52827  0.28479  1.0000
  C   C1067     1.0  0.60955  0.52509  0.28314  1.0000
  C   C1068     1.0  0.62038  0.53206  0.25441  1.0000
  C   C1069     1.0  0.61889  0.54181  0.22651  1.0000
  C   C1070     1.0  0.60673  0.54473  0.22759  1.0000
  H   H1063     1.0  0.58926  0.52313  0.30777  1.0000
  H   H1064     1.0  0.61051  0.51744  0.30455  1.0000
  H   H1065     1.0  0.62723  0.54726  0.20416  1.0000
  H   H1066     1.0  0.60576  0.55242  0.20632  1.0000
  C   C1071     1.0  0.53471  0.52393  0.13972  1.0000
  C   C1072     1.0  0.54723  0.52565  0.11781  1.0000
  C   C1073     1.0  0.54875  0.52149  0.08487  1.0000
  C   C1074     1.0  0.53773  0.51586  0.07364  1.0000
  C   C1075     1.0  0.52529  0.51478  0.09479  1.0000
  C   C1076     1.0  0.52376  0.51848  0.12813  1.0000
  H   H1067     1.0  0.55573  0.52983  0.12669  1.0000
  H   H1068     1.0  0.55842  0.52233  0.06877  1.0000
  H   H1069     1.0  0.51674  0.51095  0.08576  1.0000
  H   H1070     1.0  0.51405  0.51717  0.14487  1.0000
  C   C1077     1.0  0.61201  0.53715  0.72547  1.0000
  C   C1078     1.0  0.60735  0.54827  0.72655  1.0000
  C   C1079     1.0  0.59964  0.54945  0.75938  1.0000
  C   C1080     1.0  0.59685  0.53967  0.79172  1.0000
  C   C1081     1.0  0.60135  0.52846  0.79059  1.0000
  C   C1082     1.0  0.60874  0.52710  0.75745  1.0000
  H   H1071     1.0  0.60987  0.55610  0.70192  1.0000
  H   H1072     1.0  0.59628  0.55816  0.75991  1.0000
  H   H1073     1.0  0.59918  0.52082  0.81548  1.0000
  H   H1074     1.0  0.61220  0.51846  0.75686  1.0000
  C   C1083     1.0  0.52036  0.53398  0.73562  1.0000
  C   C1084     1.0  0.51198  0.52524  0.76733  1.0000
  C   C1085     1.0  0.51347  0.52648  0.80221  1.0000
  C   C1086     1.0  0.52349  0.53637  0.80544  1.0000
  C   C1087     1.0  0.53146  0.54556  0.77390  1.0000
  C   C1088     1.0  0.52982  0.54443  0.73889  1.0000
  H   H1075     1.0  0.50245  0.66755  0.36190  1.0000
  H   H1076     1.0  0.50715  0.51945  0.82658  1.0000
  H   H1077     1.0  0.53903  0.55338  0.77628  1.0000
  H   H1078     1.0  0.53628  0.55128  0.71442  1.0000
  C   C1089     1.0  0.56055  0.56256  0.99568  1.0000
  C   C1090     1.0  0.55610  0.55626  0.03326  1.0000
  C   C1091     1.0  0.56335  0.55955  0.05852  1.0000
  C   C1092     1.0  0.57502  0.56937  0.04662  1.0000
  C   C1093     1.0  0.57949  0.57574  0.00900  1.0000
  C   C1094     1.0  0.57232  0.57229  0.98347  1.0000
  H   H1079     1.0  0.54707  0.54865  0.04289  1.0000
  H   H1080     1.0  0.55996  0.55433  0.08716  1.0000
  H   H1081     1.0  0.58852  0.58335  0.99958  1.0000
  H   H1082     1.0  0.57581  0.57721  0.95453  1.0000
  C   C1095     1.0  0.63961  0.52685  0.76975  1.0000
  H   H1083     1.0  0.51973  0.62892  0.74903  1.0000
  H   H1084     1.0  0.49870  0.68822  0.66302  1.0000
  H   H1085     1.0  0.50191  0.56982  0.70298  1.0000
  S   S388      1.0  0.64777  0.52240  0.62933  1.0000
  H   H1086     1.0  0.50765  0.69569  0.24613  1.0000
  H   H1087     1.0  0.53846  0.53051  0.97518  1.0000
  H   H1088     1.0  0.53553  0.50235  0.87187  1.0000
  H   H1089     1.0  0.52428  0.54442  0.95735  1.0000
  C   C1096     1.0  0.58465  0.60726  0.14374  1.0000
  C   C1097     1.0  0.52826  0.59578  0.73394  1.0000
  C   C1098     1.0  0.53020  0.58418  0.75301  1.0000
  C   C1099     1.0  0.54084  0.58437  0.76931  1.0000
  C   C1100     1.0  0.54978  0.59616  0.76629  1.0000
  C   C1101     1.0  0.54810  0.60775  0.74620  1.0000
  C   C1102     1.0  0.53732  0.60758  0.73023  1.0000
  H   H1090     1.0  0.52329  0.57499  0.75590  1.0000
  H   H1091     1.0  0.54201  0.57541  0.78473  1.0000
  H   H1092     1.0  0.55502  0.61689  0.74356  1.0000
  H   H1093     1.0  0.53600  0.61656  0.71526  1.0000
  H   H1094     1.0  0.66105  0.50893  0.74892  1.0000
  H   H1095     1.0  0.63233  0.54482  0.30919  1.0000
  H   H1096     1.0  0.55422  0.51967  0.84265  1.0000
  Fe  Fe193     1.0  0.65137  0.49979  0.34858  1.0000
  H   H1097     1.0  0.62405  0.51779  0.19679  1.0000
  C   C1103     1.0  0.66101  0.53436  0.38469  1.0000
  H   H1098     1.0  0.51650  0.66852  0.54747  1.0000
  C   C1104     1.0  0.51316  0.64336  0.46000  1.0000
  C   C1105     1.0  0.51893  0.64295  0.49029  1.0000
  C   C1106     1.0  0.51129  0.64091  0.52622  1.0000
  C   C1107     1.0  0.51854  0.66765  0.61568  1.0000
  C   C1108     1.0  0.65877  0.54743  0.67671  1.0000
  H   H1099     1.0  0.51918  0.64504  0.43246  1.0000
  H   H1100     1.0  0.52938  0.64431  0.48581  1.0000
  H   H1101     1.0  0.56847  0.52175  0.00035  1.0000
  Fe  Fe194     1.0  0.51178  0.50963  0.69939  1.0000
  C   C1109     1.0  0.53866  0.61320  0.27920  1.0000
  C   C1110     1.0  0.54948  0.60785  0.27524  1.0000
  C   C1111     1.0  0.55019  0.59831  0.25495  1.0000
  C   C1112     1.0  0.54010  0.59421  0.23826  1.0000
  C   C1113     1.0  0.52946  0.59976  0.24160  1.0000
  C   C1114     1.0  0.52869  0.60912  0.26217  1.0000
  H   H1102     1.0  0.55723  0.61094  0.28843  1.0000
  H   H1103     1.0  0.55843  0.59406  0.25257  1.0000
  H   H1104     1.0  0.52161  0.59662  0.22879  1.0000
  H   H1105     1.0  0.52030  0.61306  0.26514  1.0000
  H   H1106     1.0  0.57071  0.59336  0.08344  1.0000
  C   C1115     1.0  0.52370  0.58395  0.33739  1.0000
  H   H1107     1.0  0.66030  0.51074  0.51621  1.0000
  S   S389      1.0  0.50217  0.50387  0.03420  1.0000
  H   H1108     1.0  0.66866  0.52695  0.69284  1.0000
  Fe  Fe195     1.0  0.64915  0.50342  0.66341  1.0000
  S   S390      1.0  0.50448  0.66627  0.24070  1.0000
  H   H1109     1.0  0.50175  0.60301  0.79140  1.0000
  H   H1110     1.0  0.50324  0.51471  0.91652  1.0000
  H   H1111     1.0  0.49956  0.52363  0.10141  1.0000
  H   H1112     1.0  0.51475  0.67957  0.69231  1.0000
  C   C1116     1.0  0.52378  0.59378  0.83632  1.0000
  H   H1113     1.0  0.58040  0.53886  0.91265  1.0000
  N   N90       1.0  0.51297  0.53039  0.93567  1.0000
  H   H1114     1.0  0.52846  0.57122  0.30308  1.0000
  S   S391      1.0  0.61731  0.50825  0.63773  1.0000
  C   C1117     1.0  0.51193  0.54550  0.12978  1.0000
  H   H1115     1.0  0.50175  0.53721  0.89970  1.0000
  C   C1118     1.0  0.66051  0.52703  0.71439  1.0000
  C   C1119     1.0  0.62693  0.49896  0.19236  1.0000
  C   C1120     1.0  0.54834  0.59786  0.11466  1.0000
  C   C1121     1.0  0.53715  0.51218  0.78116  1.0000
  C   C1122     1.0  0.57151  0.59819  0.10567  1.0000
  C   C1123     1.0  0.56197  0.60742  0.15229  1.0000
  C   C1124     1.0  0.53114  0.50317  0.84775  1.0000
  H   H1116     1.0  0.49847  0.56019  0.19299  1.0000
  C   C1125     1.0  0.57381  0.61046  0.16251  1.0000
  H   H1117     1.0  0.66472  0.55617  0.68236  1.0000
  C   C1126     1.0  0.65481  0.50879  0.49603  1.0000
  H   H1118     1.0  0.50448  0.51737  0.76520  1.0000
  C   C1127     1.0  0.56683  0.53050  0.98321  1.0000
  H   H1119     1.0  0.52789  0.50618  0.77993  1.0000
  H   H1120     1.0  0.58031  0.54414  0.02067  1.0000
  H   H1121     1.0  0.63069  0.53881  0.40866  1.0000
  S   S392      1.0  0.50176  0.65127  0.73764  1.0000
  Fe  Fe196     1.0  0.63645  0.51010  0.59883  1.0000
  C   C1128     1.0  0.51355  0.67783  0.66584  1.0000
  H   H1122     1.0  0.67000  0.53259  0.33095  1.0000
  H   H1123     1.0  0.65152  0.53633  0.30433  1.0000
  N   N91       1.0  0.65427  0.53677  0.71015  1.0000
  C   C1129     1.0  0.52917  0.61708  0.81316  1.0000
  H   H1124     1.0  0.50163  0.68419  0.17864  1.0000
  C   C1130     1.0  0.50195  0.68223  0.31512  1.0000
  Fe  Fe197     1.0  0.62866  0.51905  0.67059  1.0000
  H   H1125     1.0  0.65029  0.54989  0.66708  1.0000
  C   C1131     1.0  0.64179  0.50943  0.50199  1.0000
  C   C1132     1.0  0.50172  0.58641  0.34537  1.0000
  C   C1133     1.0  0.51104  0.55212  0.15790  1.0000
  H   H1126     1.0  0.55357  0.60989  0.16711  1.0000
  C   C1134     1.0  0.64411  0.53691  0.73761  1.0000
  C   C1135     1.0  0.53086  0.52702  0.96188  1.0000
  C   C1136     1.0  0.64088  0.50442  0.44258  1.0000
  H   H1127     1.0  0.63130  0.52684  0.79093  1.0000
  H   H1128     1.0  0.51730  0.50050  0.93391  1.0000
  C   C1137     1.0  0.53211  0.60602  0.83172  1.0000
  H   H1129     1.0  0.62252  0.53009  0.34204  1.0000
  N   N92       1.0  0.51816  0.61596  0.79989  1.0000
  Fe  Fe198     1.0  0.50335  0.65020  0.29001  1.0000
  C   C1138     1.0  0.52083  0.57532  0.31530  1.0000
  S   S393      1.0  0.53923  0.50948  0.03455  1.0000
  C   C1139     1.0  0.59660  0.55643  0.97762  1.0000
  C   C1140     1.0  0.59647  0.55360  0.91634  1.0000
  C   C1141     1.0  0.51005  0.60397  0.80377  1.0000
  H   H1130     1.0  0.63544  0.50284  0.42216  1.0000
  H   H1131     1.0  0.59186  0.59851  0.10028  1.0000
  H   H1132     1.0  0.54772  0.60605  0.09312  1.0000
  H   H1133     1.0  0.56954  0.53427  0.78605  1.0000
  H   H1134     1.0  0.57450  0.61511  0.18516  1.0000
  H   H1135     1.0  0.61131  0.56768  0.92870  1.0000
  C   C1142     1.0  0.51268  0.59271  0.82227  1.0000
  C   C1143     1.0  0.58484  0.54382  0.93107  1.0000
  C   C1144     1.0  0.55727  0.52850  0.75045  1.0000
  C   C1145     1.0  0.52908  0.51468  0.95483  1.0000
  C   C1146     1.0  0.65107  0.53646  0.33298  1.0000
  N   N93       1.0  0.56086  0.60107  0.12481  1.0000
  H   H1136     1.0  0.62477  0.50759  0.47978  1.0000
  N   N94       1.0  0.50880  0.57259  0.30769  1.0000
  H   H1137     1.0  0.63919  0.54466  0.73428  1.0000
  H   H1138     1.0  0.51978  0.63646  0.78737  1.0000
  H   H1139     1.0  0.51690  0.50154  0.20235  1.0000
  C   C1147     1.0  0.49916  0.57763  0.32350  1.0000
  H   H1140     1.0  0.52627  0.58510  0.84917  1.0000
  H   H1141     1.0  0.52389  0.66155  0.60306  1.0000
  S   S394      1.0  0.63080  0.50094  0.70671  1.0000
  H   H1142     1.0  0.60129  0.50866  0.23488  1.0000
  C   C1148     1.0  0.51904  0.51020  0.93863  1.0000
  S   S395      1.0  0.66244  0.50311  0.39236  1.0000
  H   H1143     1.0  0.53529  0.50850  0.96262  1.0000
  C   C1149     1.0  0.64570  0.51670  0.77389  1.0000
  C   C1150     1.0  0.51098  0.51820  0.92940  1.0000
  N   N95       1.0  0.57912  0.54061  0.96804  1.0000
  H   H1144     1.0  0.50004  0.65980  0.57199  1.0000
  N   N96       1.0  0.50977  0.67258  0.59947  1.0000
  H   H1145     1.0  0.63701  0.50300  0.17684  1.0000
  C   C1151     1.0  0.51415  0.58971  0.35191  1.0000
  H   H1146     1.0  0.64217  0.50869  0.79830  1.0000
  C   C1152     1.0  0.50739  0.66932  0.56530  1.0000
  H   H1147     1.0  0.52726  0.66603  0.66242  1.0000
  Fe  Fe199     1.0  0.50028  0.63999  0.37272  1.0000
  H   H1148     1.0  0.51515  0.56435  0.26298  1.0000
  C   C1153     1.0  0.65405  0.50439  0.43569  1.0000
  H   H1149     1.0  0.67115  0.50639  0.45768  1.0000
  C   C1154     1.0  0.50428  0.53850  0.92602  1.0000
  H   H1150     1.0  0.51237  0.53675  0.06990  1.0000
  H   H1151     1.0  0.51940  0.55486  0.16938  1.0000
  H   H1152     1.0  0.51307  0.55704  0.66719  1.0000
  H   H1153     1.0  0.50553  0.70853  0.26915  1.0000
  C   C1155     1.0  0.49974  0.64214  0.46534  1.0000
  H   H1154     1.0  0.50650  0.58320  0.82404  1.0000
  C   C1156     1.0  0.50050  0.69919  0.26432  1.0000
  C   C1157     1.0  0.50356  0.55281  0.66140  1.0000
  C   C1158     1.0  0.60693  0.50223  0.22538  1.0000
  H   H1155     1.0  0.50583  0.55000  0.63479  1.0000
  Fe  Fe200     1.0  0.50051  0.63791  0.69888  1.0000
  H   H1156     1.0  0.50181  0.55375  0.29997  1.0000
  S   S396      1.0  0.49858  0.61147  0.64318  1.0000
  H   H1157     1.0  0.49868  0.59613  0.22270  1.0000
  H   H1158     1.0  0.50384  0.67686  0.54890  1.0000
  C   C1159     1.0  0.50229  0.53416  0.08766  1.0000
  C   C1160     1.0  0.49930  0.55499  0.17132  1.0000
  N   N97       1.0  0.50138  0.54173  0.11566  1.0000
  H   H1159     1.0  0.49847  0.54384  0.68346  1.0000
  H   H1160     1.0  0.49845  0.64330  0.15771  1.0000
  C   C1161     1.0  0.49779  0.63921  0.53169  1.0000
  Fe  Fe201     1.0  0.54076  0.93384  0.32196  1.0000
  S   S397      1.0  0.53465  0.91506  0.36665  1.0000
  S   S398      1.0  0.56147  0.94306  0.28827  1.0000
  C   C1162     1.0  0.56654  0.96591  0.38158  1.0000
  H   H1161     1.0  0.54300  0.92170  0.46539  1.0000
  C   C1163     1.0  0.58294  0.98648  0.24836  1.0000
  Fe  Fe202     1.0  0.53810  0.93174  0.64124  1.0000
  S   S399      1.0  0.54761  0.92693  0.58858  1.0000
  Fe  Fe203     1.0  0.53992  0.94927  0.69696  1.0000
  Fe  Fe204     1.0  0.51379  0.93717  0.33165  1.0000
  S   S400      1.0  0.55222  0.96859  0.70250  1.0000
  H   H1162     1.0  0.56621  0.99004  0.28194  1.0000
  H   H1163     1.0  0.56141  0.98681  0.19260  1.0000
  S   S401      1.0  0.50654  0.88936  0.33891  1.0000
  S   S402      1.0  0.54613  0.93088  0.69209  1.0000
  S   S403      1.0  0.53370  0.95093  0.64315  1.0000
  C   C1164     1.0  0.54512  0.92427  0.51922  1.0000
  H   H1164     1.0  0.55791  0.96537  0.40239  1.0000
  H   H1165     1.0  0.51109  0.97336  0.67191  1.0000
  H   H1166     1.0  0.53644  0.98207  0.65928  1.0000
  S   S404      1.0  0.52482  0.92767  0.29368  1.0000
  H   H1167     1.0  0.49995  0.83732  0.29820  1.0000
  H   H1168     1.0  0.55013  0.94298  0.40498  1.0000
  H   H1169     1.0  0.56396  0.93709  0.41334  1.0000
  C   C1165     1.0  0.52818  0.87541  0.69994  1.0000
  C   C1166     1.0  0.50559  0.87723  0.80591  1.0000
  C   C1167     1.0  0.50085  0.83270  0.27527  1.0000
  C   C1168     1.0  0.53629  0.88191  0.71887  1.0000
  H   H1170     1.0  0.59721  0.96807  0.30712  1.0000
  N   N98       1.0  0.54456  0.97192  0.22492  1.0000
  C   C1169     1.0  0.50039  0.96582  0.76496  1.0000
  H   H1171     1.0  0.51494  0.84937  0.23811  1.0000
  H   H1172     1.0  0.54711  0.90457  0.74247  1.0000
  H   H1173     1.0  0.52674  0.95913  0.25951  1.0000
  Fe  Fe205     1.0  0.52276  0.92579  0.39897  1.0000
  C   C1170     1.0  0.53266  0.96908  0.24931  1.0000
  H   H1174     1.0  0.55445  0.92191  0.51635  1.0000
  C   C1171     1.0  0.57989  0.95551  0.34670  1.0000
  C   C1172     1.0  0.55607  0.97568  0.73906  1.0000
  C   C1173     1.0  0.56339  0.98875  0.73034  1.0000
  H   H1175     1.0  0.59289  0.98828  0.32215  1.0000
  C   C1174     1.0  0.56333  0.98778  0.79491  1.0000
  C   C1175     1.0  0.55580  0.97478  0.80374  1.0000
  C   C1176     1.0  0.55213  0.96878  0.77610  1.0000
  H   H1176     1.0  0.54479  0.95957  0.18802  1.0000
  H   H1177     1.0  0.51629  0.85102  0.16780  1.0000
  H   H1178     1.0  0.55296  0.96922  0.83214  1.0000
  H   H1179     1.0  0.54651  0.95873  0.78338  1.0000
  C   C1177     1.0  0.58631  0.97887  0.33704  1.0000
  C   C1178     1.0  0.52094  0.93006  0.52674  1.0000
  C   C1179     1.0  0.52740  0.93019  0.55553  1.0000
  C   C1180     1.0  0.53949  0.92723  0.55208  1.0000
  H   H1180     1.0  0.54618  0.95234  0.23368  1.0000
  C   C1181     1.0  0.53791  0.99568  0.88704  1.0000
  H   H1181     1.0  0.53122  0.98441  0.75132  1.0000
  H   H1182     1.0  0.52302  0.93261  0.58045  1.0000
  H   H1183     1.0  0.59815  0.97960  0.21922  1.0000
  C   C1182     1.0  0.56883  0.95997  0.27152  1.0000
  C   C1183     1.0  0.56319  0.96951  0.28301  1.0000
  C   C1184     1.0  0.57025  0.98278  0.27141  1.0000
  N   N99       1.0  0.51009  0.83400  0.21159  1.0000
  C   C1185     1.0  0.58827  0.97692  0.23621  1.0000
  C   C1186     1.0  0.58124  0.96381  0.24744  1.0000
  H   H1184     1.0  0.55365  0.96666  0.30187  1.0000
  C   C1187     1.0  0.54905  0.96145  0.21140  1.0000
  H   H1185     1.0  0.53573  0.87738  0.74737  1.0000
  H   H1186     1.0  0.58571  0.95654  0.23849  1.0000
  C   C1188     1.0  0.52795  0.97896  0.26161  1.0000
  S   S405      1.0  0.56817  0.99460  0.83090  1.0000
  H   H1187     1.0  0.52152  0.86593  0.71358  1.0000
  S   S406      1.0  0.52007  0.90221  0.77110  1.0000
  H   H1188     1.0  0.55843  0.93596  0.37181  1.0000
  C   C1189     1.0  0.50978  0.88118  0.23719  1.0000
  H   H1189     1.0  0.55989  0.96398  0.20212  1.0000
  Fe  Fe206     1.0  0.52543  0.92014  0.72333  1.0000
  H   H1190     1.0  0.51157  0.93234  0.52996  1.0000
  H   H1191     1.0  0.55738  0.89354  0.73822  1.0000
  H   H1192     1.0  0.49830  0.97968  0.61329  1.0000
  C   C1190     1.0  0.51205  0.88728  0.26581  1.0000
  H   H1193     1.0  0.54232  0.98752  0.88986  1.0000
  C   C1191     1.0  0.55298  0.90048  0.72260  1.0000
  H   H1194     1.0  0.50250  0.92536  0.62627  1.0000
  S   S407      1.0  0.50534  0.91908  0.37654  1.0000
  C   C1192     1.0  0.52827  0.88147  0.66403  1.0000
  C   C1193     1.0  0.53656  0.89383  0.64735  1.0000
  H   H1195     1.0  0.52006  0.89585  0.26033  1.0000
  Fe  Fe207     1.0  0.51425  0.93878  0.67747  1.0000
  H   H1196     1.0  0.51770  0.83647  0.15357  1.0000
  H   H1197     1.0  0.52908  0.84351  0.17786  1.0000
  C   C1194     1.0  0.53321  0.98786  0.67869  1.0000
  S   S408      1.0  0.53017  0.94478  0.35602  1.0000
  H   H1198     1.0  0.57316  0.98689  0.37029  1.0000
  C   C1195     1.0  0.53869  0.92422  0.49020  1.0000
  C   C1196     1.0  0.54473  0.89993  0.66683  1.0000
  S   S409      1.0  0.51760  0.92676  0.45925  1.0000
  S   S410      1.0  0.51977  0.93848  0.73143  1.0000
  C   C1197     1.0  0.52652  0.92708  0.49392  1.0000
  N   N100      1.0  0.52220  0.97971  0.70873  1.0000
  S   S411      1.0  0.51810  0.91961  0.67254  1.0000
  C   C1198     1.0  0.52257  0.97918  0.74470  1.0000
  H   H1199     1.0  0.55113  0.90955  0.65352  1.0000
  H   H1200     1.0  0.53663  0.89875  0.61957  1.0000
  C   C1199     1.0  0.55198  0.98451  0.21200  1.0000
  C   C1200     1.0  0.57516  0.97809  0.36377  1.0000
  C   C1201     1.0  0.51167  0.97228  0.77334  1.0000
  C   C1202     1.0  0.58875  0.96751  0.32857  1.0000
  Fe  Fe208     1.0  0.51764  0.90975  0.34058  1.0000
  N   N101      1.0  0.54459  0.89391  0.70204  1.0000
  H   H1201     1.0  0.58164  0.94677  0.33909  1.0000
  C   C1203     1.0  0.51875  0.84157  0.17594  1.0000
  N   N102      1.0  0.56889  0.95484  0.37257  1.0000
  H   H1202     1.0  0.51612  0.88518  0.20980  1.0000
  C   C1204     1.0  0.55992  0.94211  0.39167  1.0000
  H   H1203     1.0  0.50904  0.87908  0.82976  1.0000
  C   C1205     1.0  0.54767  0.99458  0.22426  1.0000
  C   C1206     1.0  0.50407  0.88218  0.30152  1.0000
  H   H1204     1.0  0.50766  0.89201  0.71701  1.0000
  H   H1205     1.0  0.56110  0.90855  0.70398  1.0000
  C   C1207     1.0  0.50483  0.88456  0.74249  1.0000
  S   S412      1.0  0.50103  0.94947  0.31319  1.0000
  H   H1206     1.0  0.51192  0.97215  0.80171  1.0000
  H   H1207     1.0  0.51846  0.97662  0.28082  1.0000
  C   C1208     1.0  0.50938  0.88707  0.77305  1.0000
  H   H1208     1.0  0.52180  0.87668  0.64936  1.0000
  C   C1209     1.0  0.51130  0.97313  0.70035  1.0000
  C   C1210     1.0  0.50932  0.83948  0.24117  1.0000
  H   H1209     1.0  0.51012  0.94500  0.24167  1.0000
  H   H1210     1.0  0.50337  0.81721  0.19187  1.0000
  C   C1211     1.0  0.50288  0.82160  0.21528  1.0000
  C   C1212     1.0  0.53553  0.99180  0.24893  1.0000
  C   C1213     1.0  0.56696  0.99479  0.75800  1.0000
  H   H1211     1.0  0.56650  0.99423  0.70185  1.0000
  C   C1214     1.0  0.49977  0.94051  0.25130  1.0000
  H   H1212     1.0  0.54177  0.99181  0.68919  1.0000
  C   C1215     1.0  0.49941  0.87002  0.24362  1.0000
  H   H1213     1.0  0.49832  0.97164  0.14681  1.0000
  C   C1216     1.0  0.50023  0.96612  0.72829  1.0000
  S   S413      1.0  0.51923  0.99628  0.12024  1.0000
  H   H1214     1.0  0.53034  0.99629  0.66401  1.0000
  H   H1215     1.0  0.49853  0.93326  0.20283  1.0000
  H   H1216     1.0  0.53766  0.99650  0.83020  1.0000
  C   C1217     1.0  0.75207  0.24646  0.90569  1.0000
  H   H1217     1.0  0.74959  0.24535  0.85130  1.0000
  H   H1218     1.0  0.75979  0.24147  0.90451  1.0000
  C   C1218     1.0  0.93367  0.39812  0.73636  1.0000
  S   S414      1.0  0.98159  0.44591  0.73657  1.0000
  S   S415      1.0  0.94308  0.47754  0.34880  1.0000
  C   C1219     1.0  0.96217  0.43089  0.64945  1.0000
  C   C1220     1.0  0.87180  0.49343  0.77369  1.0000
  H   H1219     1.0  0.97024  0.48218  0.62463  1.0000
  C   C1221     1.0  0.93574  0.48467  0.57112  1.0000
  N   N103      1.0  0.95201  0.39772  0.68987  1.0000
  Fe  Fe209     1.0  0.91123  0.40150  0.31043  1.0000
  S   S416      1.0  0.91442  0.39399  0.25829  1.0000
  S   S417      1.0  0.90898  0.39043  0.36963  1.0000
  Fe  Fe210     1.0  0.90861  0.42691  0.27082  1.0000
  S   S418      1.0  0.91158  0.42196  0.21639  1.0000
  S   S419      1.0  0.90401  0.44580  0.27512  1.0000
  Fe  Fe211     1.0  0.89794  0.40239  0.24524  1.0000
  S   S420      1.0  0.88328  0.39808  0.20999  1.0000
  Fe  Fe212     1.0  0.92787  0.41408  0.23190  1.0000
  H   H1220     1.0  0.92686  0.48156  0.59428  1.0000
  S   S421      1.0  0.89370  0.40823  0.29907  1.0000
  S   S422      1.0  0.92602  0.42074  0.28448  1.0000
  H   H1221     1.0  0.78229  0.36642  0.75791  1.0000
  H   H1222     1.0  0.85852  0.49138  0.67499  1.0000
  H   H1223     1.0  0.97587  0.46100  0.17337  1.0000
  S   S423      1.0  0.94459  0.47745  0.69725  1.0000
  C   C1222     1.0  0.91998  0.37626  0.18511  1.0000
  N   N104      1.0  0.97783  0.47761  0.19613  1.0000
  Fe  Fe213     1.0  0.91663  0.41427  0.55968  1.0000
  S   S424      1.0  0.92428  0.40033  0.59690  1.0000
  C   C1223     1.0  0.75267  0.27531  0.78817  1.0000
  Fe  Fe214     1.0  0.90919  0.42779  0.62122  1.0000
  S   S425      1.0  0.91612  0.41494  0.66218  1.0000
  S   S426      1.0  0.90159  0.44402  0.63824  1.0000
  H   H1224     1.0  0.78692  0.30770  0.96200  1.0000
  Fe  Fe215     1.0  0.90599  0.39880  0.64027  1.0000
  S   S427      1.0  0.89426  0.38195  0.68896  1.0000
  S   S428      1.0  0.92719  0.43166  0.57638  1.0000
  S   S429      1.0  0.89782  0.41166  0.60201  1.0000
  Fe  Fe216     1.0  0.83214  0.34995  0.14279  1.0000
  S   S430      1.0  0.83589  0.36737  0.09587  1.0000
  S   S431      1.0  0.84570  0.34866  0.18214  1.0000
  Fe  Fe217     1.0  0.80544  0.33716  0.12917  1.0000
  S   S432      1.0  0.80728  0.35417  0.08263  1.0000
  S   S433      1.0  0.78569  0.32190  0.14870  1.0000
  Fe  Fe218     1.0  0.82791  0.35312  0.06487  1.0000
  S   S434      1.0  0.83641  0.35778  0.00361  1.0000
  Fe  Fe219     1.0  0.81500  0.36684  0.11762  1.0000
  S   S435      1.0  0.80871  0.38514  0.12140  1.0000
  S   S436      1.0  0.82594  0.33536  0.10967  1.0000
  S   S437      1.0  0.81140  0.35011  0.16627  1.0000
  Fe  Fe220     1.0  0.82106  0.34046  0.77069  1.0000
  S   S438      1.0  0.80271  0.34592  0.76206  1.0000
  S   S439      1.0  0.83803  0.34346  0.72149  1.0000
  Fe  Fe221     1.0  0.81030  0.33130  0.85338  1.0000
  S   S440      1.0  0.79142  0.33647  0.85119  1.0000
  S   S441      1.0  0.81266  0.32130  0.90853  1.0000
  Fe  Fe222     1.0  0.79151  0.32710  0.80332  1.0000
  S   S442      1.0  0.77100  0.31618  0.80193  1.0000
  Fe  Fe223     1.0  0.80397  0.35463  0.81049  1.0000
  S   S443      1.0  0.79895  0.37385  0.80803  1.0000
  S   S444      1.0  0.80979  0.32073  0.80802  1.0000
  S   S445      1.0  0.82299  0.35034  0.81662  1.0000
  H   H1225     1.0  0.98390  0.43337  0.22933  1.0000
  C   C1224     1.0  0.88079  0.48365  0.72623  1.0000
  H   H1226     1.0  0.96959  0.39169  0.68347  1.0000
  Fe  Fe224     1.0  0.85609  0.47020  0.18774  1.0000
  S   S446      1.0  0.83652  0.45557  0.21313  1.0000
  S   S447      1.0  0.86661  0.47625  0.23166  1.0000
  Fe  Fe225     1.0  0.85436  0.46644  0.11028  1.0000
  S   S448      1.0  0.83519  0.45142  0.13026  1.0000
  S   S449      1.0  0.86421  0.47053  0.04993  1.0000
  Fe  Fe226     1.0  0.82951  0.46475  0.16496  1.0000
  S   S450      1.0  0.81004  0.47011  0.16965  1.0000
  Fe  Fe227     1.0  0.84375  0.44354  0.17607  1.0000
  S   S451      1.0  0.84310  0.42239  0.19472  1.0000
  S   S452      1.0  0.84840  0.48057  0.14232  1.0000
  S   S453      1.0  0.86354  0.45739  0.15337  1.0000
  Fe  Fe228     1.0  0.82807  0.43629  0.85874  1.0000
  S   S454      1.0  0.84365  0.45326  0.86118  1.0000
  S   S455      1.0  0.83254  0.41666  0.86829  1.0000
  Fe  Fe229     1.0  0.80839  0.45268  0.84597  1.0000
  S   S456      1.0  0.82305  0.47111  0.84491  1.0000
  S   S457      1.0  0.78635  0.45109  0.85970  1.0000
  Fe  Fe230     1.0  0.83836  0.46371  0.81148  1.0000
  S   S458      1.0  0.85458  0.47321  0.75869  1.0000
  Fe  Fe231     1.0  0.82735  0.45921  0.89425  1.0000
  S   S459      1.0  0.82399  0.46475  0.94891  1.0000
  S   S460      1.0  0.82322  0.44624  0.80784  1.0000
  S   S461      1.0  0.81237  0.44118  0.89643  1.0000
  C   C1225     1.0  0.85320  0.46917  0.02128  1.0000
  C   C1226     1.0  0.85730  0.46759  0.98550  1.0000
  C   C1227     1.0  0.84849  0.46626  0.96272  1.0000
  C   C1228     1.0  0.83558  0.46667  0.97560  1.0000
  C   C1229     1.0  0.83153  0.46831  0.01127  1.0000
  C   C1230     1.0  0.84028  0.46951  0.03407  1.0000
  H   H1227     1.0  0.86731  0.46737  0.97544  1.0000
  H   H1228     1.0  0.85171  0.46504  0.93519  1.0000
  H   H1229     1.0  0.82158  0.46867  0.02139  1.0000
  H   H1230     1.0  0.83707  0.47093  0.06134  1.0000
  H   H1231     1.0  0.81617  0.49532  0.19214  1.0000
  C   C1231     1.0  0.76613  0.45026  0.77932  1.0000
  C   C1232     1.0  0.77649  0.45107  0.79719  1.0000
  C   C1233     1.0  0.77383  0.44809  0.83571  1.0000
  C   C1234     1.0  0.76071  0.44398  0.85606  1.0000
  H   H1232     1.0  0.99659  0.47712  0.16671  1.0000
  H   H1233     1.0  0.76830  0.45287  0.74949  1.0000
  H   H1234     1.0  0.78650  0.45438  0.78113  1.0000
  H   H1235     1.0  0.75851  0.44176  0.88585  1.0000
  H   H1236     1.0  0.77738  0.31370  0.05193  1.0000
  C   C1235     1.0  0.97450  0.44102  0.70123  1.0000
  C   C1236     1.0  0.78504  0.46566  0.15952  1.0000
  C   C1237     1.0  0.79599  0.46062  0.16050  1.0000
  C   C1238     1.0  0.79540  0.44815  0.15485  1.0000
  C   C1239     1.0  0.78396  0.44081  0.14851  1.0000
  H   H1237     1.0  0.78537  0.47529  0.16380  1.0000
  H   H1238     1.0  0.80371  0.44411  0.15565  1.0000
  H   H1239     1.0  0.78361  0.43116  0.14427  1.0000
  C   C1240     1.0  0.80832  0.38555  0.82530  1.0000
  C   C1241     1.0  0.81813  0.38282  0.84243  1.0000
  C   C1242     1.0  0.82545  0.39239  0.85587  1.0000
  C   C1243     1.0  0.82297  0.40471  0.85229  1.0000
  C   C1244     1.0  0.81316  0.40743  0.83526  1.0000
  C   C1245     1.0  0.80585  0.39786  0.82183  1.0000
  H   H1240     1.0  0.82002  0.37333  0.84556  1.0000
  H   H1241     1.0  0.83301  0.39024  0.86915  1.0000
  H   H1242     1.0  0.81114  0.41688  0.83254  1.0000
  H   H1243     1.0  0.79825  0.40003  0.80871  1.0000
  H   H1244     1.0  0.85278  0.39888  0.23221  1.0000
  H   H1245     1.0  0.84294  0.40200  0.27160  1.0000
  H   H1246     1.0  0.85013  0.43650  0.80012  1.0000
  C   C1246     1.0  0.76428  0.30019  0.79764  1.0000
  C   C1247     1.0  0.77204  0.29187  0.78874  1.0000
  C   C1248     1.0  0.75306  0.25894  0.19055  1.0000
  C   C1249     1.0  0.85642  0.43417  0.77785  1.0000
  H   H1247     1.0  0.78251  0.29502  0.78490  1.0000
  C   C1250     1.0  0.76351  0.44459  0.99284  1.0000
  C   C1251     1.0  0.81872  0.39586  0.13981  1.0000
  C   C1252     1.0  0.83006  0.39324  0.14835  1.0000
  C   C1253     1.0  0.83783  0.40175  0.16371  1.0000
  C   C1254     1.0  0.83425  0.41287  0.17081  1.0000
  C   C1255     1.0  0.82304  0.41565  0.16157  1.0000
  C   C1256     1.0  0.81530  0.40716  0.14600  1.0000
  H   H1248     1.0  0.83273  0.38452  0.14388  1.0000
  H   H1249     1.0  0.84645  0.39956  0.17085  1.0000
  H   H1250     1.0  0.82006  0.42409  0.16759  1.0000
  H   H1251     1.0  0.80650  0.40922  0.13944  1.0000
  C   C1257     1.0  0.82919  0.34761  0.97826  1.0000
  C   C1258     1.0  0.83023  0.35268  0.94075  1.0000
  C   C1259     1.0  0.82496  0.34473  0.91941  1.0000
  C   C1260     1.0  0.81897  0.33153  0.93517  1.0000
  C   C1261     1.0  0.81794  0.32642  0.97270  1.0000
  C   C1262     1.0  0.82284  0.33449  0.99439  1.0000
  H   H1252     1.0  0.83511  0.36283  0.92822  1.0000
  H   H1253     1.0  0.82575  0.34880  0.89066  1.0000
  H   H1254     1.0  0.81329  0.31621  0.98509  1.0000
  H   H1255     1.0  0.82207  0.33051  0.02329  1.0000
  C   C1263     1.0  0.77935  0.30883  0.12994  1.0000
  C   C1264     1.0  0.78746  0.30283  0.10973  1.0000
  C   C1265     1.0  0.76574  0.30363  0.13828  1.0000
  H   H1256     1.0  0.79796  0.30665  0.10336  1.0000
  H   H1257     1.0  0.75938  0.30818  0.15398  1.0000
  C   C1266     1.0  0.87776  0.37361  0.69402  1.0000
  C   C1267     1.0  0.87425  0.36665  0.66854  1.0000
  C   C1268     1.0  0.86184  0.35785  0.67673  1.0000
  C   C1269     1.0  0.85269  0.35609  0.71012  1.0000
  C   C1270     1.0  0.85594  0.36356  0.73480  1.0000
  C   C1271     1.0  0.86850  0.37209  0.72708  1.0000
  H   H1258     1.0  0.88135  0.36749  0.64335  1.0000
  H   H1259     1.0  0.85945  0.35211  0.65746  1.0000
  H   H1260     1.0  0.84902  0.36232  0.76061  1.0000
  H   H1261     1.0  0.87119  0.37724  0.74728  1.0000
  H   H1262     1.0  0.93134  0.39610  0.17040  1.0000
  H   H1263     1.0  0.98888  0.44600  0.11230  1.0000
  H   H1264     1.0  0.93809  0.46127  0.56350  1.0000
  N   N105      1.0  0.96357  0.47955  0.76211  1.0000
  N   N106      1.0  0.76892  0.28000  0.20601  1.0000
  H   H1265     1.0  0.97696  0.49328  0.22234  1.0000
  C   C1272     1.0  0.96349  0.47768  0.61020  1.0000
  C   C1273     1.0  0.95191  0.48140  0.77859  1.0000
  H   H1266     1.0  0.78545  0.33470  0.06677  1.0000
  C   C1274     1.0  0.96409  0.46711  0.75303  1.0000
  C   C1275     1.0  0.93208  0.46764  0.68407  1.0000
  C   C1276     1.0  0.93417  0.45666  0.67239  1.0000
  C   C1277     1.0  0.92487  0.44951  0.65794  1.0000
  C   C1278     1.0  0.91322  0.45304  0.65632  1.0000
  C   C1279     1.0  0.91094  0.46383  0.66907  1.0000
  C   C1280     1.0  0.92037  0.47112  0.68299  1.0000
  H   H1267     1.0  0.94320  0.45395  0.67330  1.0000
  H   H1268     1.0  0.92692  0.44145  0.64740  1.0000
  H   H1269     1.0  0.90195  0.46662  0.66795  1.0000
  H   H1270     1.0  0.91849  0.47931  0.69339  1.0000
  C   C1281     1.0  0.87314  0.38401  0.20292  1.0000
  C   C1282     1.0  0.86646  0.38567  0.17481  1.0000
  C   C1283     1.0  0.85817  0.37496  0.16789  1.0000
  C   C1284     1.0  0.85653  0.36237  0.18885  1.0000
  C   C1285     1.0  0.86337  0.36066  0.21670  1.0000
  C   C1286     1.0  0.87159  0.37143  0.22386  1.0000
  H   H1271     1.0  0.86771  0.39533  0.15811  1.0000
  H   H1272     1.0  0.85305  0.37646  0.14630  1.0000
  H   H1273     1.0  0.86216  0.35096  0.23315  1.0000
  H   H1274     1.0  0.87669  0.36997  0.24555  1.0000
  C   C1287     1.0  0.91278  0.39828  0.40470  1.0000
  C   C1288     1.0  0.91924  0.41150  0.39648  1.0000
  C   C1289     1.0  0.92171  0.41754  0.42497  1.0000
  C   C1290     1.0  0.91763  0.41053  0.46218  1.0000
  C   C1291     1.0  0.91132  0.39726  0.47046  1.0000
  C   C1292     1.0  0.90899  0.39117  0.44182  1.0000
  H   H1275     1.0  0.92233  0.41709  0.36815  1.0000
  H   H1276     1.0  0.90738  0.41161  0.14562  1.0000
  H   H1277     1.0  0.90808  0.39174  0.49889  1.0000
  H   H1278     1.0  0.90405  0.38093  0.44851  1.0000
  H   H1279     1.0  0.75123  0.28388  0.23145  1.0000
  H   H1280     1.0  0.96757  0.46110  0.77418  1.0000
  H   H1281     1.0  0.79060  0.33168  0.93710  1.0000
  C   C1293     1.0  0.83715  0.48370  0.25650  1.0000
  C   C1294     1.0  0.88084  0.48750  0.23503  1.0000
  C   C1295     1.0  0.88508  0.48549  0.26800  1.0000
  H   H1282     1.0  0.75112  0.35411  0.85566  1.0000
  H   H1283     1.0  0.81923  0.47021  0.28909  1.0000
  H   H1284     1.0  0.91466  0.38926  0.72954  1.0000
  H   H1285     1.0  0.87979  0.47713  0.29036  1.0000
  C   C1296     1.0  0.76927  0.47605  0.84724  1.0000
  C   C1297     1.0  0.95435  0.45947  0.58711  1.0000
  N   N107      1.0  0.83374  0.38631  0.25098  1.0000
  C   C1298     1.0  0.84530  0.39418  0.25855  1.0000
  C   C1299     1.0  0.95465  0.43208  0.68223  1.0000
  C   C1300     1.0  0.93171  0.46860  0.33011  1.0000
  C   C1301     1.0  0.92464  0.47491  0.30871  1.0000
  C   C1302     1.0  0.91597  0.46782  0.29234  1.0000
  C   C1303     1.0  0.91440  0.45443  0.29717  1.0000
  C   C1304     1.0  0.92121  0.44808  0.31934  1.0000
  C   C1305     1.0  0.92988  0.45515  0.33580  1.0000
  H   H1286     1.0  0.92589  0.48527  0.30442  1.0000
  H   H1287     1.0  0.91066  0.47280  0.27548  1.0000
  H   H1288     1.0  0.91963  0.43768  0.32462  1.0000
  H   H1289     1.0  0.93522  0.45022  0.35271  1.0000
  N   N108      1.0  0.89828  0.43334  0.43646  1.0000
  C   C1306     1.0  0.89256  0.42078  0.45621  1.0000
  C   C1307     1.0  0.89863  0.43690  0.39974  1.0000
  C   C1308     1.0  0.88732  0.41132  0.43895  1.0000
  C   C1309     1.0  0.89338  0.42771  0.38167  1.0000
  C   C1310     1.0  0.88788  0.41480  0.40135  1.0000
  H   H1290     1.0  0.89268  0.41783  0.48502  1.0000
  H   H1291     1.0  0.90327  0.44683  0.38403  1.0000
  H   H1292     1.0  0.88346  0.40123  0.45424  1.0000
  H   H1293     1.0  0.89396  0.43050  0.35234  1.0000
  H   H1294     1.0  0.88440  0.40744  0.38730  1.0000
  H   H1295     1.0  0.99256  0.44328  0.66214  1.0000
  C   C1311     1.0  0.75562  0.27754  0.21716  1.0000
  H   H1296     1.0  0.75923  0.47400  0.80431  1.0000
  C   C1312     1.0  0.75821  0.47463  0.83281  1.0000
  C   C1313     1.0  0.79394  0.34439  0.97306  1.0000
  C   C1314     1.0  0.92516  0.39151  0.71876  1.0000
  H   H1297     1.0  0.79117  0.46707  0.04741  1.0000
  C   C1315     1.0  0.95969  0.47747  0.24418  1.0000
  H   H1298     1.0  0.79642  0.35451  0.01571  1.0000
  C   C1316     1.0  0.99071  0.48420  0.17132  1.0000
  C   C1317     1.0  0.94373  0.39129  0.67235  1.0000
  C   C1318     1.0  0.94716  0.40105  0.72165  1.0000
  C   C1319     1.0  0.77314  0.44734  0.96014  1.0000
  C   C1320     1.0  0.79265  0.34525  0.00961  1.0000
  C   C1321     1.0  0.96344  0.46534  0.60443  1.0000
  C   C1322     1.0  0.97587  0.43514  0.64224  1.0000
  H   H1299     1.0  0.77704  0.33671  0.73369  1.0000
  C   C1323     1.0  0.95318  0.46519  0.24186  1.0000
  H   H1300     1.0  0.97023  0.46022  0.61403  1.0000
  C   C1324     1.0  0.78659  0.33415  0.03817  1.0000
  C   C1325     1.0  0.97141  0.46565  0.19336  1.0000
  C   C1326     1.0  0.89267  0.49337  0.71698  1.0000
  H   H1301     1.0  0.75314  0.33100  0.77597  1.0000
  N   N109      1.0  0.81626  0.48244  0.24213  1.0000
  N   N110      1.0  0.91363  0.39421  0.15233  1.0000
  H   H1302     1.0  0.98418  0.48753  0.74277  1.0000
  C   C1327     1.0  0.75574  0.47546  0.90612  1.0000
  C   C1328     1.0  0.77330  0.35945  0.77432  1.0000
  H   H1303     1.0  0.76804  0.34621  0.70925  1.0000
  H   H1304     1.0  0.86264  0.40505  0.71019  1.0000
  C   C1329     1.0  0.87019  0.48374  0.75417  1.0000
  C   C1330     1.0  0.78213  0.32226  0.02964  1.0000
  C   C1331     1.0  0.82368  0.47814  0.26477  1.0000
  H   H1305     1.0  0.84552  0.41422  0.79075  1.0000
  H   H1306     1.0  0.87965  0.47630  0.71066  1.0000
  H   H1307     1.0  0.90054  0.49335  0.69469  1.0000
  C   C1332     1.0  0.78198  0.29160  0.09879  1.0000
  H   H1308     1.0  0.77134  0.37021  0.81639  1.0000
  C   C1333     1.0  0.76715  0.36164  0.80753  1.0000
  C   C1334     1.0  0.77727  0.29095  0.21487  1.0000
  C   C1335     1.0  0.85385  0.42158  0.77229  1.0000
  H   H1309     1.0  0.84962  0.38806  0.27715  1.0000
  H   H1310     1.0  0.92984  0.40105  0.76103  1.0000
  N   N111      1.0  0.86171  0.41861  0.74411  1.0000
  C   C1336     1.0  0.85909  0.40525  0.73946  1.0000
  H   H1311     1.0  0.84842  0.40048  0.74768  1.0000
  C   C1337     1.0  0.78593  0.45382  0.95863  1.0000
  C   C1338     1.0  0.90854  0.36772  0.18361  1.0000
  H   H1312     1.0  0.82431  0.35817  0.22579  1.0000
  C   C1339     1.0  0.90507  0.44282  0.45374  1.0000
  H   H1313     1.0  0.91572  0.44351  0.44663  1.0000
  C   C1340     1.0  0.75583  0.35260  0.82956  1.0000
  S   S462      1.0  0.75915  0.43642  0.13726  1.0000
  C   C1341     1.0  0.83408  0.37452  0.24360  1.0000
  C   C1342     1.0  0.87241  0.42787  0.72153  1.0000
  C   C1343     1.0  0.86719  0.44371  0.75468  1.0000
  H   H1314     1.0  0.86928  0.45350  0.75883  1.0000
  H   H1315     1.0  0.86406  0.39946  0.75672  1.0000
  C   C1344     1.0  0.76685  0.44835  0.02369  1.0000
  H   H1316     1.0  0.95401  0.44968  0.21416  1.0000
  H   H1317     1.0  0.77237  0.27328  0.77640  1.0000
  C   C1345     1.0  0.97205  0.48364  0.22070  1.0000
  C   C1346     1.0  0.87527  0.44055  0.72636  1.0000
  H   H1318     1.0  0.87884  0.42552  0.69954  1.0000
  C   C1347     1.0  0.75070  0.34156  0.81803  1.0000
  C   C1348     1.0  0.77364  0.45836  0.15277  1.0000
  H   H1319     1.0  0.75936  0.44601  0.04922  1.0000
  H   H1320     1.0  0.88372  0.44785  0.70825  1.0000
  C   C1349     1.0  0.98201  0.44028  0.66780  1.0000
  H   H1321     1.0  0.98960  0.48927  0.14424  1.0000
  C   C1350     1.0  0.76625  0.27953  0.78392  1.0000
  C   C1351     1.0  0.98271  0.44107  0.13945  1.0000
  H   H1322     1.0  0.83226  0.44029  0.97858  1.0000
  H   H1323     1.0  0.83011  0.42598  0.93560  1.0000
  H   H1324     1.0  0.90165  0.43986  0.48432  1.0000
  H   H1325     1.0  0.90354  0.45260  0.44407  1.0000
  C   C1352     1.0  0.76025  0.29248  0.12699  1.0000
  C   C1353     1.0  0.77953  0.30881  0.98513  1.0000
  H   H1326     1.0  0.95439  0.46155  0.75142  1.0000
  C   C1354     1.0  0.77303  0.44586  0.14735  1.0000
  N   N112      1.0  0.77938  0.45486  0.02177  1.0000
  C   C1355     1.0  0.78890  0.45750  0.98995  1.0000
  H   H1327     1.0  0.92687  0.37267  0.19901  1.0000
  C   C1356     1.0  0.82195  0.49222  0.21087  1.0000
  H   H1328     1.0  0.82307  0.40075  0.25283  1.0000
  H   H1329     1.0  0.78835  0.28686  0.08385  1.0000
  C   C1357     1.0  0.83114  0.42996  0.98859  1.0000
  C   C1358     1.0  0.82991  0.42191  0.96413  1.0000
  H   H1330     1.0  0.77446  0.46043  0.07241  1.0000
  C   C1359     1.0  0.78281  0.45830  0.05469  1.0000
  H   H1331     1.0  0.83051  0.42826  0.07854  1.0000
  H   H1332     1.0  0.84292  0.43980  0.04131  1.0000
  C   C1360     1.0  0.75303  0.44633  0.79965  1.0000
  C   C1361     1.0  0.92243  0.38955  0.16899  1.0000
  C   C1362     1.0  0.96617  0.40052  0.67527  1.0000
  C   C1363     1.0  0.81300  0.37231  0.22942  1.0000
  C   C1364     1.0  0.77462  0.34628  0.72837  1.0000
  N   N113      1.0  0.83096  0.42489  0.02455  1.0000
  C   C1365     1.0  0.82846  0.40860  0.97662  1.0000
  C   C1366     1.0  0.83268  0.43367  0.04919  1.0000
  H   H1333     1.0  0.82754  0.40230  0.95773  1.0000
  H   H1334     1.0  0.86161  0.43173  0.24548  1.0000
  H   H1335     1.0  0.76533  0.46240  0.15182  1.0000
  H   H1336     1.0  0.79878  0.35293  0.95064  1.0000
  H   H1337     1.0  0.79887  0.46243  0.98870  1.0000
  C   C1367     1.0  0.97491  0.48906  0.75539  1.0000
  H   H1338     1.0  0.97154  0.40852  0.68543  1.0000
  C   C1368     1.0  0.85657  0.34119  0.83614  1.0000
  C   C1369     1.0  0.76836  0.28627  0.10767  1.0000
  C   C1370     1.0  0.95138  0.49308  0.78850  1.0000
  C   C1371     1.0  0.76662  0.26138  0.17991  1.0000
  H   H1339     1.0  0.99491  0.49564  0.86066  1.0000
  H   H1340     1.0  0.84738  0.30811  0.77262  1.0000
  C   C1372     1.0  0.84590  0.33090  0.85611  1.0000
  C   C1373     1.0  0.82960  0.41184  0.03705  1.0000
  C   C1374     1.0  0.82827  0.40349  0.01337  1.0000
  H   H1341     1.0  0.82602  0.44017  0.04732  1.0000
  H   H1342     1.0  0.87498  0.45293  0.24852  1.0000
  H   H1343     1.0  0.83143  0.30531  0.80242  1.0000
  H   H1344     1.0  0.80454  0.38842  0.23379  1.0000
  H   H1345     1.0  0.79731  0.48062  0.23084  1.0000
  H   H1346     1.0  0.92442  0.41401  0.14394  1.0000
  H   H1347     1.0  0.83639  0.31768  0.76008  1.0000
  C   C1375     1.0  0.87117  0.43600  0.22684  1.0000
  C   C1376     1.0  0.96078  0.43698  0.70810  1.0000
  C   C1377     1.0  0.83989  0.31293  0.78349  1.0000
  H   H1348     1.0  0.98181  0.43425  0.61697  1.0000
  H   H1349     1.0  0.82952  0.40778  0.06544  1.0000
  H   H1350     1.0  0.82711  0.39313  0.02355  1.0000
  S   S463      1.0  0.91933  0.41927  0.49687  1.0000
  C   C1378     1.0  0.87871  0.44803  0.22816  1.0000
  H   H1351     1.0  0.77832  0.30055  0.00907  1.0000
  H   H1352     1.0  0.84182  0.33008  0.88507  1.0000
  H   H1353     1.0  0.87014  0.42037  0.19913  1.0000
  H   H1354     1.0  0.91846  0.41004  0.10538  1.0000
  H   H1355     1.0  0.80513  0.36711  0.21963  1.0000
  C   C1379     1.0  0.75067  0.29589  0.80238  1.0000
  H   H1356     1.0  0.79353  0.45589  0.93345  1.0000
  C   C1380     1.0  0.87592  0.42965  0.20069  1.0000
  Fe  Fe232     1.0  0.93357  0.41774  0.61617  1.0000
  H   H1357     1.0  0.90644  0.35741  0.19636  1.0000
  C   C1381     1.0  0.89978  0.37253  0.16578  1.0000
  H   H1358     1.0  0.94757  0.38886  0.64681  1.0000
  H   H1359     1.0  0.85980  0.33371  0.75289  1.0000
  N   N114      1.0  0.89064  0.45358  0.20403  1.0000
  H   H1360     1.0  0.83201  0.31382  0.85427  1.0000
  N   N115      1.0  0.84550  0.32269  0.80189  1.0000
  H   H1361     1.0  0.90880  0.46744  0.19655  1.0000
  C   C1382     1.0  0.85597  0.33275  0.78211  1.0000
  H   H1362     1.0  0.89079  0.36601  0.16464  1.0000
  C   C1383     1.0  0.89813  0.46647  0.20459  1.0000
  C   C1384     1.0  0.84042  0.32169  0.83846  1.0000
  H   H1363     1.0  0.89608  0.46807  0.23286  1.0000
  H   H1364     1.0  0.95407  0.44977  0.58315  1.0000
  H   H1365     1.0  0.90472  0.45194  0.15876  1.0000
  C   C1385     1.0  0.88807  0.43539  0.17617  1.0000
  N   N116      1.0  0.76821  0.34859  0.76320  1.0000
  C   C1386     1.0  0.75701  0.33975  0.78444  1.0000
  H   H1366     1.0  0.95372  0.40627  0.73536  1.0000
  C   C1387     1.0  0.97987  0.43393  0.20531  1.0000
  H   H1367     1.0  0.97078  0.46872  0.72554  1.0000
  S   S464      1.0  0.94505  0.41965  0.18169  1.0000
  C   C1388     1.0  0.89532  0.44747  0.17808  1.0000
  H   H1368     1.0  0.89549  0.47413  0.18577  1.0000
  C   C1389     1.0  0.86171  0.34210  0.79894  1.0000
  C   C1390     1.0  0.96655  0.42795  0.20952  1.0000
  H   H1369     1.0  0.89178  0.43048  0.15581  1.0000
  C   C1391     1.0  0.81263  0.38425  0.23758  1.0000
  H   H1370     1.0  0.96875  0.40386  0.64464  1.0000
  H   H1371     1.0  0.79746  0.47725  0.27898  1.0000
  H   H1372     1.0  0.86994  0.35012  0.78295  1.0000
  H   H1373     1.0  0.92665  0.42778  0.41811  1.0000
  H   H1374     1.0  0.95485  0.43753  0.73380  1.0000
  H   H1375     1.0  0.86373  0.49373  0.79501  1.0000
  H   H1376     1.0  0.96557  0.43501  0.11938  1.0000
  H   H1377     1.0  0.77075  0.44437  0.93609  1.0000
  H   H1378     1.0  0.92360  0.38306  0.67256  1.0000
  N   N117      1.0  0.78387  0.32141  0.99373  1.0000
  C   C1392     1.0  0.96948  0.43483  0.14356  1.0000
  C   C1393     1.0  0.78933  0.33233  0.96559  1.0000
  C   C1394     1.0  0.93020  0.38804  0.68661  1.0000
  H   H1379     1.0  0.78546  0.45004  0.07105  1.0000
  C   C1395     1.0  0.98803  0.44045  0.17026  1.0000
  C   C1396     1.0  0.95446  0.48402  0.59838  1.0000
  C   C1397     1.0  0.82314  0.39117  0.24843  1.0000
  C   C1398     1.0  0.75036  0.44302  0.83820  1.0000
  H   H1380     1.0  0.96045  0.42277  0.23658  1.0000
  H   H1381     1.0  0.86077  0.34848  0.84947  1.0000
  C   C1399     1.0  0.90251  0.38588  0.15017  1.0000
  H   H1382     1.0  0.77641  0.47682  0.89604  1.0000
  H   H1383     1.0  0.84251  0.37072  0.24534  1.0000
  C   C1400     1.0  0.96135  0.42817  0.17853  1.0000
  S   S465      1.0  0.76213  0.27152  0.09581  1.0000
  S   S466      1.0  0.95505  0.42313  0.61828  1.0000
  C   C1401     1.0  0.95903  0.45923  0.21625  1.0000
  C   C1402     1.0  0.82376  0.36734  0.23267  1.0000
  H   H1384     1.0  0.89550  0.38959  0.13711  1.0000
  H   H1385     1.0  0.77008  0.30809  0.97721  1.0000
  H   H1386     1.0  0.94410  0.42892  0.68815  1.0000
  C   C1403     1.0  0.91612  0.40816  0.13592  1.0000
  C   C1404     1.0  0.80219  0.47627  0.25146  1.0000
  C   C1405     1.0  0.94538  0.46604  0.57595  1.0000
  H   H1387     1.0  0.78677  0.29484  0.19392  1.0000
  H   H1388     1.0  0.94209  0.49464  0.80082  1.0000
  H   H1389     1.0  0.78389  0.35384  0.71452  1.0000
  C   C1406     1.0  0.84303  0.49364  0.22467  1.0000
  N   N118      1.0  0.94561  0.47821  0.58134  1.0000
  H   H1390     1.0  0.94359  0.46032  0.25976  1.0000
  H   H1391     1.0  0.75455  0.47556  0.93504  1.0000
  H   H1392     1.0  0.95443  0.49352  0.60344  1.0000
  H   H1393     1.0  0.93308  0.48226  0.54601  1.0000
  H   H1394     1.0  0.77871  0.47644  0.83019  1.0000
  H   H1395     1.0  0.94290  0.47393  0.78336  1.0000
  H   H1396     1.0  0.74977  0.28852  0.13394  1.0000
  C   C1407     1.0  0.76796  0.47622  0.88429  1.0000
  H   H1397     1.0  0.77268  0.29923  0.21459  1.0000
  C   C1408     1.0  0.89619  0.49412  0.27233  1.0000
  H   H1398     1.0  0.84307  0.48011  0.27409  1.0000
  C   C1409     1.0  0.77446  0.27201  0.18793  1.0000
  H   H1399     1.0  0.99643  0.49155  0.18278  1.0000
  H   H1400     1.0  0.77100  0.25540  0.16408  1.0000
  H   H1401     1.0  0.75351  0.43957  0.99441  1.0000
  H   H1402     1.0  0.78498  0.27404  0.17865  1.0000
  H   H1403     1.0  0.75196  0.24892  0.96068  1.0000
  H   H1404     1.0  0.77916  0.28784  0.24243  1.0000
  H   H1405     1.0  0.95518  0.48215  0.26411  1.0000
  H   H1406     1.0  0.80055  0.46579  0.25136  1.0000
  H   H1407     1.0  0.89930  0.49237  0.29782  1.0000
  H   H1408     1.0  0.93946  0.49545  0.56474  1.0000
  H   H1409     1.0  0.98363  0.50864  0.75792  1.0000
  C   C1410     1.0  0.88088  0.52288  0.68395  1.0000
  H   H1410     1.0  0.95556  0.52077  0.42628  1.0000
  S   S467      1.0  0.98003  0.53249  0.24781  1.0000
  S   S468      1.0  0.96163  0.51316  0.64773  1.0000
  S   S469      1.0  0.95562  0.52258  0.55435  1.0000
  Fe  Fe233     1.0  0.95706  0.52553  0.68706  1.0000
  S   S470      1.0  0.97309  0.53172  0.71742  1.0000
  Fe  Fe234     1.0  0.93017  0.51613  0.28865  1.0000
  S   S471      1.0  0.94447  0.53438  0.65322  1.0000
  Fe  Fe235     1.0  0.94801  0.52070  0.61607  1.0000
  H   H1411     1.0  0.90406  0.51379  0.64070  1.0000
  H   H1412     1.0  0.99534  0.51660  0.29222  1.0000
  C   C1411     1.0  0.94839  0.52349  0.51582  1.0000
  C   C1412     1.0  0.90310  0.50511  0.24399  1.0000
  H   H1413     1.0  0.96255  0.51222  0.78748  1.0000
  H   H1414     1.0  0.99067  0.53098  0.76538  1.0000
  C   C1413     1.0  0.99139  0.55863  0.24384  1.0000
  H   H1415     1.0  0.89862  0.52355  0.60536  1.0000
  C   C1414     1.0  0.95511  0.52124  0.48311  1.0000
  H   H1416     1.0  0.88737  0.53128  0.68823  1.0000
  C   C1415     1.0  0.90098  0.52552  0.35323  1.0000
  C   C1416     1.0  0.86013  0.50679  0.70336  1.0000
  C   C1417     1.0  0.98519  0.54434  0.72513  1.0000
  H   H1417     1.0  0.92260  0.55287  0.38906  1.0000
  S   S472      1.0  0.91647  0.51705  0.24910  1.0000
  C   C1418     1.0  0.95016  0.52239  0.45123  1.0000
  C   C1419     1.0  0.90887  0.53441  0.36713  1.0000
  C   C1420     1.0  0.98791  0.55740  0.70611  1.0000
  C   C1421     1.0  0.93848  0.52604  0.45137  1.0000
  H   H1418     1.0  0.86507  0.52277  0.72847  1.0000
  H   H1419     1.0  0.90403  0.51562  0.18897  1.0000
  H   H1420     1.0  0.98221  0.56022  0.68695  1.0000
  H   H1421     1.0  0.92428  0.55719  0.28878  1.0000
  H   H1422     1.0  0.89561  0.52132  0.30421  1.0000
  N   N119      1.0  0.91697  0.54573  0.34419  1.0000
  N   N120      1.0  0.88523  0.51659  0.65804  1.0000
  H   H1423     1.0  0.89488  0.51638  0.37128  1.0000
  C   C1422     1.0  0.92584  0.55459  0.35857  1.0000
  H   H1424     1.0  0.88083  0.50037  0.63439  1.0000
  C   C1423     1.0  0.89882  0.50715  0.21110  1.0000
  H   H1425     1.0  0.85058  0.50255  0.72225  1.0000
  S   S473      1.0  0.94752  0.50838  0.27244  1.0000
  H   H1426     1.0  0.90870  0.53203  0.39626  1.0000
  C   C1424     1.0  0.99201  0.54763  0.23005  1.0000
  S   S474      1.0  0.93235  0.52866  0.41091  1.0000
  H   H1427     1.0  0.92264  0.53104  0.48468  1.0000
  S   S475      1.0  0.95679  0.51441  0.34625  1.0000
  H   H1428     1.0  0.98293  0.55837  0.26469  1.0000
  Fe  Fe236     1.0  0.95973  0.52526  0.28721  1.0000
  H   H1429     1.0  0.92640  0.56490  0.34619  1.0000
  C   C1425     1.0  0.93650  0.52677  0.51636  1.0000
  S   S476      1.0  0.94267  0.53401  0.29962  1.0000
  C   C1426     1.0  0.90136  0.52830  0.31568  1.0000
  H   H1430     1.0  0.93125  0.52863  0.54114  1.0000
  Fe  Fe237     1.0  0.92760  0.51726  0.68760  1.0000
  C   C1427     1.0  0.93166  0.52817  0.48421  1.0000
  C   C1428     1.0  0.90965  0.53985  0.29249  1.0000
  S   S477      1.0  0.90735  0.51770  0.71775  1.0000
  S   S478      1.0  0.93984  0.50961  0.72340  1.0000
  Fe  Fe238     1.0  0.93901  0.52199  0.35837  1.0000
  H   H1431     1.0  0.96433  0.51874  0.48225  1.0000
  C   C1429     1.0  0.91749  0.54848  0.30725  1.0000
  H   H1432     1.0  0.83993  0.50542  0.17631  1.0000
  H   H1433     1.0  0.90412  0.53021  0.64127  1.0000
  H   H1434     1.0  0.88443  0.51121  0.77763  1.0000
  C   C1430     1.0  0.89863  0.52130  0.63505  1.0000
  H   H1435     1.0  0.93576  0.55293  0.35229  1.0000
  C   C1431     1.0  0.86827  0.51809  0.70691  1.0000
  C   C1432     1.0  0.99268  0.54099  0.75022  1.0000
  S   S479      1.0  0.92508  0.50513  0.34809  1.0000
  S   S480      1.0  0.93044  0.50460  0.64808  1.0000
  H   H1436     1.0  0.91040  0.54179  0.26298  1.0000
  C   C1433     1.0  0.87725  0.50557  0.65413  1.0000
  C   C1434     1.0  0.88356  0.50338  0.76368  1.0000
  C   C1435     1.0  0.89396  0.50357  0.73479  1.0000
  C   C1436     1.0  0.96286  0.50293  0.78108  1.0000
  H   H1437     1.0  0.99192  0.52308  0.64755  1.0000
  H   H1438     1.0  0.88483  0.50009  0.18087  1.0000
  H   H1439     1.0  0.99494  0.54698  0.63145  1.0000
  C   C1437     1.0  0.88789  0.49835  0.20642  1.0000
  C   C1438     1.0  0.86460  0.50049  0.67674  1.0000
  C   C1439     1.0  0.97470  0.50094  0.76437  1.0000
  Fe  Fe239     1.0  0.94318  0.49849  0.33213  1.0000
  C   C1440     1.0  0.83540  0.49795  0.20167  1.0000
  Fe  Fe240     1.0  0.94376  0.49815  0.68187  1.0000
  H   H1440     1.0  0.85354  0.49776  0.21746  1.0000
