data_image0
_chemical_formula_structural       HFeS2Fe2SFeS3HC2H3CH3C6H3CSCH4CH2SNC4HCHCH3C3FeS2FeS2Fe2S3FeS2FeS2FeCFeS3C2HCHC4HC6H4C2HCH2C3HCH3NC4H6C4H2CH4C2HN2HCH3C2SHNC2H6CFeS2FeS2FeSFeS3HCH2C4H2CHC4HC7H5C3H6CH2C4H2NHC3HN2HCH2SHCHCH2CHCHC3H2C3H3NH2C2HCHCFeS2FeSNFeSFeS3FeS2FeS2FeSFeCS2C3H3C3HCH2CSCNHC6H9C3HCH3C2H2NC3HNH3CHC2H3CH4C2H2C2H2C3HC2HC3HC3H5FeS2FeS2FeSFeS3FeS2FeS2FeSFeS3CH4C2HC7H4C6H2CHC3H6C7H3NC6H4CH3CH3CHCHNCHC4H4NCHC2H3CSCH2C2H2SFeSCFeS2FeSFeCS3FeS2FeS2FeNFeS2C6H4C2HC6H3SHCSHCH4C6H4C2H2CHCHCH3C2H2CHNHSC2H4CSNC6H2C3H5CHCNC3H2NHCH2CHCH2CH3C2H4FeS2FeSFeSFeS3FeS2HSFeSFeS3C2H2C7H4CH2CH2C2H2CH4CHCHCNCHCHCHCH2CHCFeNCHC3HC3H2C2H6C2H3CHC2HC2HC2HSFeS2Fe2HFeS4HC5H2C6H4NCHC6H6CHCH2SHNH2CHFeSFeS2FeSFeS3FeS2FeS2FeCFeS3C5HC2HC6H4CH2C3H4C2H3CH5NH2C2H3NC3HCH4C2NHNHCHC2HC5SH2C2HCH5FeS2FeS2FeSFeS3H2CH4CHCH2NCHNC6H4C3HC6H2CH4C3H4NC3H2CSC4HC
_chemical_formula_sum              "H384 Fe64 S128 C384 N32"
_cell_length_a       44.8576
_cell_length_b       44.7984
_cell_length_c       39.1235
_cell_angle_alpha    92.3654
_cell_angle_beta     87.618
_cell_angle_gamma    122.48

_space_group_name_H-M_alt    "P 1"
_space_group_IT_number       1

loop_
  _space_group_symop_operation_xyz
  'x, y, z'

loop_
  _atom_site_type_symbol
  _atom_site_label
  _atom_site_symmetry_multiplicity
  _atom_site_fract_x
  _atom_site_fract_y
  _atom_site_fract_z
  _atom_site_occupancy
  H   H1        1.0  0.02320  0.29923  0.05813  1.0000
  Fe  Fe1       1.0  0.32663  0.16468  0.10455  1.0000
  S   S1        1.0  0.34854  0.22173  0.09372  1.0000
  S   S2        1.0  0.31059  0.13886  0.15698  1.0000
  Fe  Fe2       1.0  0.32431  0.14406  0.02851  1.0000
  Fe  Fe3       1.0  0.38463  0.21623  0.05571  1.0000
  S   S3        1.0  0.44136  0.26363  0.05049  1.0000
  Fe  Fe4       1.0  0.30968  0.20219  0.05081  1.0000
  S   S4        1.0  0.27541  0.22574  0.04569  1.0000
  S   S5        1.0  0.36512  0.16013  0.06896  1.0000
  S   S6        1.0  0.28451  0.14492  0.06468  1.0000
  H   H2        1.0  0.20841  0.11757  0.11434  1.0000
  C   C1        1.0  0.48165  0.26519  0.05052  1.0000
  C   C2        1.0  0.28736  0.22810  0.17098  1.0000
  H   H3        1.0  0.45851  0.20966  0.05862  1.0000
  H   H4        1.0  0.27646  0.04992  0.03738  1.0000
  H   H5        1.0  0.20319  0.10420  0.15797  1.0000
  C   C3        1.0  0.48284  0.23504  0.05503  1.0000
  H   H6        1.0  0.31001  0.13316  0.28234  1.0000
  H   H7        1.0  0.24046  0.11054  0.13227  1.0000
  H   H8        1.0  0.22985  0.25188  0.03813  1.0000
  C   C4        1.0  0.34319  0.18695  0.26604  1.0000
  C   C5        1.0  0.35670  0.20894  0.23740  1.0000
  C   C6        1.0  0.34783  0.19467  0.20381  1.0000
  C   C7        1.0  0.32497  0.15817  0.19847  1.0000
  C   C8        1.0  0.31149  0.13620  0.22708  1.0000
  C   C9        1.0  0.32064  0.15043  0.26064  1.0000
  H   H9        1.0  0.37411  0.23723  0.24127  1.0000
  H   H10       1.0  0.35827  0.21194  0.18212  1.0000
  H   H11       1.0  0.29378  0.10793  0.22328  1.0000
  C   C10       1.0  0.22292  0.12071  0.13792  1.0000
  S   S7        1.0  0.35460  0.20666  0.30778  1.0000
  C   C11       1.0  0.24424  0.25606  0.01409  1.0000
  H   H12       1.0  0.28191  0.24073  0.11982  1.0000
  H   H13       1.0  0.30466  0.25550  0.17917  1.0000
  H   H14       1.0  0.46543  0.25587  0.12933  1.0000
  H   H15       1.0  0.24379  0.17826  0.10130  1.0000
  C   C12       1.0  0.26863  0.24541  0.01033  1.0000
  H   H16       1.0  0.25097  0.14466  0.19919  1.0000
  H   H17       1.0  0.28870  0.20688  0.21904  1.0000
  S   S8        1.0  0.34711  0.20043  0.01223  1.0000
  N   N1        1.0  0.24421  0.15783  0.14952  1.0000
  C   C13       1.0  0.25304  0.18437  0.12737  1.0000
  C   C14       1.0  0.25665  0.16568  0.18211  1.0000
  C   C15       1.0  0.27463  0.21986  0.13776  1.0000
  C   C16       1.0  0.27825  0.20088  0.19340  1.0000
  H   H18       1.0  0.03007  0.25096  0.07557  1.0000
  C   C17       1.0  0.27234  0.03667  0.01268  1.0000
  H   H19       1.0  0.48560  0.31880  0.12259  1.0000
  C   C18       1.0  0.49314  0.27640  0.13241  1.0000
  H   H20       1.0  0.44775  0.23972  0.32243  1.0000
  H   H21       1.0  0.29828  0.38514  0.00451  1.0000
  H   H22       1.0  0.49326  0.20642  0.32119  1.0000
  C   C19       1.0  0.01045  0.25485  0.08843  1.0000
  C   C20       1.0  0.00637  0.28210  0.07857  1.0000
  C   C21       1.0  0.50450  0.31182  0.12857  1.0000
  Fe  Fe5       1.0  0.32353  0.18791  0.43555  1.0000
  S   S9        1.0  0.29301  0.15054  0.39191  1.0000
  S   S10       1.0  0.29362  0.20078  0.47681  1.0000
  Fe  Fe6       1.0  0.38950  0.18414  0.41763  1.0000
  S   S11       1.0  0.36223  0.14601  0.37369  1.0000
  S   S12       1.0  0.44421  0.19341  0.42483  1.0000
  Fe  Fe7       1.0  0.34358  0.18146  0.36040  1.0000
  Fe  Fe8       1.0  0.31454  0.11826  0.40912  1.0000
  S   S13       1.0  0.28021  0.05766  0.41145  1.0000
  S   S14       1.0  0.37303  0.22129  0.40319  1.0000
  S   S15       1.0  0.34286  0.15391  0.45388  1.0000
  Fe  Fe9       1.0  0.21383  0.32206  0.52982  1.0000
  S   S16       1.0  0.16898  0.27714  0.55857  1.0000
  S   S17       1.0  0.25371  0.31786  0.49453  1.0000
  Fe  Fe10      1.0  0.19596  0.37528  0.56001  1.0000
  S   S18       1.0  0.14936  0.33306  0.59072  1.0000
  S   S19       1.0  0.20610  0.43043  0.57140  1.0000
  Fe  Fe11      1.0  0.18529  0.31502  0.60383  1.0000
  C   C22       1.0  0.25160  0.47115  0.65134  1.0000
  Fe  Fe12      1.0  0.13622  0.29876  0.54303  1.0000
  S   S20       1.0  0.07887  0.25635  0.52999  1.0000
  S   S21       1.0  0.23268  0.35897  0.57614  1.0000
  S   S22       1.0  0.18036  0.34192  0.51124  1.0000
  C   C23       1.0  0.48631  0.23314  0.42696  1.0000
  C   C24       1.0  0.26270  0.02287  0.50973  1.0000
  H   H23       1.0  0.02803  0.24197  0.62188  1.0000
  C   C25       1.0  0.01412  0.22402  0.49924  1.0000
  H   H24       1.0  0.46769  0.26686  0.44352  1.0000
  C   C26       1.0  0.26724  0.03074  0.44809  1.0000
  C   C27       1.0  0.08130  0.20023  0.59320  1.0000
  C   C28       1.0  0.27546  0.04522  0.48129  1.0000
  C   C29       1.0  0.20499  0.05287  0.49682  1.0000
  H   H25       1.0  0.29124  0.07366  0.48506  1.0000
  C   C30       1.0  0.27941  0.23115  0.47802  1.0000
  C   C31       1.0  0.25424  0.22730  0.50319  1.0000
  C   C32       1.0  0.24452  0.25249  0.50738  1.0000
  C   C33       1.0  0.26028  0.28223  0.48672  1.0000
  C   C34       1.0  0.28470  0.28555  0.46093  1.0000
  C   C35       1.0  0.29412  0.26015  0.45648  1.0000
  H   H26       1.0  0.24257  0.20495  0.51995  1.0000
  H   H27       1.0  0.22569  0.24948  0.52729  1.0000
  H   H28       1.0  0.29700  0.30836  0.44469  1.0000
  H   H29       1.0  0.31347  0.26357  0.43697  1.0000
  C   C36       1.0  0.05378  0.28585  0.48659  1.0000
  C   C37       1.0  0.04722  0.25580  0.50331  1.0000
  H   H30       1.0  0.32802  0.34310  0.51393  1.0000
  C   C38       1.0  0.30476  0.27691  0.56615  1.0000
  H   H31       1.0  0.07904  0.31048  0.48937  1.0000
  H   H32       1.0  0.26641  0.12013  0.47231  1.0000
  C   C39       1.0  0.26459  0.47819  0.53140  1.0000
  C   C40       1.0  0.23822  0.47286  0.55539  1.0000
  C   C41       1.0  0.04287  0.22994  0.61443  1.0000
  H   H33       1.0  0.26502  0.45569  0.52092  1.0000
  C   C42       1.0  0.20791  0.05756  0.43638  1.0000
  H   H34       1.0  0.21781  0.49866  0.58721  1.0000
  H   H35       1.0  0.21824  0.07361  0.41370  1.0000
  H   H36       1.0  0.34021  0.31121  0.51136  1.0000
  N   N2        1.0  0.30960  0.30812  0.55594  1.0000
  C   C43       1.0  0.49066  0.26550  0.43722  1.0000
  C   C44       1.0  0.29051  0.32090  0.57119  1.0000
  C   C45       1.0  0.18795  0.02068  0.43245  1.0000
  C   C46       1.0  0.26541  0.30204  0.59703  1.0000
  H   H37       1.0  0.03764  0.16602  0.56043  1.0000
  H   H38       1.0  0.29405  0.34542  0.56278  1.0000
  H   H39       1.0  0.12094  0.23880  0.62705  1.0000
  H   H40       1.0  0.27053  0.44819  0.61391  1.0000
  H   H41       1.0  0.31957  0.26653  0.55376  1.0000
  H   H42       1.0  0.27532  0.23212  0.59920  1.0000
  C   C47       1.0  0.27965  0.25723  0.59175  1.0000
  C   C48       1.0  0.25989  0.26997  0.60725  1.0000
  C   C49       1.0  0.09482  0.22836  0.61709  1.0000
  C   C50       1.0  0.08999  0.27233  0.65233  1.0000
  H   H43       1.0  0.09705  0.18962  0.58425  1.0000
  H   H44       1.0  0.45103  0.24691  0.36834  1.0000
  C   C51       1.0  0.33642  0.32873  0.52953  1.0000
  H   H45       1.0  0.08549  0.29313  0.64442  1.0000
  H   H46       1.0  0.26891  0.03443  0.53529  1.0000
  H   H47       1.0  0.36195  0.34814  0.54156  1.0000
  H   H48       1.0  0.03313  0.30745  0.45323  1.0000
  C   C52       1.0  0.23822  0.11176  0.47185  1.0000
  C   C53       1.0  0.18503  0.01589  0.49385  1.0000
  H   H49       1.0  0.24016  0.25508  0.62705  1.0000
  N   N3        1.0  0.21578  0.07316  0.46829  1.0000
  N   N4        1.0  0.49684  0.25276  0.34264  1.0000
  H   H50       1.0  0.25008  0.31201  0.60896  1.0000
  C   C54       1.0  0.02760  0.28404  0.46610  1.0000
  H   H51       1.0  0.23174  0.12167  0.49571  1.0000
  H   H52       1.0  0.22957  0.44573  0.65982  1.0000
  H   H53       1.0  0.23488  0.12508  0.45030  1.0000
  C   C55       1.0  0.02834  0.20154  0.59085  1.0000
  C   C56       1.0  0.04786  0.18683  0.58000  1.0000
  S   S23       1.0  0.18988  0.29506  0.65500  1.0000
  H   H54       1.0  0.21256  0.06522  0.52204  1.0000
  N   N5        1.0  0.07577  0.24308  0.62706  1.0000
  C   C57       1.0  0.27480  0.47252  0.62568  1.0000
  C   C58       1.0  0.45836  0.23589  0.34591  1.0000
  H   H55       1.0  0.00872  0.20051  0.51180  1.0000
  H   H56       1.0  0.11899  0.28520  0.65476  1.0000
  H   H57       1.0  0.44493  0.20701  0.35030  1.0000
  H   H58       1.0  0.31629  0.00278  0.48668  1.0000
  H   H59       1.0  0.18288  0.00851  0.40706  1.0000
  H   H60       1.0  0.37473  0.16599  0.96068  1.0000
  C   C59       1.0  0.08362  0.27453  0.85050  1.0000
  Fe  Fe13      1.0  0.20768  0.38398  0.92290  1.0000
  S   S24       1.0  0.15372  0.35565  0.89981  1.0000
  S   S25       1.0  0.23862  0.44037  0.94562  1.0000
  Fe  Fe14      1.0  0.21362  0.31865  0.91463  1.0000
  S   S26       1.0  0.16089  0.28658  0.88908  1.0000
  S   S27       1.0  0.25041  0.29821  0.92071  1.0000
  Fe  Fe15      1.0  0.17707  0.33547  0.85977  1.0000
  S   S28       1.0  0.16279  0.33950  0.80521  1.0000
  Fe  Fe16      1.0  0.14127  0.30882  0.93072  1.0000
  S   S29       1.0  0.09007  0.26661  0.95781  1.0000
  S   S30       1.0  0.23159  0.36620  0.88171  1.0000
  S   S31       1.0  0.19351  0.33857  0.95744  1.0000
  H   H61       1.0  0.10531  0.27613  0.83551  1.0000
  C   C60       1.0  0.28672  0.05674  0.98316  1.0000
  H   H62       1.0  0.30573  0.24303  0.97554  1.0000
  H   H63       1.0  0.33850  0.39489  0.87049  1.0000
  C   C61       1.0  0.42359  0.23538  0.95663  1.0000
  C   C62       1.0  0.25625  0.27739  0.95563  1.0000
  C   C63       1.0  0.31820  0.38244  0.92240  1.0000
  C   C64       1.0  0.28692  0.25102  0.97898  1.0000
  H   H64       1.0  0.29512  0.27105  0.92786  1.0000
  H   H65       1.0  0.01214  0.31238  0.98033  1.0000
  C   C65       1.0  0.46216  0.21578  0.97380  1.0000
  H   H66       1.0  0.39822  0.22465  0.94336  1.0000
  C   C66       1.0  0.28118  0.03884  0.95131  1.0000
  C   C67       1.0  0.30192  0.42010  0.94975  1.0000
  C   C68       1.0  0.40594  0.14596  0.97612  1.0000
  C   C69       1.0  0.02921  0.27196  0.88936  1.0000
  H   H67       1.0  0.30994  0.46371  0.92032  1.0000
  C   C70       1.0  0.28082  0.26698  0.95193  1.0000
  C   C71       1.0  0.18426  0.30939  0.69662  1.0000
  C   C72       1.0  0.17257  0.33264  0.70152  1.0000
  C   C73       1.0  0.16654  0.34173  0.73491  1.0000
  C   C74       1.0  0.17284  0.32844  0.76389  1.0000
  C   C75       1.0  0.18525  0.30577  0.75903  1.0000
  C   C76       1.0  0.19065  0.29613  0.72558  1.0000
  H   H68       1.0  0.48413  0.24319  0.97404  1.0000
  H   H69       1.0  0.15699  0.35932  0.73835  1.0000
  H   H70       1.0  0.19014  0.29522  0.78099  1.0000
  H   H71       1.0  0.19973  0.27816  0.72217  1.0000
  H   H72       1.0  0.09450  0.32439  0.83239  1.0000
  C   C77       1.0  0.25446  0.48070  0.92402  1.0000
  C   C78       1.0  0.24358  0.48133  0.89122  1.0000
  C   C79       1.0  0.07755  0.30195  0.84856  1.0000
  H   H73       1.0  0.22519  0.45672  0.87811  1.0000
  H   H74       1.0  0.06812  0.31787  0.95983  1.0000
  H   H75       1.0  0.30438  0.35302  0.98189  1.0000
  H   H76       1.0  0.07732  0.26242  0.67780  1.0000
  H   H77       1.0  0.08851  0.21961  0.85365  1.0000
  H   H78       1.0  0.29210  0.05398  0.92827  1.0000
  C   C80       1.0  0.32622  0.43222  0.89215  1.0000
  H   H79       1.0  0.33385  0.44785  0.86927  1.0000
  H   H80       1.0  0.08309  0.22189  0.89933  1.0000
  C   C81       1.0  0.32890  0.40262  0.89286  1.0000
  C   C82       1.0  0.05166  0.26516  0.97390  1.0000
  C   C83       1.0  0.23799  0.27183  0.98699  1.0000
  C   C84       1.0  0.04720  0.29355  0.97116  1.0000
  H   H81       1.0  0.29033  0.42657  0.97144  1.0000
  H   H82       1.0  0.16786  0.34341  0.67962  1.0000
  N   N6        1.0  0.42909  0.20722  0.96552  1.0000
  H   H83       1.0  0.38351  0.11878  0.97737  1.0000
  C   C85       1.0  0.40111  0.17286  0.96676  1.0000
  C   C86       1.0  0.31285  0.44117  0.92081  1.0000
  C   C87       1.0  0.05024  0.30066  0.86824  1.0000
  H   H84       1.0  0.21894  0.27953  0.99036  1.0000
  N   N7        1.0  0.06296  0.24654  0.87141  1.0000
  N   N8        1.0  0.30503  0.39138  0.95040  1.0000
  H   H85       1.0  0.42301  0.24971  0.98028  1.0000
  C   C88       1.0  0.29217  0.36895  0.98053  1.0000
  H   H86       1.0  0.02064  0.22360  0.90835  1.0000
  H   H87       1.0  0.04572  0.32211  0.86747  1.0000
  S   S32       1.0  0.31260  0.10403  0.98450  1.0000
  H   H88       1.0  0.00835  0.27098  0.90537  1.0000
  C   C89       1.0  0.01536  0.29029  0.98272  1.0000
  H   H89       1.0  0.31975  0.35908  0.92250  1.0000
  C   C90       1.0  0.03612  0.24508  0.89078  1.0000
  H   H90       1.0  0.44523  0.25459  0.93941  1.0000
  H   H91       1.0  0.26311  0.35021  0.97914  1.0000
  C   C91       1.0  0.07039  0.21863  0.87446  1.0000
  H   H92       1.0  0.04557  0.19210  0.87335  1.0000
  C   C92       1.0  0.02412  0.23375  0.98873  1.0000
  H   H93       1.0  0.02729  0.21161  0.99097  1.0000
  C   C93       1.0  0.43965  0.15437  0.98415  1.0000
  C   C94       1.0  0.46804  0.18947  0.98283  1.0000
  C   C95       1.0  0.26159  0.00146  0.94891  1.0000
  H   H94       1.0  0.49433  0.19646  0.98951  1.0000
  H   H95       1.0  0.44365  0.13374  0.99169  1.0000
  C   C96       1.0  0.08346  0.80474  0.03194  1.0000
  C   C97       1.0  0.06957  0.82535  0.04137  1.0000
  C   C98       1.0  0.11627  0.82026  0.01502  1.0000
  H   H96       1.0  0.04354  0.81322  0.05357  1.0000
  H   H97       1.0  0.24243  0.98414  0.03338  1.0000
  H   H98       1.0  0.06829  0.77655  0.03664  1.0000
  N   N9        1.0  0.12058  0.87612  0.01622  1.0000
  H   H99       1.0  0.07709  0.87674  0.03978  1.0000
  H   H100      1.0  0.16497  0.92850  0.02231  1.0000
  C   C99       1.0  0.08856  0.86122  0.03316  1.0000
  C   C100      1.0  0.25299  0.99929  0.01031  1.0000
  H   H101      1.0  0.12472  0.92593  0.01209  1.0000
  C   C101      1.0  0.14038  0.91360  0.00730  1.0000
  H   H102      1.0  0.12682  0.80425  0.00661  1.0000
  C   C102      1.0  0.13470  0.85626  0.00760  1.0000
  Fe  Fe17      1.0  0.39431  0.71151  0.56734  1.0000
  S   S33       1.0  0.34897  0.68845  0.53069  1.0000
  S   S34       1.0  0.44888  0.75827  0.55237  1.0000
  Fe  Fe18      1.0  0.34759  0.66178  0.62346  1.0000
  S   S35       1.0  0.29924  0.63606  0.59193  1.0000
  N   N10       1.0  0.30604  0.53602  0.62705  1.0000
  Fe  Fe19      1.0  0.33446  0.63525  0.55038  1.0000
  S   S36       1.0  0.32352  0.58558  0.52076  1.0000
  Fe  Fe20      1.0  0.31740  0.69127  0.57585  1.0000
  S   S37       1.0  0.27401  0.70372  0.58060  1.0000
  S   S38       1.0  0.38241  0.65858  0.58288  1.0000
  S   S39       1.0  0.36333  0.71703  0.61140  1.0000
  Fe  Fe21      1.0  0.21452  0.84006  0.54839  1.0000
  S   S40       1.0  0.22261  0.88202  0.58733  1.0000
  S   S41       1.0  0.26055  0.83243  0.53714  1.0000
  Fe  Fe22      1.0  0.14026  0.82342  0.53082  1.0000
  S   S42       1.0  0.14320  0.86377  0.56917  1.0000
  S   S43       1.0  0.09241  0.78217  0.49975  1.0000
  Fe  Fe23      1.0  0.19922  0.89929  0.54843  1.0000
  S   S44       1.0  0.22603  0.95922  0.54241  1.0000
  Fe  Fe24      1.0  0.16667  0.84368  0.60481  1.0000
  C   C103      1.0  0.06064  0.72029  0.56626  1.0000
  S   S45       1.0  0.19499  0.86001  0.50811  1.0000
  S   S46       1.0  0.15991  0.80070  0.56778  1.0000
  C   C104      1.0  0.23405  0.97126  0.47223  1.0000
  C   C105      1.0  0.24179  0.98580  0.50543  1.0000
  C   C106      1.0  0.00535  0.78718  0.37791  1.0000
  H   H103      1.0  0.21809  0.94282  0.46847  1.0000
  H   H104      1.0  0.37359  0.65032  0.48210  1.0000
  H   H105      1.0  0.24020  0.98214  0.41820  1.0000
  C   C107      1.0  0.41722  0.64663  0.49669  1.0000
  C   C108      1.0  0.05451  0.78109  0.48591  1.0000
  C   C109      1.0  0.05015  0.80959  0.49133  1.0000
  H   H106      1.0  0.32308  0.58663  0.60855  1.0000
  C   C110      1.0  0.01930  0.80714  0.48032  1.0000
  H   H107      1.0  0.07060  0.83358  0.50383  1.0000
  H   H108      1.0  0.03044  0.72775  0.46556  1.0000
  C   C111      1.0  0.29023  0.54235  0.53422  1.0000
  S   S47       1.0  0.14627  0.82260  0.65858  1.0000
  C   C112      1.0  0.26395  0.53695  0.55831  1.0000
  N   N11       1.0  0.30243  0.95648  0.51388  1.0000
  H   H109      1.0  0.26317  0.55927  0.56864  1.0000
  C   C113      1.0  0.27126  0.74004  0.56822  1.0000
  C   C114      1.0  0.24012  0.73955  0.57633  1.0000
  C   C115      1.0  0.23649  0.76762  0.56727  1.0000
  C   C116      1.0  0.26402  0.79662  0.54985  1.0000
  C   C117      1.0  0.29533  0.79729  0.54203  1.0000
  C   C118      1.0  0.29902  0.76926  0.55123  1.0000
  H   H110      1.0  0.21845  0.71711  0.58944  1.0000
  H   H111      1.0  0.21223  0.76659  0.57343  1.0000
  H   H112      1.0  0.31682  0.81954  0.52856  1.0000
  H   H113      1.0  0.32316  0.77013  0.54483  1.0000
  H   H114      1.0  0.46590  0.65129  0.50939  1.0000
  H   H115      1.0  0.35501  0.58475  0.63334  1.0000
  H   H116      1.0  0.46658  0.70793  0.57407  1.0000
  H   H117      1.0  0.27738  0.87651  0.47807  1.0000
  H   H118      1.0  0.01641  0.82952  0.48429  1.0000
  C   C119      1.0  0.29061  0.92280  0.45006  1.0000
  C   C120      1.0  0.02815  0.74991  0.56275  1.0000
  C   C121      1.0  0.24673  0.99364  0.44377  1.0000
  H   H119      1.0  0.02919  0.75823  0.39075  1.0000
  C   C122      1.0  0.42377  0.69997  0.47624  1.0000
  H   H120      1.0  0.16200  0.97114  0.45873  1.0000
  H   H121      1.0  0.48363  0.75616  0.44092  1.0000
  H   H122      1.0  0.08042  0.81355  0.63750  1.0000
  C   C123      1.0  0.17641  0.99977  0.46142  1.0000
  C   C124      1.0  0.28599  0.90430  0.47966  1.0000
  H   H123      1.0  0.28165  0.68893  0.64831  1.0000
  H   H124      1.0  0.04284  0.69536  0.58002  1.0000
  N   N12       1.0  0.05369  0.74755  0.57801  1.0000
  C   C125      1.0  0.30795  0.97511  0.48493  1.0000
  C   C126      1.0  0.40208  0.66426  0.48461  1.0000
  C   C127      1.0  0.06552  0.79577  0.61643  1.0000
  H   H125      1.0  0.01357  0.73223  0.54157  1.0000
  N   N13       1.0  0.45964  0.71748  0.47937  1.0000
  H   H126      1.0  0.34615  0.56766  0.58958  1.0000
  H   H127      1.0  0.31037  0.51655  0.50194  1.0000
  H   H128      1.0  0.09149  0.76723  0.61763  1.0000
  C   C128      1.0  0.47482  0.70021  0.49062  1.0000
  H   H129      1.0  0.41171  0.71372  0.46757  1.0000
  C   C129      1.0  0.30202  0.50538  0.61370  1.0000
  C   C130      1.0  0.02745  0.75005  0.46976  1.0000
  H   H130      1.0  0.30530  0.97320  0.42982  1.0000
  H   H131      1.0  0.47049  0.76990  0.47990  1.0000
  H   H132      1.0  0.05669  0.71520  0.53821  1.0000
  C   C131      1.0  0.33414  0.57036  0.61400  1.0000
  H   H133      1.0  0.32804  0.75732  0.62948  1.0000
  H   H134      1.0  0.03581  0.81984  0.60843  1.0000
  H   H135      1.0  0.01931  0.80742  0.39755  1.0000
  H   H136      1.0  0.40044  0.61905  0.50374  1.0000
  C   C132      1.0  0.48182  0.75455  0.46923  1.0000
  C   C133      1.0  0.07176  0.76955  0.60500  1.0000
  H   H137      1.0  0.28549  0.90946  0.42522  1.0000
  H   H138      1.0  0.08860  0.72908  0.57049  1.0000
  C   C134      1.0  0.29216  0.92168  0.51154  1.0000
  C   C135      1.0  0.48953  0.76137  0.55769  1.0000
  H   H139      1.0  0.28841  0.90704  0.53443  1.0000
  H   H140      1.0  0.31895  0.50609  0.59273  1.0000
  C   C136      1.0  0.49083  0.73253  0.56783  1.0000
  C   C137      1.0  0.02147  0.77606  0.57325  1.0000
  C   C138      1.0  0.28401  0.53500  0.65287  1.0000
  H   H141      1.0  0.33585  0.98267  0.55601  1.0000
  C   C139      1.0  0.04044  0.79922  0.60019  1.0000
  C   C140      1.0  0.31283  0.75880  0.65195  1.0000
  H   H142      1.0  0.32584  0.78694  0.66045  1.0000
  C   C141      1.0  0.45383  0.66466  0.49979  1.0000
  C   C142      1.0  0.30903  0.97417  0.54759  1.0000
  C   C143      1.0  0.30181  0.95850  0.45262  1.0000
  H   H143      1.0  0.28900  0.95609  0.56674  1.0000
  C   C144      1.0  0.01093  0.75932  0.37426  1.0000
  C   C145      1.0  0.29032  0.51276  0.52075  1.0000
  C   C146      1.0  0.23808  0.50245  0.56866  1.0000
  H   H144      1.0  0.30654  0.99755  0.54715  1.0000
  H   H145      1.0  0.28588  0.74985  0.64334  1.0000
  H   H146      1.0  0.17747  0.99983  0.51645  1.0000
  H   H147      1.0  0.50326  0.71411  0.49329  1.0000
  H   H148      1.0  0.28748  0.55940  0.66358  1.0000
  Fe  Fe25      1.0  0.34308  0.71461  0.91360  1.0000
  S   S48       1.0  0.32330  0.68462  0.86387  1.0000
  S   S49       1.0  0.31407  0.73728  0.94274  1.0000
  Fe  Fe26      1.0  0.40534  0.70369  0.91369  1.0000
  S   S50       1.0  0.38926  0.67269  0.86395  1.0000
  S   S51       1.0  0.45458  0.70982  0.93590  1.0000
  Fe  Fe27      1.0  0.38049  0.71462  0.84773  1.0000
  S   S52       1.0  0.40201  0.74253  0.79795  1.0000
  Fe  Fe28      1.0  0.33351  0.64480  0.88515  1.0000
  S   S53       1.0  0.29236  0.58661  0.87190  1.0000
  S   S54       1.0  0.40005  0.74757  0.89586  1.0000
  S   S55       1.0  0.34972  0.67285  0.93646  1.0000
  Fe  Fe29      1.0  0.21138  0.83556  0.89383  1.0000
  S   S56       1.0  0.16169  0.81675  0.86477  1.0000
  S   S57       1.0  0.24212  0.81029  0.87420  1.0000
  Fe  Fe30      1.0  0.20505  0.89456  0.93177  1.0000
  S   S58       1.0  0.15548  0.87964  0.90442  1.0000
  S   S59       1.0  0.22325  0.93413  0.97724  1.0000
  Fe  Fe31      1.0  0.13815  0.82338  0.91454  1.0000
  S   S60       1.0  0.08450  0.77865  0.93518  1.0000
  Fe  Fe32      1.0  0.18302  0.87416  0.85693  1.0000
  S   S61       1.0  0.18976  0.89973  0.80543  1.0000
  S   S62       1.0  0.18643  0.83801  0.94413  1.0000
  S   S63       1.0  0.23394  0.89327  0.88384  1.0000
  C   C147      1.0  0.23061  0.64492  0.88546  1.0000
  H   H149      1.0  0.23647  0.56946  0.93034  1.0000
  H   H150      1.0  0.28002  0.77976  0.84605  1.0000
  H   H151      1.0  0.30957  0.57031  0.93780  1.0000
  H   H152      1.0  0.25766  0.98821  0.92423  1.0000
  C   C148      1.0  0.04876  0.77983  0.95523  1.0000
  C   C149      1.0  0.29037  0.67769  0.69843  1.0000
  H   H153      1.0  0.47959  0.78365  0.92287  1.0000
  C   C150      1.0  0.04849  0.81092  0.95832  1.0000
  C   C151      1.0  0.15806  0.84491  0.69904  1.0000
  C   C152      1.0  0.14436  0.82483  0.72886  1.0000
  C   C153      1.0  0.15377  0.84113  0.76161  1.0000
  C   C154      1.0  0.17641  0.87787  0.76489  1.0000
  C   C155      1.0  0.18959  0.89804  0.73507  1.0000
  C   C156      1.0  0.18079  0.88165  0.70229  1.0000
  H   H154      1.0  0.12664  0.79640  0.72667  1.0000
  H   H155      1.0  0.14332  0.82531  0.78430  1.0000
  H   H156      1.0  0.20689  0.92651  0.73735  1.0000
  H   H157      1.0  0.33627  0.73980  0.76029  1.0000
  C   C157      1.0  0.38767  0.71238  0.76339  1.0000
  C   C158      1.0  0.36577  0.67606  0.76891  1.0000
  C   C159      1.0  0.35219  0.65227  0.74098  1.0000
  C   C160      1.0  0.36015  0.66486  0.70758  1.0000
  C   C161      1.0  0.38284  0.70109  0.70204  1.0000
  C   C162      1.0  0.39669  0.72487  0.72997  1.0000
  H   H158      1.0  0.35867  0.66628  0.79467  1.0000
  H   H159      1.0  0.33470  0.62422  0.74534  1.0000
  C   C163      1.0  0.25634  0.50256  0.66529  1.0000
  H   H160      1.0  0.41375  0.75297  0.72572  1.0000
  C   C164      1.0  0.27966  0.54636  0.89217  1.0000
  C   C165      1.0  0.29117  0.54571  0.92469  1.0000
  C   C166      1.0  0.02031  0.74869  0.96960  1.0000
  H   H161      1.0  0.24721  0.64528  0.98140  1.0000
  H   H162      1.0  0.45602  0.74315  0.83997  1.0000
  H   H163      1.0  0.27743  0.64945  0.69324  1.0000
  H   H164      1.0  0.14822  0.91651  0.97967  1.0000
  H   H165      1.0  0.18692  0.77198  0.74869  1.0000
  H   H166      1.0  0.22544  0.68936  0.89812  1.0000
  C   C167      1.0  0.49578  0.73222  0.85149  1.0000
  C   C168      1.0  0.26185  0.79020  0.89425  1.0000
  C   C169      1.0  0.26089  0.78673  0.92974  1.0000
  C   C170      1.0  0.27719  0.77072  0.94417  1.0000
  C   C171      1.0  0.29466  0.75803  0.92341  1.0000
  C   C172      1.0  0.29532  0.76121  0.88792  1.0000
  C   C173      1.0  0.27903  0.77718  0.87350  1.0000
  H   H167      1.0  0.24784  0.79660  0.94607  1.0000
  H   H168      1.0  0.27650  0.76843  0.97166  1.0000
  H   H169      1.0  0.30861  0.75161  0.87159  1.0000
  N   N14       1.0  0.24647  0.87130  0.77297  1.0000
  C   C174      1.0  0.23485  0.84646  0.79769  1.0000
  C   C175      1.0  0.23839  0.86113  0.73944  1.0000
  C   C176      1.0  0.21340  0.81041  0.78935  1.0000
  C   C177      1.0  0.21704  0.82527  0.73013  1.0000
  C   C178      1.0  0.20424  0.79981  0.75537  1.0000
  C   C179      1.0  0.26877  0.90899  0.78225  1.0000
  H   H170      1.0  0.24176  0.85444  0.82417  1.0000
  H   H171      1.0  0.24735  0.88080  0.71985  1.0000
  H   H172      1.0  0.20374  0.79098  0.80935  1.0000
  H   H173      1.0  0.20938  0.81743  0.70370  1.0000
  C   C180      1.0  0.49729  0.74910  0.93415  1.0000
  H   H174      1.0  0.28708  0.51297  0.96594  1.0000
  H   H175      1.0  0.26282  0.92501  0.76622  1.0000
  H   H176      1.0  0.34068  0.77865  0.71455  1.0000
  C   C181      1.0  0.22928  0.66930  0.90779  1.0000
  H   H177      1.0  0.23501  0.68867  0.95990  1.0000
  H   H178      1.0  0.02018  0.72447  0.96728  1.0000
  H   H179      1.0  0.07007  0.83502  0.94729  1.0000
  C   C182      1.0  0.32607  0.75027  0.70991  1.0000
  H   H180      1.0  0.23865  0.60177  0.88079  1.0000
  C   C183      1.0  0.24144  0.64421  0.95458  1.0000
  H   H181      1.0  0.30346  0.67482  0.75008  1.0000
  N   N15       1.0  0.24195  0.61990  0.93263  1.0000
  C   C184      1.0  0.02046  0.81090  0.97618  1.0000
  H   H182      1.0  0.29710  0.91805  0.77932  1.0000
  C   C185      1.0  0.23702  0.62024  0.89839  1.0000
  C   C186      1.0  0.32346  0.72847  0.73600  1.0000
  C   C187      1.0  0.48409  0.75384  0.84197  1.0000
  C   C188      1.0  0.30518  0.69195  0.73024  1.0000
  H   H183      1.0  0.19131  0.89747  0.67961  1.0000
  H   H184      1.0  0.02078  0.83520  0.97878  1.0000
  H   H185      1.0  0.22756  0.64566  0.85823  1.0000
  H   H186      1.0  0.27884  0.60611  0.94343  1.0000
  N   N16       1.0  0.31063  0.73598  0.67905  1.0000
  C   C189      1.0  0.23439  0.66876  0.94261  1.0000
  H   H187      1.0  0.26327  0.91408  0.80915  1.0000
  C   C190      1.0  0.24751  0.98139  0.97846  1.0000
  C   C191      1.0  0.24993  0.59473  0.94550  1.0000
  H   H188      1.0  0.24113  0.58823  0.97261  1.0000
  H   H189      1.0  0.47674  0.70476  0.85765  1.0000
  H   H190      1.0  0.38941  0.71086  0.67630  1.0000
  C   C192      1.0  0.29323  0.70021  0.67301  1.0000
  S   S64       1.0  0.33930  0.63522  0.67334  1.0000
  C   C193      1.0  0.25587  0.51396  0.87558  1.0000
  H   H191      1.0  0.24674  0.51406  0.85045  1.0000
  H   H192      1.0  0.16016  0.86821  0.99443  1.0000
  C   C194      1.0  0.50225  0.78184  0.92703  1.0000
  C   C195      1.0  0.27840  0.51309  0.94058  1.0000
  H   H193      1.0  0.49955  0.80644  0.82867  1.0000
  H   H194      1.0  0.23842  0.50180  0.68522  1.0000
  S   S65       1.0  0.85903  0.13402  0.30765  1.0000
  Fe  Fe33      1.0  0.83811  0.13858  0.05525  1.0000
  S   S66       1.0  0.84618  0.17775  0.01591  1.0000
  C   C196      1.0  0.54037  0.33791  0.13111  1.0000
  Fe  Fe34      1.0  0.86595  0.19428  0.11368  1.0000
  S   S67       1.0  0.87606  0.23729  0.07812  1.0000
  S   S68       1.0  0.87988  0.21441  0.16907  1.0000
  Fe  Fe35      1.0  0.82332  0.19822  0.05606  1.0000
  S   S69       1.0  0.77998  0.20778  0.04240  1.0000
  Fe  Fe36      1.0  0.89879  0.21443  0.04087  1.0000
  C   C197      1.0  0.76700  0.50136  0.06988  1.0000
  S   S70       1.0  0.81152  0.15640  0.09381  1.0000
  S   S71       1.0  0.89242  0.17406  0.07799  1.0000
  S   S72       1.0  0.65937  0.29508  0.29973  1.0000
  Fe  Fe37      1.0  0.70173  0.39963  0.05450  1.0000
  S   S73       1.0  0.64770  0.37293  0.07979  1.0000
  S   S74       1.0  0.72328  0.44908  0.02265  1.0000
  Fe  Fe38      1.0  0.71692  0.34506  0.07995  1.0000
  S   S75       1.0  0.66457  0.31478  0.10794  1.0000
  S   S76       1.0  0.76310  0.33761  0.08554  1.0000
  Fe  Fe39      1.0  0.64097  0.32164  0.06157  1.0000
  N   N17       1.0  0.98072  0.28632  0.09360  1.0000
  Fe  Fe40      1.0  0.67425  0.36768  0.12429  1.0000
  S   S77       1.0  0.66026  0.38137  0.17586  1.0000
  S   S78       1.0  0.72866  0.39809  0.10066  1.0000
  C   C198      1.0  0.65802  0.31832  0.26552  1.0000
  C   C199      1.0  0.66167  0.30827  0.23205  1.0000
  C   C200      1.0  0.66234  0.32747  0.20434  1.0000
  C   C201      1.0  0.65834  0.35615  0.20995  1.0000
  C   C202      1.0  0.65385  0.36570  0.24338  1.0000
  C   C203      1.0  0.65404  0.34702  0.27115  1.0000
  H   H195      1.0  0.66481  0.28608  0.22758  1.0000
  H   H196      1.0  0.66631  0.32016  0.17880  1.0000
  H   H197      1.0  0.65086  0.38797  0.24785  1.0000
  H   H198      1.0  0.65083  0.35477  0.29676  1.0000
  C   C204      1.0  0.54751  0.27059  0.05001  1.0000
  C   C205      1.0  0.54629  0.30081  0.04643  1.0000
  H   H199      1.0  0.57058  0.32622  0.04283  1.0000
  C   C206      1.0  0.77549  0.24384  0.05534  1.0000
  C   C207      1.0  0.80148  0.27318  0.07388  1.0000
  C   C208      1.0  0.79707  0.30143  0.08306  1.0000
  C   C209      1.0  0.76656  0.30063  0.07414  1.0000
  C   C210      1.0  0.74052  0.27128  0.05568  1.0000
  C   C211      1.0  0.74506  0.24315  0.04628  1.0000
  H   H200      1.0  0.82505  0.27418  0.08098  1.0000
  H   H201      1.0  0.71693  0.27024  0.04855  1.0000
  H   H202      1.0  0.78803  0.44980  0.05368  1.0000
  S   S79       1.0  0.69301  0.34826  0.03173  1.0000
  H   H203      1.0  0.94816  0.30595  0.08316  1.0000
  C   C212      1.0  0.80426  0.20553  0.29288  1.0000
  S   S80       1.0  0.58799  0.27245  0.04736  1.0000
  H   H204      1.0  0.80459  0.47554  0.01572  1.0000
  C   C213      1.0  0.98871  0.23247  0.11449  1.0000
  H   H205      1.0  0.80323  0.18869  0.20726  1.0000
  H   H206      1.0  0.51286  0.32152  0.04289  1.0000
  H   H207      1.0  0.78357  0.12953  0.22862  1.0000
  H   H208      1.0  0.73690  0.47008  0.24030  1.0000
  C   C214      1.0  0.86634  0.15705  0.26920  1.0000
  C   C215      1.0  0.87930  0.19325  0.26935  1.0000
  C   C216      1.0  0.88396  0.21040  0.23836  1.0000
  C   C217      1.0  0.87512  0.19151  0.20692  1.0000
  C   C218      1.0  0.86215  0.15529  0.20671  1.0000
  C   C219      1.0  0.85802  0.13824  0.23770  1.0000
  H   H209      1.0  0.88590  0.20808  0.29332  1.0000
  H   H210      1.0  0.89405  0.23843  0.23882  1.0000
  H   H211      1.0  0.85529  0.14042  0.18273  1.0000
  H   H212      1.0  0.84810  0.11024  0.23730  1.0000
  C   C220      1.0  0.96341  0.23769  0.13044  1.0000
  C   C221      1.0  0.98776  0.25881  0.99739  1.0000
  H   H213      1.0  0.94631  0.22047  0.15077  1.0000
  H   H214      1.0  0.76135  0.48013  0.08647  1.0000
  C   C222      1.0  0.77726  0.01514  0.01254  1.0000
  H   H215      1.0  0.86315  0.05256  0.02303  1.0000
  C   C223      1.0  0.51351  0.29802  0.04627  1.0000
  H   H216      1.0  0.69887  0.01873  0.04098  1.0000
  C   C224      1.0  0.79327  0.17183  0.30423  1.0000
  H   H217      1.0  0.74875  0.40677  0.31101  1.0000
  H   H218      1.0  0.74274  0.45709  0.30010  1.0000
  H   H219      1.0  0.73821  0.34078  0.24476  1.0000
  C   C225      1.0  0.80768  0.21163  0.25783  1.0000
  C   C226      1.0  0.95978  0.26494  0.11962  1.0000
  H   H220      1.0  0.59231  0.34855  0.13920  1.0000
  H   H221      1.0  0.81674  0.23776  0.24863  1.0000
  C   C227      1.0  0.78136  0.36386  0.00234  1.0000
  H   H222      1.0  0.56841  0.26233  0.16606  1.0000
  N   N18       1.0  0.55301  0.29328  0.14120  1.0000
  H   H223      1.0  0.73779  0.43244  0.19219  1.0000
  S   S81       1.0  0.94882  0.25687  0.01245  1.0000
  C   C228      1.0  0.57852  0.28311  0.14653  1.0000
  C   C229      1.0  0.80458  0.45465  0.03016  1.0000
  H   H224      1.0  0.51640  0.21420  0.05720  1.0000
  H   H225      1.0  0.78525  0.09699  0.27701  1.0000
  H   H226      1.0  0.81745  0.32401  0.09724  1.0000
  H   H227      1.0  0.58358  0.27289  0.12204  1.0000
  C   C230      1.0  0.79923  0.05217  0.01013  1.0000
  S   S82       1.0  0.81182  0.07845  0.04833  1.0000
  N   N19       1.0  0.74615  0.39127  0.25833  1.0000
  C   C231      1.0  0.74628  0.41220  0.28488  1.0000
  C   C232      1.0  0.74404  0.39884  0.22532  1.0000
  C   C233      1.0  0.74300  0.44085  0.27882  1.0000
  C   C234      1.0  0.74077  0.42733  0.21833  1.0000
  C   C235      1.0  0.74000  0.44827  0.24532  1.0000
  C   C236      1.0  0.74996  0.36158  0.26528  1.0000
  H   H228      1.0  0.73564  0.34853  0.28939  1.0000
  H   H229      1.0  0.74392  0.38231  0.20419  1.0000
  C   C237      1.0  0.85532  0.02798  0.03668  1.0000
  C   C238      1.0  0.56443  0.32812  0.13750  1.0000
  C   C239      1.0  0.97656  0.31482  0.08282  1.0000
  H   H230      1.0  0.93980  0.26861  0.13192  1.0000
  H   H231      1.0  0.77832  0.37114  0.26757  1.0000
  H   H232      1.0  0.98626  0.32235  0.05599  1.0000
  H   H233      1.0  0.99124  0.33834  0.10004  1.0000
  H   H234      1.0  0.83587  0.02510  0.05699  1.0000
  C   C240      1.0  0.79981  0.18402  0.23459  1.0000
  H   H235      1.0  0.83222  0.46508  0.03745  1.0000
  C   C241      1.0  0.78888  0.15065  0.24684  1.0000
  N   N20       1.0  0.78616  0.14504  0.28127  1.0000
  C   C242      1.0  0.77404  0.10966  0.29344  1.0000
  C   C243      1.0  0.99239  0.23058  0.00052  1.0000
  C   C244      1.0  0.75101  0.49351  0.03804  1.0000
  H   H236      1.0  0.81002  0.40004  0.04358  1.0000
  H   H237      1.0  0.99136  0.21105  0.12229  1.0000
  N   N21       1.0  0.79028  0.42162  0.01003  1.0000
  H   H238      1.0  0.72479  0.22061  0.03194  1.0000
  C   C245      1.0  0.79548  0.39603  0.02054  1.0000
  H   H239      1.0  0.74475  0.09285  0.29357  1.0000
  H   H240      1.0  0.60407  0.30595  0.15575  1.0000
  C   C246      1.0  0.51796  0.26750  0.13835  1.0000
  H   H241      1.0  0.78340  0.11101  0.31966  1.0000
  C   C247      1.0  0.70157  0.01630  0.01348  1.0000
  H   H242      1.0  0.81024  0.22672  0.31129  1.0000
  H   H243      1.0  0.87899  0.03149  0.04875  1.0000
  C   C248      1.0  0.51566  0.23771  0.05435  1.0000
  H   H244      1.0  0.50910  0.23981  0.13997  1.0000
  H   H245      1.0  0.55831  0.23498  0.31427  1.0000
  H   H246      1.0  0.78506  0.34342  0.01124  1.0000
  C   C249      1.0  0.51062  0.23398  0.32887  1.0000
  C   C250      1.0  0.54728  0.24989  0.32490  1.0000
  H   H247      1.0  0.73686  0.07252  0.00679  1.0000
  H   H248      1.0  0.97150  0.20628  0.01188  1.0000
  H   H249      1.0  0.54962  0.36549  0.12759  1.0000
  H   H250      1.0  0.76757  0.00351  0.03742  1.0000
  Fe  Fe41      1.0  0.90680  0.20677  0.42079  1.0000
  S   S83       1.0  0.85816  0.19335  0.45244  1.0000
  S   S84       1.0  0.96252  0.25180  0.43594  1.0000
  Fe  Fe42      1.0  0.86219  0.15692  0.36167  1.0000
  S   S85       1.0  0.81088  0.13849  0.39053  1.0000
  Fe  Fe43      1.0  0.83434  0.19624  0.40393  1.0000
  S   S86       1.0  0.80606  0.22276  0.38591  1.0000
  Fe  Fe44      1.0  0.83843  0.13644  0.43647  1.0000
  S   S87       1.0  0.81778  0.09664  0.47999  1.0000
  S   S88       1.0  0.88463  0.21431  0.37338  1.0000
  S   S89       1.0  0.88824  0.15029  0.40658  1.0000
  Fe  Fe45      1.0  0.72058  0.39629  0.38714  1.0000
  S   S90       1.0  0.70179  0.37099  0.43872  1.0000
  S   S91       1.0  0.75960  0.45290  0.36971  1.0000
  H   H251      1.0  0.92127  0.30725  0.49917  1.0000
  S   S92       1.0  0.65350  0.29428  0.39799  1.0000
  Fe  Fe46      1.0  0.64753  0.33903  0.41570  1.0000
  S   S93       1.0  0.59751  0.33249  0.44003  1.0000
  Fe  Fe47      1.0  0.70933  0.32780  0.41649  1.0000
  S   S94       1.0  0.73274  0.30344  0.44779  1.0000
  S   S95       1.0  0.66584  0.36747  0.36604  1.0000
  S   S96       1.0  0.73187  0.35526  0.36674  1.0000
  C   C251      1.0  0.55060  0.26228  0.42172  1.0000
  C   C252      1.0  0.55501  0.29443  0.43289  1.0000
  H   H252      1.0  0.92773  0.32454  0.35197  1.0000
  H   H253      1.0  0.57350  0.26076  0.41573  1.0000
  C   C253      1.0  0.89016  0.29908  0.39349  1.0000
  C   C254      1.0  0.78569  0.24483  0.40421  1.0000
  C   C255      1.0  0.78239  0.24889  0.43957  1.0000
  C   C256      1.0  0.76625  0.26697  0.45248  1.0000
  C   C257      1.0  0.75318  0.28113  0.43030  1.0000
  C   C258      1.0  0.75651  0.27702  0.39498  1.0000
  C   C259      1.0  0.77267  0.25904  0.38208  1.0000
  H   H254      1.0  0.79189  0.23784  0.45698  1.0000
  H   H255      1.0  0.76374  0.26986  0.47985  1.0000
  H   H256      1.0  0.74656  0.28765  0.37756  1.0000
  H   H257      1.0  0.77495  0.25604  0.35471  1.0000
  C   C260      1.0  0.79029  0.04955  0.48112  1.0000
  H   H258      1.0  0.54125  0.26526  0.50070  1.0000
  H   H259      1.0  0.57617  0.30962  0.50979  1.0000
  C   C261      1.0  0.78476  0.03271  0.51250  1.0000
  H   H260      1.0  0.77783  0.04104  0.42774  1.0000
  H   H261      1.0  0.79721  0.04863  0.53520  1.0000
  C   C262      1.0  0.95282  0.32444  0.39774  1.0000
  C   C263      1.0  0.77391  0.02857  0.45202  1.0000
  H   H262      1.0  0.66148  0.25086  0.46821  1.0000
  H   H263      1.0  0.96278  0.19751  0.47576  1.0000
  C   C264      1.0  0.99456  0.25223  0.46193  1.0000
  H   H264      1.0  0.57287  0.33153  0.35740  1.0000
  H   H265      1.0  0.68142  0.31104  0.49107  1.0000
  H   H266      1.0  0.74144  0.47315  0.43618  1.0000
  H   H267      1.0  0.85904  0.27373  0.43847  1.0000
  C   C265      1.0  0.65335  0.29095  0.49010  1.0000
  H   H268      1.0  0.56266  0.27616  0.54159  1.0000
  C   C266      1.0  0.64215  0.25709  0.47727  1.0000
  H   H269      1.0  0.63714  0.32540  0.51059  1.0000
  C   C267      1.0  0.98797  0.22219  0.47871  1.0000
  N   N22       1.0  0.91400  0.29552  0.44596  1.0000
  C   C268      1.0  0.92397  0.31691  0.37851  1.0000
  H   H270      1.0  0.59718  0.20530  0.46524  1.0000
  C   C269      1.0  0.60607  0.23155  0.47560  1.0000
  H   H271      1.0  0.85938  0.00815  0.52076  1.0000
  C   C270      1.0  0.94736  0.31392  0.43177  1.0000
  H   H272      1.0  0.50788  0.30244  0.36330  1.0000
  C   C271      1.0  0.52492  0.29591  0.44060  1.0000
  H   H273      1.0  0.96986  0.31930  0.44640  1.0000
  H   H274      1.0  0.52812  0.32065  0.44950  1.0000
  C   C272      1.0  0.58163  0.24018  0.48729  1.0000
  H   H275      1.0  0.55360  0.22018  0.48597  1.0000
  C   C273      1.0  0.56695  0.28145  0.51379  1.0000
  Fe  Fe48      1.0  0.67566  0.32500  0.34991  1.0000
  N   N23       1.0  0.59285  0.27351  0.49978  1.0000
  C   C274      1.0  0.62820  0.29882  0.50119  1.0000
  H   H276      1.0  0.86746  0.29295  0.37880  1.0000
  C   C275      1.0  0.77116  0.49430  0.38928  1.0000
  C   C276      1.0  0.51643  0.23172  0.41926  1.0000
  C   C277      1.0  0.88557  0.28833  0.42740  1.0000
  H   H277      1.0  0.88080  0.26622  0.48867  1.0000
  C   C278      1.0  0.75883  0.49691  0.42202  1.0000
  C   C279      1.0  0.90918  0.28395  0.48139  1.0000
  C   C280      1.0  0.55551  0.30426  0.34872  1.0000
  H   H278      1.0  0.92201  0.26878  0.48457  1.0000
  H   H279      1.0  0.97920  0.33769  0.38629  1.0000
  C   C281      1.0  0.51874  0.28758  0.35217  1.0000
  C   C282      1.0  0.56979  0.28522  0.33498  1.0000
  H   H280      1.0  0.51327  0.20676  0.41132  1.0000
  H   H281      1.0  0.82591  0.00346  0.46968  1.0000
  H   H282      1.0  0.00293  0.19220  0.57976  1.0000
  H   H283      1.0  0.79080  0.16742  0.33155  1.0000
  H   H284      1.0  0.59825  0.29769  0.33237  1.0000
  H   H285      1.0  0.81222  0.05631  0.92353  1.0000
  C   C283      1.0  0.80234  0.04469  0.94839  1.0000
  C   C284      1.0  0.70938  0.00942  0.94347  1.0000
  H   H286      1.0  0.74350  0.06649  0.94393  1.0000
  H   H287      1.0  0.74972  0.33259  0.95968  1.0000
  H   H288      1.0  0.82870  0.09529  0.97561  1.0000
  C   C285      1.0  0.72651  0.04317  0.95899  1.0000
  H   H289      1.0  0.85981  0.02713  0.96811  1.0000
  C   C286      1.0  0.77047  0.41576  0.98193  1.0000
  C   C287      1.0  0.81165  0.06687  0.97785  1.0000
  H   H290      1.0  0.71336  0.00692  0.91619  1.0000
  C   C288      1.0  0.78042  0.00767  0.95083  1.0000
  C   C289      1.0  0.72276  0.04655  0.99426  1.0000
  H   H291      1.0  0.73973  0.37912  0.94125  1.0000
  C   C290      1.0  0.76144  0.35777  0.97350  1.0000
  C   C291      1.0  0.75589  0.38384  0.96316  1.0000
  H   H292      1.0  0.76530  0.43554  0.97423  1.0000
  S   S97       1.0  0.88473  0.69862  0.29557  1.0000
  Fe  Fe49      1.0  0.85752  0.72742  0.10226  1.0000
  S   S98       1.0  0.80950  0.68299  0.07621  1.0000
  S   S99       1.0  0.85020  0.74347  0.15667  1.0000
  Fe  Fe50      1.0  0.90536  0.73987  0.03831  1.0000
  Fe  Fe51      1.0  0.82813  0.71713  0.02969  1.0000
  H   H293      1.0  0.80219  0.83515  0.01876  1.0000
  Fe  Fe52      1.0  0.84507  0.66431  0.05792  1.0000
  S   S100      1.0  0.83033  0.60897  0.07312  1.0000
  S   S101      1.0  0.87343  0.76309  0.05702  1.0000
  S   S102      1.0  0.89280  0.70799  0.08595  1.0000
  S   S103      1.0  0.95959  0.78244  0.01599  1.0000
  H   H294      1.0  0.80390  0.54247  0.10436  1.0000
  C   C292      1.0  0.79883  0.56499  0.05898  1.0000
  C   C293      1.0  0.82029  0.96373  0.02696  1.0000
  C   C294      1.0  0.80546  0.93359  0.00548  1.0000
  C   C295      1.0  0.78205  0.55724  0.02758  1.0000
  C   C296      1.0  0.79681  0.78467  0.00901  1.0000
  H   H295      1.0  0.82208  0.63437  0.18588  1.0000
  H   H296      1.0  0.75056  0.67866  0.16262  1.0000
  C   C297      1.0  0.87488  0.71163  0.25742  1.0000
  C   C298      1.0  0.85752  0.72987  0.25780  1.0000
  C   C299      1.0  0.85073  0.73996  0.22678  1.0000
  C   C300      1.0  0.86111  0.73188  0.19508  1.0000
  C   C301      1.0  0.87837  0.71354  0.19471  1.0000
  C   C302      1.0  0.88527  0.70358  0.22571  1.0000
  H   H297      1.0  0.84934  0.73626  0.28195  1.0000
  H   H298      1.0  0.83721  0.75400  0.22735  1.0000
  H   H299      1.0  0.88664  0.70726  0.17058  1.0000
  H   H300      1.0  0.89882  0.68957  0.22511  1.0000
  N   N24       1.0  0.78519  0.62811  0.14901  1.0000
  C   C303      1.0  0.79105  0.53682  0.08005  1.0000
  H   H301      1.0  0.78778  0.57857  0.01105  1.0000
  C   C304      1.0  0.81600  0.62721  0.15838  1.0000
  C   C305      1.0  0.78052  0.65385  0.16296  1.0000
  C   C306      1.0  0.78953  0.81108  0.00327  1.0000
  C   C307      1.0  0.75321  0.65733  0.15222  1.0000
  C   C308      1.0  0.73503  0.60753  0.11339  1.0000
  C   C309      1.0  0.73037  0.63403  0.12721  1.0000
  H   H302      1.0  0.81508  0.78868  0.02855  1.0000
  H   H303      1.0  0.83933  0.64635  0.14262  1.0000
  H   H304      1.0  0.94488  0.76322  0.31748  1.0000
  H   H305      1.0  0.81604  0.96045  0.05440  1.0000
  H   H306      1.0  0.71796  0.58968  0.09341  1.0000
  H   H307      1.0  0.70959  0.63696  0.11807  1.0000
  C   C310      1.0  0.75859  0.52166  0.01704  1.0000
  H   H308      1.0  0.79841  0.67239  0.18201  1.0000
  C   C311      1.0  0.76283  0.60503  0.12458  1.0000
  H   H309      1.0  0.76687  0.58503  0.11301  1.0000
  H   H310      1.0  0.81168  0.60055  0.15358  1.0000
  S   S104      1.0  0.86040  0.69486  0.00881  1.0000
  H   H311      1.0  0.66835  0.95953  0.01224  1.0000
  N   N25       1.0  0.83960  0.99686  0.01355  1.0000
  H   H312      1.0  0.95349  0.71332  0.31032  1.0000
  H   H313      1.0  0.78984  0.90721  0.01596  1.0000
  C   C312      1.0  0.96850  0.73415  0.32922  1.0000
  H   H314      1.0  0.97100  0.72465  0.99889  1.0000
  Fe  Fe53      1.0  0.87056  0.70372  0.35150  1.0000
  S   S105      1.0  0.81558  0.67346  0.37434  1.0000
  Fe  Fe54      1.0  0.90455  0.73337  0.42166  1.0000
  S   S106      1.0  0.85160  0.70476  0.44938  1.0000
  S   S107      1.0  0.95501  0.77554  0.44913  1.0000
  Fe  Fe55      1.0  0.83848  0.65781  0.41465  1.0000
  S   S108      1.0  0.80555  0.60339  0.43888  1.0000
  Fe  Fe56      1.0  0.83218  0.72226  0.40746  1.0000
  S   S109      1.0  0.79171  0.73840  0.41494  1.0000
  S   S110      1.0  0.89307  0.68518  0.39025  1.0000
  S   S111      1.0  0.88569  0.75385  0.38121  1.0000
  Fe  Fe57      1.0  0.65174  0.81791  0.55982  1.0000
  S   S112      1.0  0.66767  0.87365  0.57377  1.0000
  S   S113      1.0  0.59569  0.76879  0.56308  1.0000
  Fe  Fe58      1.0  0.72901  0.83813  0.55015  1.0000
  S   S114      1.0  0.75016  0.89526  0.56485  1.0000
  S   S115      1.0  0.77030  0.82349  0.53897  1.0000
  Fe  Fe59      1.0  0.70815  0.87417  0.60679  1.0000
  C   C313      1.0  0.56326  0.82861  0.63520  1.0000
  Fe  Fe60      1.0  0.70854  0.89037  0.53093  1.0000
  S   S116      1.0  0.71966  0.92747  0.48693  1.0000
  S   S117      1.0  0.69029  0.81766  0.59498  1.0000
  S   S118      1.0  0.68922  0.83395  0.51414  1.0000
  C   C314      1.0  0.79388  0.52559  0.37134  1.0000
  C   C315      1.0  0.74641  0.97460  0.48584  1.0000
  C   C316      1.0  0.76951  0.53045  0.43671  1.0000
  C   C317      1.0  0.81566  0.91926  0.50530  1.0000
  C   C318      1.0  0.79237  0.56175  0.41883  1.0000
  H   H315      1.0  0.74686  0.65738  0.41268  1.0000
  C   C319      1.0  0.80432  0.55910  0.38592  1.0000
  C   C320      1.0  0.59343  0.86194  0.64146  1.0000
  H   H316      1.0  0.82193  0.58287  0.37184  1.0000
  C   C321      1.0  0.78732  0.76361  0.44892  1.0000
  C   C322      1.0  0.81047  0.77764  0.47631  1.0000
  C   C323      1.0  0.80487  0.79597  0.50349  1.0000
  C   C324      1.0  0.77611  0.80049  0.50372  1.0000
  C   C325      1.0  0.75300  0.78650  0.47630  1.0000
  C   C326      1.0  0.75864  0.76824  0.44909  1.0000
  H   H317      1.0  0.83256  0.77421  0.47667  1.0000
  H   H318      1.0  0.82294  0.80668  0.52454  1.0000
  H   H319      1.0  0.73065  0.78953  0.47613  1.0000
  H   H320      1.0  0.74049  0.75741  0.42810  1.0000
  C   C327      1.0  0.56447  0.79837  0.63902  1.0000
  H   H321      1.0  0.95573  0.81495  0.34548  1.0000
  H   H322      1.0  0.75918  0.98309  0.53919  1.0000
  C   C328      1.0  0.55413  0.79601  0.55134  1.0000
  C   C329      1.0  0.55535  0.76691  0.56071  1.0000
  C   C330      1.0  0.52355  0.73521  0.56899  1.0000
  H   H323      1.0  0.75692  0.62664  0.42777  1.0000
  H   H324      1.0  0.57841  0.82060  0.54501  1.0000
  H   H325      1.0  0.76413  0.86034  0.47973  1.0000
  H   H326      1.0  0.85281  0.95368  0.54363  1.0000
  C   C331      1.0  0.77939  0.67205  0.52067  1.0000
  C   C332      1.0  0.77167  0.88226  0.46206  1.0000
  H   H327      1.0  0.79560  0.66888  0.53814  1.0000
  H   H328      1.0  0.77882  0.63543  0.48317  1.0000
  H   H329      1.0  0.54096  0.77260  0.63396  1.0000
  C   C333      1.0  0.76830  0.69529  0.52887  1.0000
  H   H330      1.0  0.77597  0.71058  0.55270  1.0000
  H   H331      1.0  0.00211  0.77860  0.56013  1.0000
  H   H332      1.0  0.78383  0.87820  0.43849  1.0000
  H   H333      1.0  0.59309  0.88569  0.63822  1.0000
  H   H334      1.0  0.71280  0.61758  0.43385  1.0000
  N   N26       1.0  0.79641  0.91685  0.47791  1.0000
  H   H335      1.0  0.52063  0.81564  0.54181  1.0000
  H   H336      1.0  0.97589  0.72340  0.44674  1.0000
  C   C334      1.0  0.76309  0.99551  0.51487  1.0000
  C   C335      1.0  0.80071  0.94671  0.46458  1.0000
  H   H337      1.0  0.81261  0.89562  0.51566  1.0000
  H   H338      1.0  0.73933  0.97552  0.43179  1.0000
  H   H339      1.0  0.80369  0.52397  0.34607  1.0000
  N   N27       1.0  0.75054  0.65808  0.46668  1.0000
  C   C336      1.0  0.73901  0.68029  0.47480  1.0000
  C   C337      1.0  0.76992  0.65328  0.48941  1.0000
  C   C338      1.0  0.74766  0.69918  0.50600  1.0000
  H   H340      1.0  0.57439  0.74629  0.63780  1.0000
  C   C339      1.0  0.74124  0.63888  0.43368  1.0000
  H   H341      1.0  0.72417  0.68455  0.45653  1.0000
  H   H342      1.0  0.78523  0.94479  0.44303  1.0000
  H   H343      1.0  0.73943  0.71768  0.51180  1.0000
  H   H344      1.0  0.76013  0.53213  0.46219  1.0000
  C   C340      1.0  0.52135  0.79316  0.54970  1.0000
  C   C341      1.0  0.62459  0.83381  0.65475  1.0000
  N   N28       1.0  0.98176  0.78832  0.35783  1.0000
  H   H345      1.0  0.53920  0.82613  0.62694  1.0000
  N   N29       1.0  0.59515  0.80131  0.64792  1.0000
  H   H346      1.0  0.52426  0.71260  0.57643  1.0000
  C   C342      1.0  0.62420  0.86460  0.65169  1.0000
  H   H347      1.0  0.74681  0.88047  0.45558  1.0000
  C   C343      1.0  0.99228  0.77613  0.46410  1.0000
  C   C344      1.0  0.96363  0.76244  0.33349  1.0000
  H   H348      1.0  0.96683  0.81793  0.38951  1.0000
  C   C345      1.0  0.97613  0.81759  0.36275  1.0000
  C   C346      1.0  0.75203  0.99138  0.45444  1.0000
  C   C347      1.0  0.59649  0.76958  0.65128  1.0000
  C   C348      1.0  0.82365  0.97999  0.47960  1.0000
  C   C349      1.0  0.83860  0.95209  0.52117  1.0000
  S   S119      1.0  0.71709  0.89980  0.66031  1.0000
  H   H349      1.0  0.62125  0.77367  0.63913  1.0000
  H   H350      1.0  0.64796  0.89035  0.65659  1.0000
  C   C350      1.0  0.99216  0.73253  0.34989  1.0000
  C   C351      1.0  0.99642  0.74745  0.45913  1.0000
  H   H351      1.0  0.99566  0.71039  0.34720  1.0000
  C   C352      1.0  0.84235  0.98258  0.50833  1.0000
  H   H352      1.0  0.00115  0.84319  0.35775  1.0000
  H   H353      1.0  0.50895  0.76755  0.47934  1.0000
  H   H354      1.0  0.64874  0.83608  0.66215  1.0000
  H   H355      1.0  0.58413  0.77611  0.94260  1.0000
  H   H356      1.0  0.66467  0.92352  0.96399  1.0000
  Fe  Fe61      1.0  0.72724  0.85150  0.93343  1.0000
  S   S120      1.0  0.75828  0.88758  0.88965  1.0000
  S   S121      1.0  0.75821  0.84119  0.97183  1.0000
  Fe  Fe62      1.0  0.66198  0.85571  0.91957  1.0000
  S   S122      1.0  0.68964  0.89216  0.87556  1.0000
  S   S123      1.0  0.60890  0.85019  0.93010  1.0000
  Fe  Fe63      1.0  0.70808  0.85603  0.85974  1.0000
  S   S124      1.0  0.70156  0.83166  0.80589  1.0000
  Fe  Fe64      1.0  0.73681  0.92058  0.90950  1.0000
  S   S125      1.0  0.76959  0.98103  0.91294  1.0000
  S   S126      1.0  0.67792  0.81746  0.90236  1.0000
  S   S127      1.0  0.70830  0.88661  0.95443  1.0000
  H   H357      1.0  0.82452  0.74238  0.88099  1.0000
  H   H358      1.0  0.60862  0.82493  0.85868  1.0000
  C   C353      1.0  0.50863  0.78948  0.83569  1.0000
  H   H359      1.0  0.54083  0.72979  0.86276  1.0000
  H   H360      1.0  0.60504  0.79268  0.82701  1.0000
  H   H361      1.0  0.73139  0.77111  0.93874  1.0000
  H   H362      1.0  0.59552  0.76364  0.67872  1.0000
  C   C354      1.0  0.53206  0.74663  0.85460  1.0000
  H   H363      1.0  0.79608  0.72113  0.91803  1.0000
  C   C355      1.0  0.81591  0.74702  0.90659  1.0000
  H   H364      1.0  0.85997  0.72774  0.92280  1.0000
  H   H365      1.0  0.91133  0.75950  0.96071  1.0000
  N   N30       1.0  0.68916  0.97986  0.96262  1.0000
  C   C356      1.0  0.59393  0.79626  0.85163  1.0000
  H   H366      1.0  0.56364  0.83096  0.83478  1.0000
  N   N31       1.0  0.55597  0.78175  0.84880  1.0000
  C   C357      1.0  0.71309  0.88045  0.70050  1.0000
  C   C358      1.0  0.71753  0.90036  0.73081  1.0000
  C   C359      1.0  0.71417  0.88596  0.76324  1.0000
  C   C360      1.0  0.70625  0.85135  0.76575  1.0000
  C   C361      1.0  0.70162  0.83137  0.73543  1.0000
  C   C362      1.0  0.70507  0.84579  0.70301  1.0000
  H   H367      1.0  0.72379  0.92720  0.72921  1.0000
  H   H368      1.0  0.71788  0.90171  0.78625  1.0000
  H   H369      1.0  0.69568  0.80465  0.73706  1.0000
  H   H370      1.0  0.74368  0.72432  0.94901  1.0000
  C   C363      1.0  0.53658  0.81249  0.92608  1.0000
  C   C364      1.0  0.56637  0.81065  0.93140  1.0000
  C   C365      1.0  0.56149  0.77784  0.93801  1.0000
  H   H371      1.0  0.54002  0.83776  0.92120  1.0000
  C   C366      1.0  0.81066  0.93755  0.97018  1.0000
  C   C367      1.0  0.86647  0.75277  0.93467  1.0000
  C   C368      1.0  0.99231  0.74868  0.98749  1.0000
  C   C369      1.0  0.52707  0.74732  0.93978  1.0000
  C   C370      1.0  0.89535  0.77045  0.95629  1.0000
  C   C371      1.0  0.88200  0.81544  0.96741  1.0000
  H   H372      1.0  0.92484  0.81530  0.99038  1.0000
  H   H373      1.0  0.83365  0.97463  0.92918  1.0000
  C   C372      1.0  0.76779  0.99298  0.98309  1.0000
  H   H374      1.0  0.88717  0.83936  0.98084  1.0000
  H   H375      1.0  0.70192  0.83021  0.68002  1.0000
  H   H376      1.0  0.75094  0.96457  0.98539  1.0000
  H   H377      1.0  0.80256  0.76158  0.90314  1.0000
  C   C373      1.0  0.54472  0.80309  0.83918  1.0000
  C   C374      1.0  0.67155  0.94482  0.94574  1.0000
  C   C375      1.0  0.83048  0.97137  0.95671  1.0000
  H   H378      1.0  0.83710  0.80783  0.94152  1.0000
  H   H379      1.0  0.79912  0.91439  0.95330  1.0000
  H   H380      1.0  0.64681  0.93878  0.93378  1.0000
  H   H381      1.0  0.68920  0.94369  0.92565  1.0000
  N   N32       1.0  0.84624  0.76647  0.92912  1.0000
  C   C376      1.0  0.85371  0.79745  0.94508  1.0000
  C   C377      1.0  0.76601  0.80661  0.97783  1.0000
  C   C378      1.0  0.74971  0.77516  0.95823  1.0000
  H   H382      1.0  0.52347  0.72214  0.94553  1.0000
  H   H383      1.0  0.59891  0.78315  0.87219  1.0000
  C   C379      1.0  0.75674  0.74861  0.96417  1.0000
  S   S128      1.0  0.79044  0.71991  0.99372  1.0000
  C   C380      1.0  0.90300  0.80186  0.97288  1.0000
  C   C381      1.0  0.84507  0.00094  0.97891  1.0000
  C   C382      1.0  0.78048  0.75320  0.98942  1.0000
  C   C383      1.0  0.99241  0.77991  0.99120  1.0000
  H   H384      1.0  0.74639  0.51595  0.99235  1.0000
  C   C384      1.0  0.68464  0.98295  0.99711  1.0000
