data_image0
_chemical_formula_structural       Fe2C2S2CHS2CFeSFeCH3SH2CH2CH2C3HCHFeSCFeSCFeSFeSCSFeS2FeSHFeSFeS3C2HCHCH4CH3C2SHC4HC6H4C2HCH3C3NC6HC2H2CSC2HCH2CHSC2H2CHC4HNH3CHC2SHCH2S2HCHCHC2H2NH2NH7CNCH2C3H5SCFeS2H5SCS2CHCFeHCNHC2HCHCH2CSCFeC2HCH4CFeS2FeSNFeSFeS3HCSH2SFeS2FeSFeHSCHCH2CH2CSNFeH2C6H4C2H3CHCHC5HC2HC3H2C2HC4NHC3HC2HC3H4C3H4CH2CHCHCHSHCHC2HNHCHC3HCH2C2NHFeH2FeS2CSFeS3FeS2FeS2FeHFeS3NC5H2CH2C6H4CH2CHSH3CNC2HCHCH3CNCHCHNH2CHCHC2H2CHC4SHFeHC2HC2SH2C4HCHC4H2CHNH3C2H3C2H2CHC3HCH2SH2C3HC3H3FeCSFeS2CSFeS3FeCFeS2FeS3C4HC6H4C3HC3HNHCH3SHC3HC2FeHCH2SHCS2HNH3NC6H4CH3C2HFeC4H2FeCHC2HCHCH3NCH8C2H3CH2NH2C2HCSCH2CFeSHFeS2FeSFeSH4CHCSH2CH2NH2C4HSCHC2H2NHSFeS2C2FeSFeS3FeSFeCSFeS2CHC4FeNH5CHCHCH3SC2SHCSHCHCH2CNCSC2HNCH2CH2C3HCHCHC4HSC3H2CH2CHCH2C4HCH3C2NC3HC2H4C2H2FeHSH4SHCSFeSHFeH2CHCSCSCHC2H2FeC4FeH3C4HCSH3NH3C2HSCS
_chemical_formula_sum              "Fe56 C336 S112 H336 N28"
_cell_length_a       37.1509
_cell_length_b       41.5657
_cell_length_c       56.6198
_cell_angle_alpha    84.241
_cell_angle_beta     84.1582
_cell_angle_gamma    117.181

_space_group_name_H-M_alt    "P 1"
_space_group_IT_number       1

loop_
  _space_group_symop_operation_xyz
  'x, y, z'

loop_
  _atom_site_type_symbol
  _atom_site_label
  _atom_site_symmetry_multiplicity
  _atom_site_fract_x
  _atom_site_fract_y
  _atom_site_fract_z
  _atom_site_occupancy
  Fe  Fe1       1.0  0.22503  0.43110  0.31057  1.0000
  Fe  Fe2       1.0  0.23451  0.36287  0.31969  1.0000
  C   C1        1.0  0.39044  0.49299  0.33648  1.0000
  C   C2        1.0  0.32152  0.46708  0.22155  1.0000
  S   S1        1.0  0.22571  0.39160  0.28659  1.0000
  S   S2        1.0  0.30338  0.39389  0.31098  1.0000
  C   C3        1.0  0.19535  0.17546  0.33899  1.0000
  H   H1        1.0  0.25679  0.43053  0.23249  1.0000
  S   S3        1.0  0.18595  0.45836  0.30520  1.0000
  S   S4        1.0  0.29242  0.46802  0.30143  1.0000
  C   C4        1.0  0.26850  0.46996  0.20085  1.0000
  Fe  Fe3       1.0  0.29393  0.42607  0.28021  1.0000
  S   S5        1.0  0.33741  0.44816  0.24490  1.0000
  Fe  Fe4       1.0  0.29692  0.43370  0.33275  1.0000
  C   C5        1.0  0.27998  0.45363  0.21963  1.0000
  H   H2        1.0  0.24621  0.48152  0.26159  1.0000
  H   H3        1.0  0.23645  0.45947  0.19932  1.0000
  H   H4        1.0  0.24041  0.24786  0.32361  1.0000
  S   S6        1.0  0.20090  0.30090  0.32656  1.0000
  H   H5        1.0  0.36952  0.47021  0.30495  1.0000
  H   H6        1.0  0.18243  0.47822  0.25653  1.0000
  C   C6        1.0  0.45162  0.48269  0.23593  1.0000
  H   H7        1.0  0.41117  0.46246  0.21014  1.0000
  H   H8        1.0  0.20703  0.18451  0.31936  1.0000
  C   C7        1.0  0.35129  0.49684  0.20479  1.0000
  H   H9        1.0  0.18837  0.48879  0.22429  1.0000
  H   H10       1.0  0.43100  0.46083  0.25054  1.0000
  C   C8        1.0  0.31902  0.49923  0.09471  1.0000
  C   C9        1.0  0.39449  0.49053  0.31201  1.0000
  C   C10       1.0  0.44037  0.48368  0.21322  1.0000
  H   H11       1.0  0.31440  0.49932  0.11445  1.0000
  C   C11       1.0  0.20418  0.49932  0.31695  1.0000
  H   H12       1.0  0.30295  0.47042  0.09161  1.0000
  Fe  Fe5       1.0  0.25078  0.18515  0.63787  1.0000
  S   S7        1.0  0.19786  0.15385  0.61940  1.0000
  C   C12       1.0  0.26189  0.26666  0.35583  1.0000
  Fe  Fe6       1.0  0.24087  0.25395  0.63262  1.0000
  S   S8        1.0  0.18663  0.22867  0.61374  1.0000
  C   C13       1.0  0.27150  0.08043  0.61517  1.0000
  Fe  Fe7       1.0  0.16642  0.17861  0.64124  1.0000
  S   S9        1.0  0.10065  0.14428  0.65855  1.0000
  Fe  Fe8       1.0  0.22252  0.20631  0.59331  1.0000
  S   S10       1.0  0.22615  0.21268  0.55307  1.0000
  C   C14       1.0  0.29526  0.12923  0.63916  1.0000
  S   S11       1.0  0.27880  0.23576  0.60979  1.0000
  Fe  Fe9       1.0  0.12108  0.08907  0.46824  1.0000
  S   S12       1.0  0.16763  0.13104  0.43804  1.0000
  S   S13       1.0  0.13374  0.07385  0.50443  1.0000
  Fe  Fe10      1.0  0.05059  0.07330  0.44106  1.0000
  S   S14       1.0  0.09025  0.11435  0.40825  1.0000
  H   H13       1.0  0.12047  0.22622  0.65422  1.0000
  Fe  Fe11      1.0  0.13333  0.09137  0.41434  1.0000
  S   S15       1.0  0.16965  0.08484  0.38288  1.0000
  Fe  Fe12      1.0  0.12127  0.15087  0.43454  1.0000
  S   S16       1.0  0.14415  0.21171  0.43240  1.0000
  S   S17       1.0  0.09112  0.04712  0.44490  1.0000
  S   S18       1.0  0.07727  0.11189  0.46691  1.0000
  C   C15       1.0  0.18573  0.05200  0.39043  1.0000
  C   C16       1.0  0.04161  0.01665  0.53548  1.0000
  H   H14       1.0  0.20260  0.35397  0.63686  1.0000
  C   C17       1.0  0.23681  0.03141  0.38390  1.0000
  H   H15       1.0  0.22352  0.03078  0.49643  1.0000
  C   C18       1.0  0.21791  0.19343  0.37688  1.0000
  H   H16       1.0  0.04894  0.13402  0.55328  1.0000
  H   H17       1.0  0.35869  0.34919  0.67173  1.0000
  H   H18       1.0  0.24931  0.06409  0.60470  1.0000
  H   H19       1.0  0.09394  0.07388  0.67023  1.0000
  C   C19       1.0  0.18405  0.33450  0.65299  1.0000
  H   H20       1.0  0.18800  0.26482  0.49541  1.0000
  H   H21       1.0  0.19031  0.28921  0.41458  1.0000
  H   H22       1.0  0.18015  0.03330  0.51176  1.0000
  C   C20       1.0  0.18095  0.27767  0.35638  1.0000
  C   C21       1.0  0.01267  0.06836  0.62795  1.0000
  S   S19       1.0  0.31168  0.04031  0.60572  1.0000
  H   H23       1.0  0.12278  0.14908  0.60766  1.0000
  C   C22       1.0  0.06493  0.01597  0.64782  1.0000
  C   C23       1.0  0.15555  0.23962  0.36031  1.0000
  C   C24       1.0  0.07118  0.10588  0.59671  1.0000
  C   C25       1.0  0.15973  0.01893  0.40595  1.0000
  H   H24       1.0  0.09539  0.18854  0.47996  1.0000
  C   C26       1.0  0.19863  0.17353  0.54042  1.0000
  C   C27       1.0  0.17705  0.13857  0.55439  1.0000
  C   C28       1.0  0.15614  0.10785  0.54340  1.0000
  C   C29       1.0  0.15592  0.11229  0.51857  1.0000
  C   C30       1.0  0.17642  0.14736  0.50478  1.0000
  C   C31       1.0  0.19847  0.17778  0.51561  1.0000
  H   H25       1.0  0.17693  0.13505  0.57354  1.0000
  H   H26       1.0  0.14038  0.08071  0.55412  1.0000
  H   H27       1.0  0.17662  0.15098  0.48562  1.0000
  H   H28       1.0  0.21555  0.20474  0.50473  1.0000
  C   C32       1.0  0.03389  0.08908  0.64487  1.0000
  C   C33       1.0  0.26717  0.10835  0.62507  1.0000
  H   H29       1.0  0.08602  0.11206  0.57819  1.0000
  C   C34       1.0  0.17186  0.03822  0.65677  1.0000
  H   H30       1.0  0.16282  0.16974  0.34247  1.0000
  H   H31       1.0  0.15206  0.25429  0.47470  1.0000
  H   H32       1.0  0.05254  0.02598  0.55182  1.0000
  C   C35       1.0  0.07364  0.11838  0.63758  1.0000
  C   C36       1.0  0.26018  0.25676  0.38036  1.0000
  C   C37       1.0  0.22421  0.05812  0.37943  1.0000
  N   N1        1.0  0.13299  0.21334  0.50574  1.0000
  C   C38       1.0  0.13769  0.21148  0.52943  1.0000
  C   C39       1.0  0.09881  0.18728  0.49880  1.0000
  C   C40       1.0  0.10759  0.18302  0.54688  1.0000
  C   C41       1.0  0.06802  0.15851  0.51579  1.0000
  C   C42       1.0  0.07250  0.15642  0.53997  1.0000
  C   C43       1.0  0.16543  0.24226  0.48737  1.0000
  H   H33       1.0  0.16533  0.23146  0.53492  1.0000
  C   C44       1.0  0.23811  0.21991  0.39100  1.0000
  C   C45       1.0  0.18281  0.06901  0.66800  1.0000
  H   H34       1.0  0.00715  0.04663  0.53389  1.0000
  H   H35       1.0  0.24155  0.11302  0.62231  1.0000
  C   C46       1.0  0.33362  0.09601  0.63193  1.0000
  S   S20       1.0  0.26753  0.31395  0.63573  1.0000
  C   C47       1.0  0.15626  0.23704  0.40325  1.0000
  C   C48       1.0  0.30491  0.07439  0.61847  1.0000
  H   H36       1.0  0.04104  0.01713  0.66070  1.0000
  C   C49       1.0  0.28138  0.11098  0.55267  1.0000
  H   H37       1.0  0.29826  0.12626  0.56586  1.0000
  H   H38       1.0  0.35958  0.09156  0.63448  1.0000
  C   C50       1.0  0.18041  0.27531  0.39947  1.0000
  H   H39       1.0  0.27057  0.15452  0.53677  1.0000
  S   S21       1.0  0.00416  0.05515  0.58159  1.0000
  C   C51       1.0  0.28255  0.36553  0.66478  1.0000
  C   C52       1.0  0.26604  0.12685  0.53631  1.0000
  H   H40       1.0  0.28654  0.06262  0.56467  1.0000
  H   H41       1.0  0.23275  0.11920  0.50675  1.0000
  C   C53       1.0  0.27464  0.07519  0.55211  1.0000
  H   H42       1.0  0.12973  0.01385  0.41427  1.0000
  C   C54       1.0  0.32837  0.12288  0.64263  1.0000
  C   C55       1.0  0.09229  0.12649  0.61351  1.0000
  C   C56       1.0  0.24437  0.10664  0.51948  1.0000
  C   C57       1.0  0.25199  0.05550  0.53544  1.0000
  H   H43       1.0  0.18196  0.23046  0.47679  1.0000
  N   N2        1.0  0.23753  0.07142  0.51924  1.0000
  H   H44       1.0  0.29822  0.38528  0.64842  1.0000
  H   H45       1.0  0.12428  0.19002  0.38639  1.0000
  H   H46       1.0  0.35018  0.13897  0.65350  1.0000
  C   C58       1.0  0.14343  0.21934  0.38365  1.0000
  H   H47       1.0  0.27474  0.27774  0.39123  1.0000
  C   C59       1.0  0.21251  0.04981  0.50256  1.0000
  C   C60       1.0  0.26521  0.32791  0.66385  1.0000
  S   S22       1.0  0.34337  0.46462  0.35553  1.0000
  H   H48       1.0  0.23541  0.21204  0.41021  1.0000
  C   C61       1.0  0.18006  0.34676  0.67467  1.0000
  H   H49       1.0  0.01935  0.08263  0.66350  1.0000
  H   H50       1.0  0.11192  0.18132  0.56554  1.0000
  S   S23       1.0  0.21721  0.20565  0.66226  1.0000
  S   S24       1.0  0.28867  0.16203  0.65369  1.0000
  H   H51       1.0  0.06630  0.02994  0.62970  1.0000
  C   C62       1.0  0.16614  0.29681  0.65252  1.0000
  H   H52       1.0  0.21266  0.32496  0.37313  1.0000
  C   C63       1.0  0.19293  0.29562  0.37604  1.0000
  H   H53       1.0  0.17105  0.28762  0.63579  1.0000
  C   C64       1.0  0.01591  0.02843  0.52548  1.0000
  C   C65       1.0  0.03113  0.07728  0.60376  1.0000
  H   H54       1.0  0.21310  0.06761  0.48634  1.0000
  H   H55       1.0  0.24595  0.02735  0.53557  1.0000
  N   N3        1.0  0.10522  0.03359  0.65537  1.0000
  H   H56       1.0  0.26671  0.03636  0.37534  1.0000
  H   H57       1.0  0.04109  0.13776  0.51019  1.0000
  N   N4        1.0  0.14418  0.27201  0.67301  1.0000
  H   H58       1.0  0.10105  0.00217  0.54506  1.0000
  H   H59       1.0  0.20001  0.16492  0.38533  1.0000
  H   H60       1.0  0.27728  0.29538  0.34757  1.0000
  H   H61       1.0  0.00827  0.04142  0.39704  1.0000
  H   H62       1.0  0.19662  0.14952  0.34429  1.0000
  H   H63       1.0  0.41010  0.41517  0.66681  1.0000
  H   H64       1.0  0.24439  0.08357  0.36741  1.0000
  C   C66       1.0  0.00138  0.01643  0.50464  1.0000
  N   N5        1.0  0.21953  0.20342  0.35287  1.0000
  C   C67       1.0  0.13290  0.02105  0.65025  1.0000
  H   H65       1.0  0.12488  0.02563  0.35478  1.0000
  H   H66       1.0  0.18070  0.01285  0.34654  1.0000
  C   C68       1.0  0.11573  0.06377  0.66634  1.0000
  C   C69       1.0  0.12684  0.23260  0.67244  1.0000
  C   C70       1.0  0.15469  0.08205  0.67270  1.0000
  H   H67       1.0  0.05469  0.00649  0.37553  1.0000
  H   H68       1.0  0.21320  0.08300  0.67282  1.0000
  H   H69       1.0  0.19340  0.02770  0.65307  1.0000
  H   H70       1.0  0.21541  0.47736  0.34984  1.0000
  H   H71       1.0  0.14591  0.22573  0.34517  1.0000
  S   S25       1.0  0.22855  0.40013  0.34433  1.0000
  C   C71       1.0  0.24095  0.23952  0.34231  1.0000
  Fe  Fe13      1.0  0.28919  0.42708  0.73717  1.0000
  S   S26       1.0  0.34473  0.46788  0.71071  1.0000
  S   S27       1.0  0.25213  0.36683  0.73530  1.0000
  H   H72       1.0  0.42129  0.44671  0.70268  1.0000
  H   H73       1.0  0.23122  0.27344  0.68437  1.0000
  H   H74       1.0  0.33984  0.33113  0.76319  1.0000
  H   H75       1.0  0.22465  0.29501  0.72319  1.0000
  H   H76       1.0  0.29187  0.40681  0.68714  1.0000
  S   S28       1.0  0.27084  0.49787  0.80207  1.0000
  C   C72       1.0  0.32289  0.34254  0.75322  1.0000
  S   S29       1.0  0.26198  0.46515  0.74025  1.0000
  S   S30       1.0  0.31980  0.44063  0.76970  1.0000
  C   C73       1.0  0.34165  0.34451  0.71005  1.0000
  H   H77       1.0  0.29245  0.31996  0.75159  1.0000
  C   C74       1.0  0.15826  0.32131  0.69557  1.0000
  Fe  Fe14      1.0  0.29758  0.48246  0.77048  1.0000
  H   H78       1.0  0.38035  0.41257  0.74244  1.0000
  C   C75       1.0  0.14051  0.28379  0.69442  1.0000
  N   N6        1.0  0.34689  0.36243  0.72945  1.0000
  H   H79       1.0  0.31632  0.36096  0.76382  1.0000
  C   C76       1.0  0.24473  0.30248  0.68498  1.0000
  C   C77       1.0  0.25794  0.35240  0.70773  1.0000
  H   H80       1.0  0.12450  0.26417  0.71085  1.0000
  C   C78       1.0  0.24097  0.31474  0.70689  1.0000
  H   H81       1.0  0.31918  0.31582  0.71199  1.0000
  C   C79       1.0  0.37562  0.39849  0.72700  1.0000
  H   H82       1.0  0.32524  0.47111  0.81915  1.0000
  H   H83       1.0  0.15648  0.33066  0.71269  1.0000
  C   C80       1.0  0.32469  0.49108  0.82984  1.0000
  S   S31       1.0  0.43602  0.48957  0.74393  1.0000
  C   C81       1.0  0.27900  0.37778  0.68668  1.0000
  Fe  Fe15      1.0  0.37336  0.48425  0.74338  1.0000
  C   C82       1.0  0.39896  0.41794  0.70449  1.0000
  C   C83       1.0  0.36412  0.36321  0.68722  1.0000
  H   H84       1.0  0.16308  0.10634  0.68106  1.0000
  C   C84       1.0  0.39279  0.40023  0.68445  1.0000
  H   H85       1.0  0.36545  0.48581  0.85282  1.0000
  H   H86       1.0  0.09720  0.21665  0.68498  1.0000
  H   H87       1.0  0.14857  0.22273  0.67761  1.0000
  H   H88       1.0  0.19516  0.37590  0.67548  1.0000
  C   C85       1.0  0.34731  0.49932  0.84889  1.0000
  Fe  Fe16      1.0  0.33592  0.71980  0.28350  1.0000
  S   S32       1.0  0.29373  0.72835  0.26107  1.0000
  S   S33       1.0  0.40383  0.75533  0.27373  1.0000
  Fe  Fe17      1.0  0.26789  0.65213  0.31468  1.0000
  S   S34       1.0  0.21965  0.65427  0.29489  1.0000
  N   N7        1.0  0.24307  0.76766  0.23373  1.0000
  Fe  Fe18      1.0  0.26540  0.66769  0.26174  1.0000
  S   S35       1.0  0.24609  0.63955  0.22995  1.0000
  Fe  Fe19      1.0  0.25201  0.71441  0.29635  1.0000
  S   S36       1.0  0.21125  0.74051  0.30320  1.0000
  S   S37       1.0  0.31096  0.66017  0.28136  1.0000
  S   S38       1.0  0.29693  0.71129  0.31893  1.0000
  H   H89       1.0  0.26647  0.52157  0.11292  1.0000
  C   C86       1.0  0.27336  0.56187  0.05631  1.0000
  S   S39       1.0  0.39357  0.56263  0.12254  1.0000
  H   H90       1.0  0.45680  0.51479  0.17739  1.0000
  H   H91       1.0  0.21856  0.79073  0.25888  1.0000
  S   S40       1.0  0.38181  0.61112  0.16163  1.0000
  Fe  Fe20      1.0  0.40214  0.60799  0.09372  1.0000
  S   S41       1.0  0.34684  0.61181  0.11049  1.0000
  S   S42       1.0  0.41389  0.59648  0.05621  1.0000
  Fe  Fe21      1.0  0.39182  0.65275  0.13010  1.0000
  S   S43       1.0  0.39142  0.70243  0.14205  1.0000
  Fe  Fe22      1.0  0.34225  0.56998  0.14068  1.0000
  H   H92       1.0  0.33746  0.52504  0.04777  1.0000
  S   S44       1.0  0.44784  0.65238  0.11112  1.0000
  C   C87       1.0  0.39927  0.61300  0.03100  1.0000
  H   H93       1.0  0.35259  0.51064  0.08854  1.0000
  C   C88       1.0  0.38030  0.63517  0.03275  1.0000
  H   H94       1.0  0.42080  0.63031  0.20572  1.0000
  H   H95       1.0  0.37515  0.64332  0.04981  1.0000
  C   C89       1.0  0.21081  0.73305  0.24065  1.0000
  H   H96       1.0  0.38330  0.50805  0.20642  1.0000
  H   H97       1.0  0.17869  0.67022  0.33694  1.0000
  C   C90       1.0  0.23556  0.71283  0.20714  1.0000
  S   S45       1.0  0.47518  0.59766  0.16409  1.0000
  N   N8        1.0  0.45196  0.72050  0.20535  1.0000
  Fe  Fe23      1.0  0.43382  0.60706  0.14136  1.0000
  H   H98       1.0  0.18078  0.51842  0.24345  1.0000
  H   H99       1.0  0.29854  0.80222  0.20918  1.0000
  C   C91       1.0  0.28594  0.65830  0.20516  1.0000
  C   C92       1.0  0.32188  0.69069  0.20528  1.0000
  C   C93       1.0  0.35355  0.70529  0.18533  1.0000
  C   C94       1.0  0.35009  0.68662  0.16574  1.0000
  C   C95       1.0  0.31416  0.65423  0.16567  1.0000
  C   C96       1.0  0.28172  0.64062  0.18507  1.0000
  H   H100      1.0  0.32538  0.70453  0.22071  1.0000
  H   H101      1.0  0.38105  0.73051  0.18539  1.0000
  H   H102      1.0  0.31119  0.63985  0.15049  1.0000
  H   H103      1.0  0.25367  0.61602  0.18461  1.0000
  C   C97       1.0  0.42884  0.65563  0.21271  1.0000
  C   C98       1.0  0.22184  0.56370  0.31223  1.0000
  H   H104      1.0  0.35305  0.66381  0.01380  1.0000
  H   H105      1.0  0.15903  0.76622  0.32610  1.0000
  H   H106      1.0  0.49065  0.59680  0.21248  1.0000
  C   C99       1.0  0.46980  0.71686  0.32395  1.0000
  H   H107      1.0  0.22402  0.58760  0.30144  1.0000
  C   C100      1.0  0.31532  0.53155  0.05722  1.0000
  H   H108      1.0  0.23290  0.69125  0.19698  1.0000
  C   C101      1.0  0.20658  0.70515  0.22746  1.0000
  C   C102      1.0  0.43216  0.65697  0.23696  1.0000
  C   C103      1.0  0.42917  0.74181  0.29382  1.0000
  C   C104      1.0  0.40725  0.71679  0.31501  1.0000
  C   C105      1.0  0.30485  0.52772  0.24705  1.0000
  H   H109      1.0  0.29213  0.75369  0.18516  1.0000
  C   C106      1.0  0.43878  0.68783  0.19707  1.0000
  C   C107      1.0  0.32617  0.56468  0.31607  1.0000
  H   H110      1.0  0.31896  0.60203  0.20841  1.0000
  C   C108      1.0  0.36769  0.64661  0.01237  1.0000
  C   C109      1.0  0.44474  0.69027  0.24534  1.0000
  C   C110      1.0  0.21237  0.75928  0.32985  1.0000
  H   H111      1.0  0.18166  0.67746  0.23330  1.0000
  H   H112      1.0  0.35846  0.61781  0.29358  1.0000
  C   C111      1.0  0.26039  0.55595  0.22429  1.0000
  C   C112      1.0  0.48875  0.51077  0.23989  1.0000
  H   H113      1.0  0.15806  0.97519  0.33010  1.0000
  C   C113      1.0  0.18226  0.76940  0.33708  1.0000
  C   C114      1.0  0.46031  0.54320  0.32974  1.0000
  C   C115      1.0  0.26105  0.55082  0.08117  1.0000
  C   C116      1.0  0.24835  0.79617  0.24840  1.0000
  N   N9        1.0  0.24036  0.52255  0.23895  1.0000
  H   H114      1.0  0.19606  0.52888  0.28628  1.0000
  C   C117      1.0  0.45473  0.72198  0.22916  1.0000
  C   C118      1.0  0.46644  0.75465  0.18843  1.0000
  C   C119      1.0  0.46420  0.54035  0.30528  1.0000
  H   H115      1.0  0.31051  0.56070  0.02489  1.0000
  C   C120      1.0  0.26875  0.74795  0.20047  1.0000
  C   C121      1.0  0.26197  0.50841  0.25040  1.0000
  H   H116      1.0  0.30021  0.55471  0.30655  1.0000
  C   C122      1.0  0.35891  0.59995  0.30873  1.0000
  C   C123      1.0  0.30324  0.57592  0.22046  1.0000
  C   C124      1.0  0.27214  0.77520  0.21412  1.0000
  H   H117      1.0  0.45485  0.74938  0.17109  1.0000
  H   H118      1.0  0.43750  0.68677  0.17808  1.0000
  H   H119      1.0  0.36340  0.53592  0.17348  1.0000
  H   H120      1.0  0.35873  0.57572  0.22827  1.0000
  C   C125      1.0  0.27620  0.53004  0.09359  1.0000
  C   C126      1.0  0.49161  0.74187  0.30280  1.0000
  C   C127      1.0  0.30031  0.55186  0.04419  1.0000
  H   H121      1.0  0.26157  0.82361  0.23703  1.0000
  H   H122      1.0  0.18861  0.72664  0.25674  1.0000
  H   H123      1.0  0.37454  0.70656  0.31959  1.0000
  H   H124      1.0  0.24321  0.56706  0.21520  1.0000
  C   C128      1.0  0.32552  0.56143  0.23176  1.0000
  H   H125      1.0  0.42631  0.63255  0.24906  1.0000
  H   H126      1.0  0.26895  0.79676  0.26151  1.0000
  C   C129      1.0  0.47150  0.75493  0.28803  1.0000
  H   H127      1.0  0.44815  0.69194  0.26403  1.0000
  C   C130      1.0  0.32660  0.54238  0.33604  1.0000
  H   H128      1.0  0.32204  0.51579  0.25532  1.0000
  C   C131      1.0  0.20621  0.53039  0.30353  1.0000
  H   H129      1.0  0.43367  0.51204  0.27762  1.0000
  S   S46       1.0  0.28485  0.52119  0.16080  1.0000
  H   H130      1.0  0.26616  0.75669  0.33851  1.0000
  C   C132      1.0  0.23397  0.56579  0.33485  1.0000
  H   H131      1.0  0.48867  0.77456  0.27181  1.0000
  C   C133      1.0  0.39199  0.61218  0.32134  1.0000
  C   C134      1.0  0.42775  0.70490  0.33035  1.0000
  H   H132      1.0  0.26238  0.57842  0.04643  1.0000
  N   N10       1.0  0.30348  0.52118  0.08162  1.0000
  H   H133      1.0  0.46560  0.74794  0.23568  1.0000
  C   C135      1.0  0.33988  0.51307  0.18618  1.0000
  H   H134      1.0  0.41752  0.63953  0.31555  1.0000
  C   C136      1.0  0.29854  0.49982  0.18410  1.0000
  C   C137      1.0  0.43122  0.51406  0.29650  1.0000
  C   C138      1.0  0.40564  0.60246  0.00880  1.0000
  H   H135      1.0  0.24024  0.55854  0.09084  1.0000
  C   C139      1.0  0.46600  0.51283  0.19486  1.0000
  H   H136      1.0  0.45562  0.77289  0.19611  1.0000
  H   H137      1.0  0.48600  0.56313  0.33667  1.0000
  C   C140      1.0  0.21715  0.50144  0.33937  1.0000
  C   C141      1.0  0.19576  0.50092  0.24088  1.0000
  N   N11       1.0  0.39212  0.59006  0.34089  1.0000
  H   H138      1.0  0.45623  0.61533  0.34136  1.0000
  Fe  Fe24      1.0  0.16726  0.93958  0.62943  1.0000
  H   H139      1.0  0.02155  0.83133  0.52174  1.0000
  H   H140      1.0  0.34447  0.89742  0.63382  1.0000
  Fe  Fe25      1.0  0.21771  0.90973  0.60366  1.0000
  S   S47       1.0  0.24735  0.95829  0.57399  1.0000
  S   S48       1.0  0.23759  0.86621  0.60267  1.0000
  C   C142      1.0  0.42357  0.51911  0.34541  1.0000
  S   S49       1.0  0.22669  0.96439  0.40228  1.0000
  Fe  Fe26      1.0  0.18410  0.95236  0.57529  1.0000
  S   S50       1.0  0.16623  0.96329  0.53982  1.0000
  S   S51       1.0  0.22867  0.94397  0.63273  1.0000
  S   S52       1.0  0.15353  0.90068  0.60271  1.0000
  Fe  Fe27      1.0  0.10298  0.84560  0.39622  1.0000
  S   S53       1.0  0.16974  0.87084  0.38054  1.0000
  S   S54       1.0  0.05899  0.84138  0.37091  1.0000
  Fe  Fe28      1.0  0.11821  0.84114  0.44745  1.0000
  S   S55       1.0  0.18609  0.86558  0.43618  1.0000
  S   S56       1.0  0.09200  0.82586  0.48699  1.0000
  Fe  Fe29      1.0  0.17895  0.90514  0.40971  1.0000
  H   H141      1.0  0.16099  0.71721  0.41078  1.0000
  Fe  Fe30      1.0  0.17068  0.82886  0.40821  1.0000
  S   S57       1.0  0.20829  0.79958  0.40180  1.0000
  S   S58       1.0  0.11200  0.88366  0.42308  1.0000
  S   S59       1.0  0.10273  0.80055  0.42181  1.0000
  N   N12       1.0  0.05346  0.99432  0.52453  1.0000
  C   C143      1.0  0.16375  0.81324  0.56949  1.0000
  C   C144      1.0  0.01032  0.85061  0.51515  1.0000
  C   C145      1.0  0.43740  0.60321  0.67113  1.0000
  C   C146      1.0  0.42676  0.60402  0.35404  1.0000
  C   C147      1.0  0.21049  0.99789  0.39873  1.0000
  H   H142      1.0  0.15156  0.96586  0.42146  1.0000
  H   H143      1.0  0.15687  0.82851  0.58277  1.0000
  C   C148      1.0  0.07920  0.98113  0.53572  1.0000
  H   H144      1.0  0.39121  0.61285  0.65642  1.0000
  H   H145      1.0  0.42081  0.52059  0.36442  1.0000
  C   C149      1.0  0.14472  0.92490  0.52544  1.0000
  C   C150      1.0  0.12327  0.88944  0.53874  1.0000
  C   C151      1.0  0.10657  0.85908  0.52686  1.0000
  C   C152      1.0  0.11193  0.86410  0.50166  1.0000
  C   C153      1.0  0.13338  0.89957  0.48840  1.0000
  C   C154      1.0  0.14927  0.92994  0.50029  1.0000
  H   H146      1.0  0.11905  0.88541  0.55816  1.0000
  H   H147      1.0  0.08987  0.83169  0.53719  1.0000
  H   H148      1.0  0.13793  0.90373  0.46896  1.0000
  H   H149      1.0  0.16583  0.95732  0.48991  1.0000
  C   C155      1.0  0.23641  0.69332  0.39951  1.0000
  H   H150      1.0  0.15088  0.79011  0.52715  1.0000
  H   H151      1.0  0.08434  0.92276  0.62487  1.0000
  C   C156      1.0  0.05449  0.92428  0.38301  1.0000
  H   H152      1.0  0.24079  0.53607  0.36601  1.0000
  S   S60       1.0  0.19188  0.99052  0.60201  1.0000
  H   H153      1.0  0.18715  0.80613  0.57558  1.0000
  H   H154      1.0  0.12490  0.99748  0.64122  1.0000
  H   H155      1.0  0.13488  0.78765  0.56974  1.0000
  C   C157      1.0  0.03972  0.98277  0.50384  1.0000
  N   N13       1.0  0.18656  0.66955  0.37338  1.0000
  C   C158      1.0  0.22215  0.67370  0.38081  1.0000
  C   C159      1.0  0.16474  0.68493  0.38390  1.0000
  H   H156      1.0  0.23992  0.66211  0.37214  1.0000
  C   C160      1.0  0.49416  0.66430  0.63854  1.0000
  H   H157      1.0  0.04832  0.96443  0.49548  1.0000
  C   C161      1.0  0.30747  0.94566  0.66264  1.0000
  H   H158      1.0  0.13900  0.63092  0.35754  1.0000
  H   H159      1.0  0.44209  0.66807  0.62746  1.0000
  H   H160      1.0  0.29968  0.96768  0.65913  1.0000
  C   C162      1.0  0.21119  0.78688  0.37321  1.0000
  N   N14       1.0  0.32407  0.93515  0.64414  1.0000
  C   C163      1.0  0.17186  0.99159  0.40982  1.0000
  H   H161      1.0  0.27621  0.79510  0.65949  1.0000
  C   C164      1.0  0.33027  0.95279  0.61924  1.0000
  H   H162      1.0  0.09807  0.97531  0.52201  1.0000
  N   N15       1.0  0.17956  0.83563  0.54542  1.0000
  H   H163      1.0  0.13759  0.68310  0.37727  1.0000
  H   H164      1.0  0.30497  0.93495  0.61017  1.0000
  C   C165      1.0  0.18160  0.78314  0.35875  1.0000
  H   H165      1.0  0.21210  0.88527  0.55895  1.0000
  C   C166      1.0  0.44905  0.75711  0.67097  1.0000
  H   H166      1.0  0.35941  0.53816  0.36412  1.0000
  C   C167      1.0  0.20460  0.87258  0.54311  1.0000
  C   C168      1.0  0.45230  0.65302  0.63943  1.0000
  H   H167      1.0  0.22518  0.72491  0.42461  1.0000
  H   H168      1.0  0.33085  0.97989  0.61840  1.0000
  C   C169      1.0  0.18628  0.84043  0.50238  1.0000
  H   H169      1.0  0.33608  0.62463  0.67298  1.0000
  C   C170      1.0  0.24239  0.76370  0.34409  1.0000
  C   C171      1.0  0.22029  0.89453  0.52035  1.0000
  C   C172      1.0  0.01327  0.99345  0.49368  1.0000
  C   C173      1.0  0.99770  0.90778  0.66164  1.0000
  S   S61       1.0  0.12988  0.93372  0.66457  1.0000
  H   H170      1.0  0.35993  0.95756  0.60909  1.0000
  Fe  Fe31      1.0  0.25248  0.99179  0.60316  1.0000
  H   H171      1.0  0.10565  0.91611  0.37017  1.0000
  C   C174      1.0  0.46126  0.77604  0.62782  1.0000
  C   C175      1.0  0.07872  0.92217  0.66320  1.0000
  H   H172      1.0  0.23903  0.92398  0.51865  1.0000
  C   C176      1.0  0.21096  0.87828  0.49987  1.0000
  C   C177      1.0  0.21397  0.70860  0.41060  1.0000
  S   S62       1.0  0.39843  0.78181  0.65244  1.0000
  H   H173      1.0  0.05475  0.98649  0.64720  1.0000
  H   H174      1.0  0.22225  0.89502  0.48210  1.0000
  C   C178      1.0  0.33308  0.90689  0.64857  1.0000
  C   C179      1.0  0.06425  0.91929  0.64123  1.0000
  C   C180      1.0  0.43822  0.76999  0.65047  1.0000
  C   C181      1.0  0.32652  0.88899  0.67209  1.0000
  H   H175      1.0  0.26498  0.69711  0.40508  1.0000
  C   C182      1.0  0.17069  0.81939  0.52542  1.0000
  H   H176      1.0  0.26510  0.78085  0.37665  1.0000
  C   C183      1.0  0.47956  0.61560  0.66997  1.0000
  C   C184      1.0  0.17774  0.70417  0.40290  1.0000
  C   C185      1.0  0.02362  0.91206  0.64046  1.0000
  C   C186      1.0  0.25780  0.82508  0.63434  1.0000
  H   H177      1.0  0.27288  0.82054  0.61862  1.0000
  H   H178      1.0  0.00199  0.98398  0.47743  1.0000
  C   C187      1.0  0.23725  0.84601  0.63159  1.0000
  H   H179      1.0  0.17535  0.96901  0.35811  1.0000
  N   N16       1.0  0.11931  0.97192  0.36141  1.0000
  H   H180      1.0  0.45305  0.78608  0.61195  1.0000
  H   H181      1.0  0.42658  0.62614  0.36347  1.0000
  H   H182      1.0  0.15778  0.79018  0.36447  1.0000
  C   C188      1.0  0.09451  0.93597  0.37136  1.0000
  C   C189      1.0  0.24189  0.77762  0.36565  1.0000
  H   H183      1.0  0.01513  0.77401  0.40558  1.0000
  H   H184      1.0  0.01226  0.90937  0.62357  1.0000
  H   H185      1.0  0.03488  0.89561  0.39064  1.0000
  C   C190      1.0  0.48379  0.75158  0.66880  1.0000
  C   C191      1.0  0.21766  0.85159  0.65198  1.0000
  H   H186      1.0  0.17815  0.82757  0.48660  1.0000
  H   H187      1.0  0.20090  0.86691  0.65007  1.0000
  C   C192      1.0  0.25960  0.81057  0.65746  1.0000
  H   H188      1.0  0.42570  0.58222  0.36758  1.0000
  C   C193      1.0  0.03989  0.94967  0.38442  1.0000
  C   C194      1.0  0.10523  0.99704  0.36261  1.0000
  C   C195      1.0  0.06552  0.98639  0.37434  1.0000
  H   H189      1.0  0.41072  0.68546  0.34666  1.0000
  C   C196      1.0  0.17246  0.65007  0.35328  1.0000
  H   H190      1.0  0.05951  0.95564  0.54886  1.0000
  H   H191      1.0  0.03712  0.87740  0.50698  1.0000
  S   S63       1.0  0.25370  0.60778  0.34549  1.0000
  H   H192      1.0  0.00869  0.94084  0.39315  1.0000
  H   H193      1.0  0.03377  0.84517  0.47050  1.0000
  C   C197      1.0  0.00708  0.81476  0.38344  1.0000
  C   C198      1.0  0.35972  0.55575  0.34850  1.0000
  C   C199      1.0  0.42380  0.62223  0.65582  1.0000
  H   H194      1.0  0.18812  0.63342  0.34929  1.0000
  C   C200      1.0  0.16035  0.98286  0.34832  1.0000
  C   C201      1.0  0.23132  0.53455  0.34853  1.0000
  C   C202      1.0  0.00081  0.83416  0.47515  1.0000
  H   H195      1.0  0.30141  0.51484  0.34199  1.0000
  H   H196      1.0  0.30707  0.66058  0.69242  1.0000
  H   H197      1.0  0.46134  0.79067  0.76103  1.0000
  Fe  Fe32      1.0  0.28495  0.77452  0.71042  1.0000
  C   C203      1.0  0.29935  0.53328  0.83935  1.0000
  S   S64       1.0  0.24600  0.80272  0.70705  1.0000
  Fe  Fe33      1.0  0.34655  0.76976  0.74033  1.0000
  S   S65       1.0  0.35488  0.72945  0.72015  1.0000
  S   S66       1.0  0.38093  0.78613  0.77113  1.0000
  C   C204      1.0  0.43649  0.74905  0.94032  1.0000
  S   S67       1.0  0.35430  0.52745  0.74727  1.0000
  Fe  Fe34      1.0  0.28657  0.70258  0.72304  1.0000
  S   S68       1.0  0.25079  0.64234  0.73703  1.0000
  S   S69       1.0  0.35319  0.80780  0.70722  1.0000
  S   S70       1.0  0.27802  0.74053  0.74565  1.0000
  Fe  Fe35      1.0  0.44128  0.67233  0.88356  1.0000
  C   C205      1.0  0.19830  0.54957  0.79983  1.0000
  Fe  Fe36      1.0  0.35223  0.64511  0.87755  1.0000
  S   S71       1.0  0.32910  0.59969  0.90917  1.0000
  S   S72       1.0  0.30999  0.64654  0.85224  1.0000
  Fe  Fe37      1.0  0.37519  0.64176  0.92759  1.0000
  S   S73       1.0  0.35962  0.65245  0.96482  1.0000
  S   S74       1.0  0.39392  0.68839  0.89694  1.0000
  S   S75       1.0  0.40156  0.63371  0.86132  1.0000
  C   C206      1.0  0.29954  0.92770  0.68632  1.0000
  C   C207      1.0  0.39314  0.61397  0.98843  1.0000
  C   C208      1.0  0.37416  0.63612  0.99016  1.0000
  C   C209      1.0  0.26142  0.58232  0.73375  1.0000
  H   H198      1.0  0.39824  0.60572  0.97141  1.0000
  C   C210      1.0  0.36304  0.74742  0.79356  1.0000
  C   C211      1.0  0.37877  0.75005  0.81517  1.0000
  C   C212      1.0  0.36319  0.71904  0.83329  1.0000
  C   C213      1.0  0.33157  0.68561  0.82983  1.0000
  C   C214      1.0  0.31694  0.68290  0.80793  1.0000
  C   C215      1.0  0.33271  0.71360  0.78983  1.0000
  H   H199      1.0  0.40258  0.77610  0.81803  1.0000
  H   H200      1.0  0.37492  0.72125  0.85009  1.0000
  H   H201      1.0  0.29427  0.65680  0.80459  1.0000
  H   H202      1.0  0.32122  0.71096  0.77301  1.0000
  C   C216      1.0  0.27184  0.61777  0.72285  1.0000
  C   C217      1.0  0.44793  0.54655  0.81165  1.0000
  C   C218      1.0  0.29917  0.63322  0.70103  1.0000
  H   H203      1.0  0.44620  0.76431  0.92158  1.0000
  C   C219      1.0  0.48350  0.82008  0.75462  1.0000
  C   C220      1.0  0.47499  0.72618  0.82869  1.0000
  C   C221      1.0  0.46054  0.83202  0.71723  1.0000
  H   H204      1.0  0.44370  0.56331  0.73627  1.0000
  N   N17       1.0  0.46026  0.72990  0.94561  1.0000
  H   H205      1.0  0.30192  0.88408  0.70915  1.0000
  C   C222      1.0  0.32284  0.54233  0.85776  1.0000
  H   H206      1.0  0.44826  0.72028  0.84155  1.0000
  H   H207      1.0  0.44974  0.73699  0.79817  1.0000
  H   H208      1.0  0.28102  0.54660  0.83584  1.0000
  S   S76       1.0  0.37788  0.53853  0.88497  1.0000
  H   H209      1.0  0.19111  0.52817  0.78883  1.0000
  C   C223      1.0  0.20911  0.64419  0.79535  1.0000
  C   C224      1.0  0.34675  0.52532  0.86268  1.0000
  C   C225      1.0  0.05264  0.91747  0.68434  1.0000
  H   H210      1.0  0.43352  0.83021  0.72788  1.0000
  C   C226      1.0  0.31552  0.61282  0.69002  1.0000
  C   C227      1.0  0.30040  0.50792  0.82522  1.0000
  Fe  Fe38      1.0  0.38182  0.59125  0.89406  1.0000
  H   H211      1.0  0.24051  0.57027  0.75059  1.0000
  C   C228      1.0  0.19759  0.58210  0.79145  1.0000
  H   H212      1.0  0.20219  0.65758  0.80990  1.0000
  H   H213      1.0  0.18973  0.58565  0.77377  1.0000
  S   S77       1.0  0.32729  0.55236  0.68839  1.0000
  H   H214      1.0  0.32203  0.56229  0.86829  1.0000
  C   C229      1.0  0.30518  0.57733  0.70111  1.0000
  S   S78       1.0  0.42611  0.62900  0.91537  1.0000
  S   S79       1.0  0.28698  0.73356  0.68809  1.0000
  H   H215      1.0  0.06388  0.91974  0.70132  1.0000
  N   N18       1.0  0.20752  0.60942  0.80509  1.0000
  H   H216      1.0  0.22993  0.57079  0.85308  1.0000
  H   H217      1.0  0.27033  0.53521  0.73184  1.0000
  H   H218      1.0  0.24019  0.66315  0.78500  1.0000
  N   N19       1.0  0.38789  0.65665  0.75026  1.0000
  C   C230      1.0  0.40038  0.67512  0.76902  1.0000
  C   C231      1.0  0.35906  0.62047  0.75457  1.0000
  C   C232      1.0  0.38427  0.65720  0.79282  1.0000
  C   C233      1.0  0.34142  0.60198  0.77815  1.0000
  C   C234      1.0  0.35424  0.62056  0.79738  1.0000
  C   C235      1.0  0.40640  0.67506  0.72536  1.0000
  H   H219      1.0  0.42263  0.70393  0.76568  1.0000
  H   H220      1.0  0.34946  0.60577  0.73971  1.0000
  H   H221      1.0  0.39413  0.67189  0.80768  1.0000
  H   H222      1.0  0.31799  0.57347  0.78145  1.0000
  C   C236      1.0  0.24059  0.81678  0.67786  1.0000
  H   H223      1.0  0.42658  0.66427  0.71769  1.0000
  H   H224      1.0  0.38207  0.67039  0.71417  1.0000
  H   H225      1.0  0.42522  0.70521  0.72423  1.0000
  C   C237      1.0  0.45304  0.57549  0.82398  1.0000
  C   C238      1.0  0.27834  0.56233  0.72305  1.0000
  H   H226      1.0  0.42018  0.58517  0.00738  1.0000
  Fe  Fe39      1.0  0.35509  0.76440  0.68738  1.0000
  C   C239      1.0  0.20946  0.54518  0.82223  1.0000
  C   C240      1.0  0.47385  0.56533  0.73294  1.0000
  C   C241      1.0  0.47965  0.55093  0.79405  1.0000
  C   C242      1.0  0.21990  0.57330  0.83594  1.0000
  H   H227      1.0  0.48655  0.73730  0.90885  1.0000
  H   H228      1.0  0.34072  0.60690  0.81581  1.0000
  Fe  Fe40      1.0  0.32061  0.50749  0.71685  1.0000
  C   C243      1.0  0.21869  0.60539  0.82706  1.0000
  H   H229      1.0  0.43680  0.71700  0.98322  1.0000
  C   C244      1.0  0.47822  0.53343  0.73493  1.0000
  C   C245      1.0  0.01210  0.91003  0.68359  1.0000
  H   H230      1.0  0.47876  0.62736  0.85108  1.0000
  C   C246      1.0  0.45694  0.71488  0.96887  1.0000
  H   H231      1.0  0.47435  0.68258  0.99283  1.0000
  C   C247      1.0  0.46510  0.83840  0.69208  1.0000
  H   H232      1.0  0.42831  0.57185  0.83774  1.0000
  H   H233      1.0  0.44169  0.84094  0.68328  1.0000
  H   H234      1.0  0.20444  0.84176  0.69075  1.0000
  N   N20       1.0  0.48883  0.60787  0.81890  1.0000
  C   C248      1.0  0.47569  0.73530  0.80408  1.0000
  H   H235      1.0  0.21078  0.52027  0.82867  1.0000
  H   H236      1.0  0.18668  0.63999  0.78286  1.0000
  H   H237      1.0  0.22807  0.62752  0.83756  1.0000
  H   H238      1.0  0.43181  0.75301  0.68852  1.0000
  H   H239      1.0  0.47101  0.83689  0.76281  1.0000
  H   H240      1.0  0.44032  0.76899  0.95275  1.0000
  H   H241      1.0  0.41534  0.57889  0.68370  1.0000
  H   H242      1.0  0.40339  0.72880  0.94257  1.0000
  C   C249      1.0  0.47799  0.69524  0.97440  1.0000
  C   C250      1.0  0.30919  0.89920  0.69102  1.0000
  H   H243      1.0  0.47854  0.65314  0.82339  1.0000
  H   H244      1.0  0.28523  0.93530  0.70086  1.0000
  H   H245      1.0  0.41959  0.52085  0.81571  1.0000
  C   C251      1.0  0.48425  0.72587  0.92737  1.0000
  H   H246      1.0  0.47613  0.52850  0.78456  1.0000
  H   H247      1.0  0.48993  0.60042  0.68166  1.0000
  N   N21       1.0  0.48957  0.82783  0.72827  1.0000
  H   H248      1.0  0.49291  0.74287  0.68472  1.0000
  H   H249      1.0  0.33263  0.86592  0.67553  1.0000
  C   C252      1.0  0.49324  0.63792  0.83183  1.0000
  C   C253      1.0  0.21929  0.83698  0.67503  1.0000
  H   H250      1.0  0.98162  0.04631  0.63347  1.0000
  C   C254      1.0  0.98413  0.01388  0.40404  1.0000
  S   S80       1.0  0.98259  0.03652  0.44792  1.0000
  C   C255      1.0  0.96685  0.00423  0.42845  1.0000
  H   H251      1.0  0.98099  0.02502  0.49702  1.0000
  H   H252      1.0  0.52409  0.75141  0.29780  1.0000
  C   C256      1.0  0.66858  0.81094  0.31692  1.0000
  Fe  Fe41      1.0  0.53380  0.68652  0.31404  1.0000
  S   S81       1.0  0.58850  0.73156  0.28940  1.0000
  H   H253      1.0  0.75674  0.76880  0.31639  1.0000
  Fe  Fe42      1.0  0.53995  0.62686  0.29044  1.0000
  S   S82       1.0  0.59582  0.66681  0.26403  1.0000
  S   S83       1.0  0.50468  0.65761  0.28453  1.0000
  Fe  Fe43      1.0  0.61664  0.69455  0.29580  1.0000
  S   S84       1.0  0.68248  0.71899  0.30151  1.0000
  Fe  Fe44      1.0  0.56212  0.69954  0.26037  1.0000
  S   S85       1.0  0.55639  0.72428  0.22476  1.0000
  H   H254      1.0  0.57523  0.58256  0.21022  1.0000
  H   H255      1.0  0.78737  0.69964  0.33000  1.0000
  H   H256      1.0  0.52195  0.56355  0.18523  1.0000
  H   H257      1.0  0.56459  0.55983  0.24077  1.0000
  C   C257      1.0  0.55138  0.56942  0.22662  1.0000
  H   H258      1.0  0.70166  0.82135  0.31805  1.0000
  C   C258      1.0  0.53506  0.68956  0.20741  1.0000
  S   S86       1.0  0.56344  0.65134  0.32279  1.0000
  H   H259      1.0  0.52442  0.64619  0.23586  1.0000
  H   H260      1.0  0.58728  0.77039  0.32859  1.0000
  C   C259      1.0  0.53036  0.69803  0.18371  1.0000
  H   H261      1.0  0.66489  0.83168  0.30493  1.0000
  H   H262      1.0  0.65922  0.78574  0.30864  1.0000
  N   N22       1.0  0.51394  0.53904  0.22170  1.0000
  H   H263      1.0  0.54110  0.72629  0.17580  1.0000
  H   H264      1.0  0.54412  0.59044  0.23322  1.0000
  C   C260      1.0  0.52122  0.65301  0.21757  1.0000
  C   C261      1.0  0.51164  0.66986  0.17027  1.0000
  C   C262      1.0  0.50290  0.54041  0.19943  1.0000
  C   C263      1.0  0.49813  0.63334  0.18047  1.0000
  H   H265      1.0  0.50818  0.67643  0.15193  1.0000
  S   S87       1.0  0.51049  0.56802  0.28554  1.0000
  C   C264      1.0  0.69140  0.73730  0.32818  1.0000
  H   H266      1.0  0.50054  0.76891  0.18463  1.0000
  C   C265      1.0  0.73159  0.76125  0.33091  1.0000
  C   C266      1.0  0.50259  0.62500  0.20418  1.0000
  H   H267      1.0  0.49684  0.51023  0.25776  1.0000
  H   H268      1.0  0.71184  0.67311  0.33802  1.0000
  N   N23       1.0  0.64366  0.80254  0.34072  1.0000
  H   H269      1.0  0.85208  0.73139  0.34126  1.0000
  S   S88       1.0  0.49436  0.69778  0.34090  1.0000
  Fe  Fe45      1.0  0.87692  0.92908  0.59964  1.0000
  S   S89       1.0  0.90073  0.88842  0.60239  1.0000
  S   S90       1.0  0.80888  0.90591  0.60026  1.0000
  C   C267      1.0  0.81402  0.91644  0.49725  1.0000
  C   C268      1.0  0.59619  0.78521  0.38595  1.0000
  Fe  Fe46      1.0  0.94924  0.92638  0.57150  1.0000
  S   S91       1.0  0.96790  0.90960  0.53788  1.0000
  Fe  Fe47      1.0  0.94193  0.92494  0.62528  1.0000
  S   S92       1.0  0.94786  0.90121  0.66099  1.0000
  S   S93       1.0  0.92227  0.96434  0.56665  1.0000
  S   S94       1.0  0.91467  0.96326  0.62499  1.0000
  Fe  Fe48      1.0  0.84721  0.78921  0.41573  1.0000
  S   S95       1.0  0.87154  0.74891  0.41589  1.0000
  Fe  Fe49      1.0  0.82279  0.83066  0.44941  1.0000
  C   C269      1.0  0.66673  0.74187  0.36837  1.0000
  S   S96       1.0  0.81163  0.83569  0.48827  1.0000
  Fe  Fe50      1.0  0.77931  0.80758  0.40663  1.0000
  S   S97       1.0  0.78770  0.77602  0.43821  1.0000
  S   S98       1.0  0.88330  0.84095  0.42971  1.0000
  C   C270      1.0  0.73362  0.70034  0.39177  1.0000
  H   H270      1.0  0.88212  0.86698  0.55694  1.0000
  C   C271      1.0  0.92488  0.89049  0.52366  1.0000
  C   C272      1.0  0.92939  0.89433  0.49852  1.0000
  C   C273      1.0  0.89470  0.87802  0.48737  1.0000
  C   C274      1.0  0.85571  0.85718  0.50137  1.0000
  Fe  Fe51      1.0  0.86758  0.86755  0.39899  1.0000
  N   N24       1.0  0.79523  0.71473  0.36484  1.0000
  H   H271      1.0  0.95954  0.91001  0.48767  1.0000
  H   H272      1.0  0.89819  0.88179  0.46800  1.0000
  H   H273      1.0  0.51322  0.77496  0.60802  1.0000
  H   H274      1.0  0.64154  0.73425  0.38287  1.0000
  H   H275      1.0  0.92842  0.82215  0.52096  1.0000
  C   C275      1.0  0.63854  0.80781  0.38268  1.0000
  H   H276      1.0  0.94080  0.73691  0.42258  1.0000
  C   C276      1.0  0.77917  0.88260  0.53788  1.0000
  H   H277      1.0  0.83054  0.91170  0.64792  1.0000
  C   C277      1.0  0.77254  0.69958  0.34752  1.0000
  H   H278      1.0  0.74209  0.77158  0.66213  1.0000
  H   H279      1.0  0.50287  0.84439  0.65875  1.0000
  H   H280      1.0  0.71890  0.70185  0.40890  1.0000
  S   S99       1.0  0.71519  0.78431  0.39781  1.0000
  C   C278      1.0  0.78010  0.88423  0.62918  1.0000
  C   C279      1.0  0.73848  0.85854  0.63176  1.0000
  S   S100      1.0  0.80944  0.86154  0.41983  1.0000
  H   H281      1.0  0.72394  0.85267  0.61599  1.0000
  C   C280      1.0  0.84077  0.94244  0.53103  1.0000
  S   S101      1.0  0.83640  0.81631  0.38293  1.0000
  H   H282      1.0  0.83901  0.94101  0.55040  1.0000
  C   C281      1.0  0.87452  0.97548  0.49096  1.0000
  H   H283      1.0  0.88345  0.79472  0.49130  1.0000
  C   C282      1.0  0.93546  0.96868  0.43741  1.0000
  H   H284      1.0  0.84682  0.94802  0.46220  1.0000
  H   H285      1.0  0.62786  0.70936  0.34489  1.0000
  C   C283      1.0  0.83962  0.83512  0.66368  1.0000
  N   N25       1.0  0.50733  0.64628  0.65417  1.0000
  C   C284      1.0  0.65893  0.72781  0.34688  1.0000
  S   S102      1.0  0.91782  0.92074  0.37803  1.0000
  C   C285      1.0  0.71024  0.68459  0.37431  1.0000
  C   C286      1.0  0.66190  0.81657  0.35976  1.0000
  H   H286      1.0  0.92311  0.96070  0.45638  1.0000
  N   N26       1.0  0.81250  0.91429  0.52164  1.0000
  C   C287      1.0  0.92028  0.94313  0.42190  1.0000
  H   H287      1.0  0.76792  0.85762  0.52924  1.0000
  H   H288      1.0  0.65354  0.81762  0.39790  1.0000
  C   C288      1.0  0.79860  0.89181  0.64968  1.0000
  H   H289      1.0  0.79143  0.89427  0.48976  1.0000
  H   H290      1.0  0.91609  0.81499  0.38129  1.0000
  C   C289      1.0  0.60202  0.78104  0.34367  1.0000
  C   C290      1.0  0.88583  0.87043  0.53755  1.0000
  C   C291      1.0  0.84003  0.73021  0.36027  1.0000
  H   H291      1.0  0.89897  0.99919  0.47893  1.0000
  C   C292      1.0  0.95146  0.76179  0.40974  1.0000
  H   H292      1.0  0.75339  0.88843  0.54310  1.0000
  C   C293      1.0  0.50705  0.75816  0.64607  1.0000
  H   H293      1.0  0.57781  0.77778  0.40369  1.0000
  C   C294      1.0  0.97893  0.82586  0.37637  1.0000
  C   C295      1.0  0.57770  0.77190  0.36630  1.0000
  C   C296      1.0  0.92352  0.77344  0.40298  1.0000
  C   C297      1.0  0.77630  0.71508  0.38677  1.0000
  H   H294      1.0  0.78992  0.87627  0.55452  1.0000
  S   S103      1.0  0.55137  0.75283  0.64271  1.0000
  C   C298      1.0  0.91642  0.80538  0.48673  1.0000
  C   C299      1.0  0.84520  0.94686  0.48155  1.0000
  C   C300      1.0  0.93669  0.95291  0.39738  1.0000
  H   H295      1.0  0.86713  0.85597  0.65201  1.0000
  H   H296      1.0  0.56947  0.68884  0.64684  1.0000
  C   C301      1.0  0.70691  0.76585  0.37112  1.0000
  H   H297      1.0  0.68370  0.81999  0.65654  1.0000
  H   H298      1.0  0.56160  0.64447  0.64060  1.0000
  C   C302      1.0  0.85142  0.85346  0.52645  1.0000
  H   H299      1.0  0.91406  0.79119  0.45115  1.0000
  C   C303      1.0  0.93738  0.80568  0.38650  1.0000
  H   H300      1.0  0.82147  0.83694  0.53739  1.0000
  H   H301      1.0  0.89561  0.91595  0.42893  1.0000
  C   C304      1.0  0.87231  0.97335  0.51586  1.0000
  C   C305      1.0  0.93362  0.80377  0.46409  1.0000
  C   C306      1.0  0.80483  0.81370  0.65411  1.0000
  C   C307      1.0  0.71568  0.83999  0.65471  1.0000
  H   H302      1.0  0.77030  0.79453  0.35417  1.0000
  C   C308      1.0  0.94206  0.82109  0.50336  1.0000
  H   H303      1.0  0.67717  0.67369  0.37776  1.0000
  H   H304      1.0  0.79424  0.72705  0.40049  1.0000
  H   H305      1.0  0.84954  0.71347  0.37212  1.0000
  C   C309      1.0  0.96878  0.98825  0.38845  1.0000
  C   C310      1.0  0.77569  0.87371  0.67261  1.0000
  N   N27       1.0  0.98371  0.83538  0.49740  1.0000
  C   C311      1.0  0.72973  0.68417  0.35202  1.0000
  C   C312      1.0  0.73935  0.77560  0.35234  1.0000
  C   C313      1.0  0.97608  0.81842  0.45816  1.0000
  H   H306      1.0  0.51605  0.68777  0.62535  1.0000
  C   C314      1.0  0.49531  0.76979  0.62560  1.0000
  C   C315      1.0  0.55138  0.65871  0.65312  1.0000
  H   H307      1.0  0.80505  0.81823  0.63487  1.0000
  H   H308      1.0  0.69495  0.83332  0.35762  1.0000
  H   H309      1.0  0.54477  0.75424  0.36855  1.0000
  H   H310      1.0  0.98934  0.85043  0.36326  1.0000
  C   C316      1.0  0.76932  0.78751  0.66964  1.0000
  C   C317      1.0  0.99345  0.78283  0.40026  1.0000
  H   H311      1.0  0.55854  0.65317  0.67123  1.0000
  H   H312      1.0  0.85486  0.75863  0.36429  1.0000
  Fe  Fe52      1.0  0.96269  0.99456  0.59228  1.0000
  H   H313      1.0  0.98974  0.81741  0.44056  1.0000
  S   S104      1.0  0.99339  0.95917  0.59463  1.0000
  H   H314      1.0  0.98131  0.99591  0.36943  1.0000
  H   H315      1.0  0.99401  0.85544  0.53086  1.0000
  H   H316      1.0  0.89484  0.99546  0.52340  1.0000
  H   H317      1.0  0.51819  0.67506  0.95988  1.0000
  S   S105      1.0  0.60851  0.73685  0.73814  1.0000
  H   H318      1.0  0.58236  0.57264  0.72253  1.0000
  C   C318      1.0  0.54366  0.73343  0.81985  1.0000
  S   S106      1.0  0.59122  0.79138  0.69992  1.0000
  Fe  Fe53      1.0  0.64289  0.77913  0.70493  1.0000
  S   S107      1.0  0.70753  0.82300  0.70397  1.0000
  H   H319      1.0  0.52420  0.70287  0.91758  1.0000
  Fe  Fe54      1.0  0.58817  0.69693  0.71234  1.0000
  H   H320      1.0  0.72626  0.76490  0.72684  1.0000
  H   H321      1.0  0.54538  0.82458  0.72365  1.0000
  C   C319      1.0  0.51569  0.58434  0.78861  1.0000
  H   H322      1.0  0.57010  0.73292  0.82594  1.0000
  C   C320      1.0  0.52306  0.82903  0.71485  1.0000
  S   S108      1.0  0.59295  0.64500  0.71744  1.0000
  C   C321      1.0  0.54807  0.60267  0.72357  1.0000
  S   S109      1.0  0.53148  0.70147  0.70786  1.0000
  C   C322      1.0  0.51740  0.53632  0.73114  1.0000
  H   H323      1.0  0.80194  0.80053  0.72280  1.0000
  C   C323      1.0  0.50575  0.70642  0.93223  1.0000
  C   C324      1.0  0.50888  0.60004  0.72745  1.0000
  H   H324      1.0  0.57026  0.74689  0.78226  1.0000
  H   H325      1.0  0.79025  0.87968  0.68838  1.0000
  Fe  Fe55      1.0  0.55500  0.74542  0.73080  1.0000
  C   C325      1.0  0.54368  0.74110  0.79512  1.0000
  C   C326      1.0  0.83866  0.83030  0.68848  1.0000
  C   C327      1.0  0.55213  0.57075  0.72535  1.0000
  C   C328      1.0  0.73435  0.84748  0.67518  1.0000
  Fe  Fe56      1.0  0.57214  0.74680  0.67765  1.0000
  H   H326      1.0  0.86570  0.84730  0.69590  1.0000
  H   H327      1.0  0.54747  0.63896  0.79647  1.0000
  H   H328      1.0  0.55503  0.83617  0.67897  1.0000
  C   C329      1.0  0.80263  0.80391  0.70350  1.0000
  C   C330      1.0  0.49955  0.84040  0.67826  1.0000
  C   C331      1.0  0.73159  0.75472  0.71008  1.0000
  C   C332      1.0  0.50950  0.74171  0.78720  1.0000
  H   H329      1.0  0.70372  0.74758  0.70165  1.0000
  C   C333      1.0  0.50239  0.69087  0.95590  1.0000
  S   S110      1.0  0.62716  0.73840  0.67970  1.0000
  H   H330      1.0  0.51257  0.82581  0.76135  1.0000
  H   H331      1.0  0.54035  0.58820  0.77470  1.0000
  H   H332      1.0  0.99211  0.90670  0.69997  1.0000
  N   N28       1.0  0.76853  0.78304  0.69401  1.0000
  H   H333      1.0  0.52599  0.65747  0.83173  1.0000
  H   H334      1.0  0.73469  0.72961  0.71467  1.0000
  H   H335      1.0  0.50555  0.62458  0.72659  1.0000
  C   C334      1.0  0.51960  0.61287  0.80108  1.0000
  C   C335      1.0  0.52871  0.83558  0.68965  1.0000
  H   H336      1.0  0.52099  0.51180  0.73287  1.0000
  S   S111      1.0  0.50762  0.74954  0.75640  1.0000
  C   C336      1.0  0.50893  0.72514  0.83660  1.0000
  S   S112      1.0  0.50674  0.71063  0.86713  1.0000
