data_image0
_chemical_formula_structural       HCNCFeSCHNFeHCHCHSFeCHSCSCFeSFeSCFe2S2FeS2FeHFeS3FeS2FeS2FeSFeS3HCSC2HCHCSC6H2C3NHCH3C6H4CH2C3HCH2C6H4CHSCHC7H5CH2S2C3HCH3C2HC3H3CFeC3H2CSCHCH2CNC6H8NC6H8SH2C2HNH2CSCH2C2HC2NHC2H5C2H2C2SNCSC3HS2H2CFeHC2HC3SHSH2SFeH3CN2HC3FeH2C2HCHS2C2H4CH4C3H3C5H2C2SHC2SHC3H2CHSHC2SHS2HS3FeHSFeS2FeSNFeSFeS4C2HNHCHCSC3SHC3HC2NHCSC6H4C5HFeHC2FeSC6H2NHC6H3CHCH2CH4CH3CHC4HCH4FeHSCHC2HCSH7SFe2HNCHCFeHSHC2FeHCSNC5H5NC6SH3FeHCHCH2C2H5CSH2SH2CHC2FeC2HCHC2H2CSH2FeHCSCHSC3FeCSNHSCH3CHCSC2FeCHC2H3CHCHCH4CNSH2C2H2CFeHSC2FeC2SNH3SFeHC2FeS2HCFeSHS2CFeS6FeS2FeS2FeSFeS3H2C6H6SHSFeHC2H5FeH4C6H4C6H4C3S2CH2SCH2C2HC2NCFeC2H2SHC2H2C4SCH4FeHC7H4NC6H5CH2Fe2HCNC6HCHS2HCFeNC3H2NH2CHCH3SHFeHC3NFeH2C2FeHC2NHCH3CSHSCHCH2CH2C2NH2C3H2SC3SHCHCH2NCHSH3SH4CH4C2FeCHCHCH5CSFeSCHC2H2S2H2SFe3CSCSFeHSFeS3HS2FeSFeSFeS2CFeCHFe2CH2C6H6CH2CSCHSHC4H3C6H5CHC2NHCSHCHCHC2HC4HCHSCFeH4FeH2C2SCNC6H3CNH4CH2CH3NC3HCHCHC2HC3SCH2S2HNHSCHC5HC2HCH2C2NC2H2SH3SC5HFeH3SCNCH2CH6CHCSCH3CH2CHCH2NC3SHSCFeSHC3FeCFeS2FeSCFeSFeS2HC2H3SCFeS2FeS2FeCFeS3H3C6H4C7H4C4H4C6H2CNC2H2CH10CFeH2SH2SCHC4H2CH3C2HCSC2FeCHCHCH2C3H4SHCHFeHC2H2NC3SHCSHFeSHCFeSH2S2C2HCHCHC2SH3C2HCHSHSH3SNHNH2C4SNHCFeC2SHNC5H7FeHCHCHCHCHSC2HCHC4HCHCFeH2FeH2CH2C3SH2C4SCHSHCSCHCS2FeS2FeSHFeSFeS2FeCSHFeCFeSHS2C2FeCSHSHSHS2HCFeHCHCH2CHSC5H5C7H3CHCHSH4CNH2C9H4SCHNH3CH2CHC2FeH2CH3C2H3CH3Fe2C2HCH3NH2C5NCS2CSCHC4H3NC5HC2HCH2CH2SHCH2SH2C2H2CHSC2HCNC5H2SNHC2SHFeHFeH3SHCNCHC6FeHCSC2HSH3CHCFeC2SCHCHFeS2FeSFeSH2FeS2FeS2FeSFeS3FeS3FeSFeSH2CH3CH3SFeHCHC7H4C6H2FeHC6H4FeC6H4CH3FeC10H4CH2S2H4CSCHCHSC2HFeHCHSC4HCH6C2SHCH3CNSH6CNHCSH2NH2SCH2C2FeHCH3SC4HC2N2CHNC2HCH2SCHC3HCH3NHFeS2CHCH2C2H3C3HC2H2C2H2C4HNH2C2HC2NCHCHSC2HC2H2CHC2HC3HCHC3SCHC4H5SHSCHCS2HFeSFe2S2FeS2FeSFeS3C7H2C6H3NC3H3SC6H4C6H5CSC2HNHSHC2HNC7H2CH3CHFeC2HFeCHS3HC2H2C2H2CHC2SH4CNC6H2SHCH3NHCHCH2CH3NCHSCH2SHC2HC2S2HC2H3FeCSCH2CHNC5H2SHCH2SHFeCHFeCSH2SCFeCH2SHC3FeHFeCH4C2H2C2H3NH2CSH3FeHCHSFeSFeS2FeSFeSFeS3FeC2FeS2FeSHCS2CSCHSNFeSFeCHCSCFeC4H2NH2FeSFeC2SCH2C2H6C2H3NC3HSHC2H2SHSHSHC7H6C6H4C2H2C2SH2C6H2NHCH4CHFeCH2C2FeHCH2C2HFeHCHC2SHCH2C2HNCHC2HC2HCHCH2CHCHNCHCHCHCH2CNH2SFeHCHSCHCNSHC3H2C8H4CH2C2FeHCH2CFeC4HSNC2HC5SCSH5CH2CNHCSH2FeHC2H3Fe2H2CSHC2HSCFeHFeHSHS2H2CNCH2SCH2C2H2NS3HCHSCHCHFeSFeS2HCS3Fe2SFeSH3S2CH2CH3C6H4CFeH7C2HC3FeC2HCFeH2SC3H3C8H4CHC2H3C2HNSCH3SCSCFeSHC4FeCHCSC5SCFeCNC5H2CHFeHFeHCNH3CH2SC3SCSHSC2HCS2CSCFeHNC5HCH3CH2S2C4H2CH2CH7CH3CH2NH3C2H4CHFeH2CHSH4FeS2FeS2FeSFeS5NH2CFeS2C2H2CSHC7H3C2HC7NC6HNHCH3C2HCH2C6H5SC7H4CHSHCH2FeCH2C3H2CHSH2CHSCFeH2NFeH2NHC2SHCSC6HCH2S2HSNH9CH2CHNCSHFeH4CHCHC2H2CHC2HCHFeHCHS2H2SCSCHFe2S2C2S3H2SC2HC2NFeCHFeS2FeSHFeSFeCS2HCSHC3S3FeSHS3HSHCHCH3CHCHC3SCH2C2HSC9H4C4H3C4SCHC2FeHCH3C6H4CNH2C6H5CNC2NH3SHC2HCHC3HCH4N2C6H8CH4CHSCHCNC3H4FeS2CHCH3CHCSFeSCS2HC4HC2HCSFeH2FeSCHC2H2CNCHCHSFeC3HCH2FeHCHNS2HCH2SHCSFeC3SCSCHC2NHCH2SH2C2H2CFe2C3HSCFeHCHC2HCHC3HCH3SC4SH2C3H2CHCH5FeHSC2HCH3CFeNCH3FeHSH2CH2NHCH3FeSH2C2SCFeS2FeS2FeSFeS3FeSH3CSCH2FeSFeCFeS3CHSHSHSH2C6H4C6H3C7H3C6H3SH3SNC3H2CH3CNH2SFeCH3C2S2CFeHCH3CNC2HC4HFeNCH2CHC2HCH2FeCH2SCHCHC3FeH2C3FeHCHCH8NH2CH3SNCHC2SC3H3CH3C3NS2CHSHC2H2C4HC3HCHCHNHC2NCFeH3C3H2CFeCHSC3HSHC3FeC2HCHC2FeHCH3CH3CHCHCFeS2FeS2FeSFeS3FeS2FeS2FeHSHSHC2SHC2SFeH4C2SC3HC2HC2HFeHC2HNHCH2NHCH3NC5H2C5H3C6H4CH2C6H4FeC4H2CHCNC6H8CHNC6HCHC2H3SCFeSHCSCFeH6C2HCH2NCH2C3S2CHNSH2SHSC5NCSC4HCSHCH3CH4CSHCH3C4SH5CHCH3C3SHSHCH2FeHSFeCSFeSCHS2CHCH2SC3H3SFeCSFeHCHCSFeS2HSFeSFeS3HNH3CHCHCSH2CFeHNFeNFeHCSHSH2C2HFeHS3HC2H3C2HC4H2C2SH2CHCH2C3HC6H5CHC7SC4HCSHSNHC3HCFeHFeCSNSCHC5H5CSHS2CHCNHCH2CH2CHSC3H2NC2HC2H2CHCHFeCHNH2CH2FeH3CHC2NCHCH2CHSHC2H2CH6CFeCFeSCS2FeS2FeS2FeSFeS3FeCH2CHNSHSCHC3FeSHFeSFeSHFeSFeS2HC2HFeCH2SH3C5HSC2H3C6H4C6H4SH5SHC8H4C3FeHCH4C2H2CHCHCH4CHC6H5SNCHSCH2C5H3NC6SC2H2CH2NC2HCHC2HC3H6C2H4FeCNCSNCHCSC2SCSHFeCH3CH3CHCSCSCH2C2H3CHNCHCHCHC2SCSHN2H3CSCH2CHCH4CHSH3FeS2FeS2FeSFeS3CH4C4SH2C5SHCS3C2SHC3H2C2H3NH2C2HFeHCHCHC2H3CFeSHSC3H3C3H2C6H4CHC2H4CH2C3FeSCHCHCHC3H2CHCN2CNH3C2HSHCHC2H2NC3HCHC2FeCH3SH2SCH2Fe3HSH2C3FeSNH2SC2FeHC2FeSH3CHFeHC2SC2SHCH3CSH3NCHCSC3S2C2SCSCSC2FeCHFeS2FeS3HFe2S2FeCSFeH4CS3CH3C3H2CH8CH2C3FeNH2C6H5CH2SCSC3HSHCFeCH2SC2H4C4H2NHNCHSFe2C2H4SCHNC2FeC2H5CHC2H2C2SCH2C2HFeHNC6HC2HCH3C2HFeH2CSHC2HC3H2C3H3NC3NC2HCHSHC2HSNHSH5CH2CHFeS2FeS2FeSFeS3HFeC2FeS2HC3H2SC2HSH3SH2S2FeH5CHCSC6H4C6H3C6H4C2HCHCFeC2H2CHFeCHSFeNHCHC2HC3FeCHSHC5FeHCNSHCH2SNC2HSH3C2H2SC2H2CH2C3HCHC3HCHCSH3CNC3H3C3HNCH4S2C2FeH2FeSFeHSHCH3NC2NC2SCH3CH2SHC3HCHCH3CSHCFe2CFe2HSC2FeC2SCHC3SH3CHSCH3FeS2FeS2FeSFeS3HC7H3NH2CSC2HS2HC2HCHCHCHCH2C4H5C2HNCHC3HCH2SH2C2HSHC2NH2SC3SCHC5H2CHCNH2CHCSCHNHCSCH2FeH3CH3FeC4H4CHCSC2H7CH2SFeSHNSH2FeC3HCH2FeS2FeS2FeSFeS3CHCNFeS2CHFeSHSC2HCH2CHNHCH2C2HSC3H2C2H2SCHSFeC3NSCH3C3H3NCHNC2SC6H4C3H4C6H2C2HSH2CSC2HCHCFeHC2H2C3H8NCHSH3CHSC4HFeCNSC5H6CHFeH2SH3SH2SC2FeCH2CHC2SH3C2HCSHCFeH2CFeSHC4S2CFeSCSCFeS2H2CHSFeS2H2SFeS2FeS2FeSFeS3C2H8FeC6H5C6H2CHC3HFeCH4C2HC9H4FeH2CSH3C2HSH3CH3NSC2SHCH2CHC4HC2SHC2HC2NSC2H5NHCHNCNH2C2SH5CHCH3CH2CHFeHC2HCFeHNC5FeCHCH2FeCHFeC3FeHCHNSFeS3CH2FeHCHCSHCFeH2FeCSHNC2SC2H2CNHC2SH2S2NH5FeHSH2FeCFeHC6HCHSCSH2SHCH3FeHC3HSH4C5NCFeCH5S2FeCHC2SCHNC2HFeCH8CHC2H3C9H6FeH2CSC4H2C3H2SCSH3CHSFeCH3SC4H3C2HC3SNHC2SC2HSCSC3SHSFeS2FeS2FeHFeS3H2CSH3FeSH3CS2H2CHFeSH3NCHSCH3SH3CHC6H4C6H4S2HC6H5CNSCHCH2NHC2H2SHCHFeCFeNH2CHCSFeC2HC2FeHC4NSCFeH3CSCHCH4C4SC2HCHFe2
_chemical_formula_sum              "H2304 C2304 N192 Fe384 S768"
_cell_length_a       68.9733
_cell_length_b       69.9334
_cell_length_c       70.4524
_cell_angle_alpha    76.2988
_cell_angle_beta     75.403
_cell_angle_gamma    76.2142

_space_group_name_H-M_alt    "P 1"
_space_group_IT_number       1

loop_
  _space_group_symop_operation_xyz
  'x, y, z'

loop_
  _atom_site_type_symbol
  _atom_site_label
  _atom_site_symmetry_multiplicity
  _atom_site_fract_x
  _atom_site_fract_y
  _atom_site_fract_z
  _atom_site_occupancy
  H   H1        1.0  0.05886  0.22143  0.30665  1.0000
  C   C1        1.0  0.20994  0.14226  0.43499  1.0000
  N   N1        1.0  0.10963  0.22886  0.47657  1.0000
  C   C2        1.0  0.31888  0.01059  0.38862  1.0000
  Fe  Fe1       1.0  0.24366  0.00571  0.46609  1.0000
  S   S1        1.0  0.32306  0.08695  0.36470  1.0000
  C   C3        1.0  0.04850  0.20524  0.46393  1.0000
  H   H2        1.0  0.07754  0.22897  0.37338  1.0000
  N   N2        1.0  0.17546  0.03069  0.21396  1.0000
  Fe  Fe2       1.0  0.12085  0.11938  0.46837  1.0000
  H   H3        1.0  0.16076  0.06508  0.15327  1.0000
  C   C4        1.0  0.23448  0.17051  0.42728  1.0000
  H   H4        1.0  0.10566  0.16953  0.39804  1.0000
  C   C5        1.0  0.01457  0.16642  0.10000  1.0000
  H   H5        1.0  0.20375  0.02243  0.19456  1.0000
  S   S2        1.0  0.27910  0.99883  0.34447  1.0000
  Fe  Fe3       1.0  0.24359  0.04786  0.46886  1.0000
  C   C6        1.0  0.22771  0.13742  0.44264  1.0000
  H   H6        1.0  0.06608  0.12381  0.37725  1.0000
  S   S3        1.0  0.03470  0.21449  0.08652  1.0000
  C   C7        1.0  0.29787  0.09293  0.43338  1.0000
  S   S4        1.0  0.18897  0.02716  0.15643  1.0000
  C   C8        1.0  0.13167  0.08419  0.41642  1.0000
  Fe  Fe4       1.0  0.26092  0.01604  0.29401  1.0000
  S   S5        1.0  0.24919  0.02630  0.26515  1.0000
  Fe  Fe5       1.0  0.25110  0.02053  0.33757  1.0000
  S   S6        1.0  0.23085  0.03689  0.36138  1.0000
  C   C9        1.0  0.27022  0.08508  0.46956  1.0000
  Fe  Fe6       1.0  0.11553  0.16371  0.46722  1.0000
  Fe  Fe7       1.0  0.07366  0.12276  0.16119  1.0000
  S   S7        1.0  0.04288  0.13248  0.17978  1.0000
  S   S8        1.0  0.08923  0.14301  0.13465  1.0000
  Fe  Fe8       1.0  0.07863  0.08095  0.18647  1.0000
  S   S9        1.0  0.04826  0.08771  0.20698  1.0000
  S   S10       1.0  0.09505  0.04908  0.19294  1.0000
  Fe  Fe9       1.0  0.03705  0.10240  0.17879  1.0000
  H   H7        1.0  0.09265  0.11917  0.37860  1.0000
  Fe  Fe10      1.0  0.05752  0.11674  0.20595  1.0000
  S   S11       1.0  0.05129  0.13061  0.23348  1.0000
  S   S12       1.0  0.06692  0.09381  0.15826  1.0000
  S   S13       1.0  0.08880  0.10885  0.18737  1.0000
  Fe  Fe11      1.0  0.08083  0.15811  0.33834  1.0000
  S   S14       1.0  0.10081  0.13168  0.32611  1.0000
  S   S15       1.0  0.04785  0.15766  0.35132  1.0000
  Fe  Fe12      1.0  0.11480  0.18138  0.32875  1.0000
  S   S16       1.0  0.13787  0.15724  0.31489  1.0000
  S   S17       1.0  0.01754  0.23458  0.45197  1.0000
  Fe  Fe13      1.0  0.11294  0.15460  0.30061  1.0000
  S   S18       1.0  0.11937  0.14937  0.26878  1.0000
  Fe  Fe14      1.0  0.12365  0.13643  0.34140  1.0000
  S   S19       1.0  0.14188  0.10968  0.35811  1.0000
  S   S20       1.0  0.09119  0.18098  0.31189  1.0000
  S   S21       1.0  0.10233  0.16063  0.35625  1.0000
  H   H8        1.0  0.06815  0.12087  0.11720  1.0000
  C   C10       1.0  0.32480  0.03851  0.33011  1.0000
  S   S22       1.0  0.24154  0.07941  0.45196  1.0000
  C   C11       1.0  0.09244  0.03313  0.15097  1.0000
  C   C12       1.0  0.27124  0.06181  0.38954  1.0000
  H   H9        1.0  0.13169  0.06912  0.42497  1.0000
  C   C13       1.0  0.12848  0.01901  0.13923  1.0000
  H   H10       1.0  0.07646  0.10177  0.39305  1.0000
  C   C14       1.0  0.06223  0.14855  0.40134  1.0000
  S   S23       1.0  0.26824  0.02398  0.45659  1.0000
  C   C15       1.0  0.13892  0.03905  0.22377  1.0000
  C   C16       1.0  0.13594  0.10668  0.38428  1.0000
  C   C17       1.0  0.13644  0.08729  0.39556  1.0000
  C   C18       1.0  0.12691  0.10040  0.42625  1.0000
  C   C19       1.0  0.12674  0.11990  0.41507  1.0000
  C   C20       1.0  0.13100  0.12307  0.39403  1.0000
  H   H11       1.0  0.12293  0.13251  0.42261  1.0000
  H   H12       1.0  0.13094  0.13806  0.38533  1.0000
  C   C21       1.0  0.07409  0.13015  0.43710  1.0000
  C   C22       1.0  0.02430  0.06384  0.15836  1.0000
  C   C23       1.0  0.02344  0.04762  0.15016  1.0000
  N   N3        1.0  0.20460  0.16081  0.42378  1.0000
  H   H13       1.0  0.14019  0.07459  0.38815  1.0000
  C   C24       1.0  0.06416  0.15018  0.43465  1.0000
  H   H14       1.0  0.03857  0.06524  0.16112  1.0000
  H   H15       1.0  0.03714  0.03668  0.14655  1.0000
  H   H16       1.0  0.31609  0.04910  0.46686  1.0000
  C   C25       1.0  0.07097  0.13264  0.24451  1.0000
  C   C26       1.0  0.09138  0.13018  0.23438  1.0000
  C   C27       1.0  0.10620  0.13477  0.24229  1.0000
  C   C28       1.0  0.10082  0.14157  0.26051  1.0000
  C   C29       1.0  0.08058  0.14319  0.27106  1.0000
  C   C30       1.0  0.06572  0.13884  0.26303  1.0000
  H   H17       1.0  0.09565  0.12546  0.22013  1.0000
  H   H18       1.0  0.12186  0.13337  0.23410  1.0000
  H   H19       1.0  0.07624  0.14833  0.28514  1.0000
  H   H20       1.0  0.04997  0.14074  0.27101  1.0000
  C   C31       1.0  0.23294  0.02258  0.38508  1.0000
  H   H21       1.0  0.17754  0.18086  0.41762  1.0000
  H   H22       1.0  0.01959  0.20295  0.98736  1.0000
  C   C32       1.0  0.13277  0.22246  0.40154  1.0000
  C   C33       1.0  0.23292  0.02095  0.41991  1.0000
  C   C34       1.0  0.22977  0.03218  0.40123  1.0000
  H   H23       1.0  0.24368  0.18188  0.42448  1.0000
  C   C35       1.0  0.27842  0.08999  0.43346  1.0000
  H   H24       1.0  0.23069  0.02846  0.43225  1.0000
  H   H25       1.0  0.22523  0.04832  0.39922  1.0000
  C   C36       1.0  0.16260  0.03350  0.16539  1.0000
  C   C37       1.0  0.15172  0.01864  0.17650  1.0000
  C   C38       1.0  0.13102  0.02370  0.18495  1.0000
  C   C39       1.0  0.12089  0.04364  0.18186  1.0000
  C   C40       1.0  0.13147  0.05860  0.17020  1.0000
  C   C41       1.0  0.15242  0.05351  0.16202  1.0000
  H   H26       1.0  0.15907  0.00313  0.17832  1.0000
  H   H27       1.0  0.12282  0.01208  0.19383  1.0000
  H   H28       1.0  0.12363  0.07406  0.16772  1.0000
  H   H29       1.0  0.27427  0.09039  0.41953  1.0000
  C   C42       1.0  0.03471  0.15608  0.09569  1.0000
  H   H30       1.0  0.31438  0.02001  0.45361  1.0000
  S   S24       1.0  0.14201  0.14101  0.45553  1.0000
  C   C43       1.0  0.00101  0.15858  0.11674  1.0000
  H   H31       1.0  0.23770  0.02801  0.22811  1.0000
  C   C44       1.0  0.14525  0.00309  0.13891  1.0000
  C   C45       1.0  0.05069  0.19661  0.10085  1.0000
  C   C46       1.0  0.04183  0.18624  0.11940  1.0000
  C   C47       1.0  0.05358  0.17003  0.13005  1.0000
  C   C48       1.0  0.07440  0.16426  0.12238  1.0000
  C   C49       1.0  0.08346  0.17513  0.10420  1.0000
  C   C50       1.0  0.07164  0.19125  0.09340  1.0000
  H   H32       1.0  0.02564  0.19039  0.12527  1.0000
  H   H33       1.0  0.04637  0.16185  0.14398  1.0000
  H   H34       1.0  0.09959  0.17080  0.09818  1.0000
  H   H35       1.0  0.07861  0.19914  0.07909  1.0000
  H   H36       1.0  0.06353  0.11635  0.09458  1.0000
  C   C51       1.0  0.24001  0.15167  0.43878  1.0000
  H   H37       1.0  0.25365  0.14817  0.44492  1.0000
  H   H38       1.0  0.05952  0.19293  0.35627  1.0000
  S   S25       1.0  0.26724  0.03797  0.30956  1.0000
  S   S26       1.0  0.05960  0.23366  0.02912  1.0000
  C   C52       1.0  0.17228  0.20830  0.36303  1.0000
  C   C53       1.0  0.16815  0.19057  0.36021  1.0000
  C   C54       1.0  0.15214  0.19120  0.35092  1.0000
  H   H39       1.0  0.19061  0.16565  0.39910  1.0000
  C   C55       1.0  0.00140  0.20474  0.35750  1.0000
  H   H40       1.0  0.27830  0.99826  0.19786  1.0000
  H   H41       1.0  0.17738  0.17628  0.36519  1.0000
  H   H42       1.0  0.14909  0.17745  0.34882  1.0000
  C   C56       1.0  0.00500  0.04548  0.14659  1.0000
  C   C57       1.0  0.05847  0.23233  0.43738  1.0000
  H   H43       1.0  0.17471  0.20052  0.45578  1.0000
  C   C58       1.0  0.30341  0.09214  0.45139  1.0000
  C   C59       1.0  0.30696  0.06781  0.34449  1.0000
  C   C60       1.0  0.03379  0.18144  0.35466  1.0000
  H   H44       1.0  0.26747  0.00454  0.08819  1.0000
  H   H45       1.0  0.20036  0.13116  0.43833  1.0000
  H   H46       1.0  0.33010  0.99263  0.43786  1.0000
  C   C61       1.0  0.03163  0.21488  0.36027  1.0000
  Fe  Fe15      1.0  0.20115  0.99458  0.16704  1.0000
  C   C62       1.0  0.28582  0.02802  0.38230  1.0000
  C   C63       1.0  0.08437  0.20512  0.44926  1.0000
  C   C64       1.0  0.23867  0.01270  0.23618  1.0000
  H   H47       1.0  0.30856  0.09572  0.41935  1.0000
  H   H48       1.0  0.17588  0.15488  0.42259  1.0000
  C   C65       1.0  0.28944  0.08856  0.46945  1.0000
  S   S27       1.0  0.32813  0.09438  0.45158  1.0000
  C   C66       1.0  0.00672  0.07821  0.16285  1.0000
  H   H49       1.0  0.27240  0.02833  0.37681  1.0000
  C   C67       1.0  0.14030  0.20961  0.34419  1.0000
  H   H50       1.0  0.00977  0.18076  0.09075  1.0000
  H   H51       1.0  0.08587  0.10420  0.42347  1.0000
  C   C68       1.0  0.30710  0.05282  0.33424  1.0000
  N   N4        1.0  0.19065  0.06844  0.33300  1.0000
  C   C69       1.0  0.20222  0.05200  0.32552  1.0000
  C   C70       1.0  0.18781  0.08676  0.32069  1.0000
  C   C71       1.0  0.21184  0.05380  0.30534  1.0000
  C   C72       1.0  0.19723  0.08910  0.30042  1.0000
  C   C73       1.0  0.20943  0.07249  0.29276  1.0000
  C   C74       1.0  0.18037  0.06638  0.35410  1.0000
  H   H52       1.0  0.20428  0.03740  0.33519  1.0000
  H   H53       1.0  0.17820  0.09969  0.32657  1.0000
  H   H54       1.0  0.22120  0.04080  0.29947  1.0000
  H   H55       1.0  0.19504  0.10369  0.29074  1.0000
  H   H56       1.0  0.21701  0.07399  0.27712  1.0000
  H   H57       1.0  0.16396  0.06637  0.35558  1.0000
  H   H58       1.0  0.18732  0.05238  0.36324  1.0000
  H   H59       1.0  0.18162  0.07907  0.36042  1.0000
  N   N5        1.0  0.07599  0.17535  0.21047  1.0000
  C   C75       1.0  0.06638  0.17133  0.19748  1.0000
  C   C76       1.0  0.09675  0.17375  0.20608  1.0000
  C   C77       1.0  0.07760  0.16550  0.17958  1.0000
  C   C78       1.0  0.10847  0.16757  0.18848  1.0000
  C   C79       1.0  0.09877  0.16347  0.17514  1.0000
  C   C80       1.0  0.06383  0.18234  0.22869  1.0000
  H   H60       1.0  0.04996  0.17228  0.20109  1.0000
  H   H61       1.0  0.10440  0.17673  0.21649  1.0000
  H   H62       1.0  0.06998  0.16241  0.16925  1.0000
  H   H63       1.0  0.12496  0.16586  0.18527  1.0000
  H   H64       1.0  0.10759  0.15863  0.16140  1.0000
  H   H65       1.0  0.05059  0.17463  0.23503  1.0000
  H   H66       1.0  0.07294  0.17883  0.24048  1.0000
  H   H67       1.0  0.08119  0.03172  0.16543  1.0000
  S   S28       1.0  0.32557  0.02024  0.31631  1.0000
  H   H68       1.0  0.26144  0.06275  0.37886  1.0000
  H   H69       1.0  0.26163  0.06100  0.40487  1.0000
  C   C81       1.0  0.08979  0.19832  0.38519  1.0000
  C   C82       1.0  0.30489  0.04390  0.39555  1.0000
  H   H70       1.0  0.09018  0.23019  0.31048  1.0000
  N   N6        1.0  0.28779  0.04422  0.38890  1.0000
  H   H71       1.0  0.13077  0.18390  0.40711  1.0000
  H   H72       1.0  0.08475  0.03362  0.13875  1.0000
  C   C83       1.0  0.30129  0.01097  0.38212  1.0000
  S   S29       1.0  0.11995  0.21082  0.33273  1.0000
  C   C84       1.0  0.04107  0.22263  0.98017  1.0000
  H   H73       1.0  0.18998  0.00317  0.22965  1.0000
  H   H74       1.0  0.16270  0.16838  0.46793  1.0000
  C   C85       1.0  0.32427  0.06822  0.35129  1.0000
  C   C86       1.0  0.07790  0.11970  0.42148  1.0000
  H   H75       1.0  0.05009  0.17495  0.41469  1.0000
  C   C87       1.0  0.24427  0.00761  0.25487  1.0000
  C   C88       1.0  0.15744  0.04364  0.21199  1.0000
  N   N7        1.0  0.04125  0.13861  0.10793  1.0000
  H   H76       1.0  0.23173  0.12282  0.45178  1.0000
  C   C89       1.0  0.01071  0.21930  0.36024  1.0000
  C   C90       1.0  0.10747  0.99811  0.16282  1.0000
  H   H77       1.0  0.29025  0.01014  0.16137  1.0000
  H   H78       1.0  0.13663  0.21682  0.45784  1.0000
  H   H79       1.0  0.33107  0.99753  0.38822  1.0000
  H   H80       1.0  0.14769  0.21202  0.40125  1.0000
  H   H81       1.0  0.07277  0.13853  0.09465  1.0000
  C   C91       1.0  0.04327  0.19609  0.35700  1.0000
  C   C92       1.0  0.33000  0.03915  0.46140  1.0000
  H   H82       1.0  0.12460  0.04911  0.22179  1.0000
  H   H83       1.0  0.15766  0.99428  0.25067  1.0000
  C   C93       1.0  0.11923  0.19379  0.39951  1.0000
  C   C94       1.0  0.26473  0.08574  0.45158  1.0000
  S   S30       1.0  0.11970  0.09564  0.45243  1.0000
  N   N8        1.0  0.11845  0.21404  0.39517  1.0000
  C   C95       1.0  0.18374  0.18804  0.46380  1.0000
  S   S31       1.0  0.00488  0.02514  0.13573  1.0000
  C   C96       1.0  0.19479  0.03546  0.20143  1.0000
  C   C97       1.0  0.18621  0.16570  0.41541  1.0000
  C   C98       1.0  0.06909  0.19613  0.46300  1.0000
  H   H84       1.0  0.27755  0.07583  0.38523  1.0000
  S   S32       1.0  0.19194  0.20679  0.37553  1.0000
  S   S33       1.0  0.00742  0.09925  0.17239  1.0000
  H   H85       1.0  0.04526  0.16262  0.08296  1.0000
  H   H86       1.0  0.03668  0.19833  0.47463  1.0000
  C   C99       1.0  0.21671  0.17478  0.41969  1.0000
  Fe  Fe16      1.0  0.19838  0.23198  0.43208  1.0000
  H   H87       1.0  0.29340  0.07919  0.34708  1.0000
  C   C100      1.0  0.10494  0.18560  0.39459  1.0000
  C   C101      1.0  0.00767  0.14048  0.12883  1.0000
  H   H88       1.0  0.12462  0.01733  0.24667  1.0000
  C   C102      1.0  0.23891  0.00172  0.38771  1.0000
  C   C103      1.0  0.07703  0.11791  0.38741  1.0000
  C   C104      1.0  0.24575  0.98776  0.26511  1.0000
  S   S34       1.0  0.29034  0.99450  0.29719  1.0000
  H   H89       1.0  0.24118  0.99420  0.37533  1.0000
  S   S35       1.0  0.11022  0.19422  0.44808  1.0000
  H   H90       1.0  0.15722  0.05744  0.20100  1.0000
  H   H91       1.0  0.05751  0.15590  0.38743  1.0000
  S   S36       1.0  0.21139  0.21253  0.45793  1.0000
  Fe  Fe17      1.0  0.19137  0.23179  0.39108  1.0000
  H   H92       1.0  0.09063  0.23089  0.42654  1.0000
  H   H93       1.0  0.21255  0.18939  0.41062  1.0000
  H   H94       1.0  0.29368  0.05271  0.32902  1.0000
  C   C105      1.0  0.05807  0.15945  0.41668  1.0000
  N   N9        1.0  0.10994  0.01641  0.15121  1.0000
  N   N10       1.0  0.07195  0.12890  0.40390  1.0000
  H   H95       1.0  0.20382  0.03932  0.21053  1.0000
  C   C106      1.0  0.17685  0.16983  0.47089  1.0000
  C   C107      1.0  0.15742  0.00824  0.23988  1.0000
  C   C108      1.0  0.13894  0.02116  0.23768  1.0000
  Fe  Fe18      1.0  0.29487  0.01487  0.31548  1.0000
  H   H96       1.0  0.09734  0.04766  0.14899  1.0000
  H   H97       1.0  0.07899  0.12270  0.45095  1.0000
  C   C109      1.0  0.01284  0.18570  0.35513  1.0000
  C   C110      1.0  0.23453  0.99804  0.22784  1.0000
  H   H98       1.0  0.00551  0.17440  0.35325  1.0000
  C   C111      1.0  0.17567  0.01334  0.22791  1.0000
  H   H99       1.0  0.30657  0.05690  0.40045  1.0000
  S   S37       1.0  0.24215  0.00074  0.32175  1.0000
  S   S38       1.0  0.17160  0.22869  0.42164  1.0000
  C   C112      1.0  0.20208  0.19010  0.46745  1.0000
  C   C113      1.0  0.06243  0.12801  0.10328  1.0000
  H   H100      1.0  0.17426  0.08978  0.44840  1.0000
  H   H101      1.0  0.06114  0.15848  0.44664  1.0000
  H   H102      1.0  0.05819  0.19876  0.22536  1.0000
  H   H103      1.0  0.04424  0.21912  0.99507  1.0000
  C   C114      1.0  0.27399  0.98898  0.09303  1.0000
  H   H104      1.0  0.03295  0.11654  0.13367  1.0000
  H   H105      1.0  0.13054  0.03357  0.13023  1.0000
  H   H106      1.0  0.19235  0.04816  0.18881  1.0000
  H   H107      1.0  0.09280  0.99605  0.17234  1.0000
  C   C115      1.0  0.13178  0.22646  0.46931  1.0000
  C   C116      1.0  0.16043  0.22672  0.35630  1.0000
  C   C117      1.0  0.32079  0.02718  0.39529  1.0000
  H   H108      1.0  0.07863  0.19227  0.38118  1.0000
  H   H109      1.0  0.23056  0.00198  0.21333  1.0000
  H   H110      1.0  0.16010  0.00536  0.12989  1.0000
  C   C118      1.0  0.17484  0.08146  0.46340  1.0000
  C   C119      1.0  0.18781  0.08492  0.47412  1.0000
  C   C120      1.0  0.08913  0.21893  0.38081  1.0000
  C   C121      1.0  0.02794  0.13058  0.12413  1.0000
  C   C122      1.0  0.07901  0.22336  0.43663  1.0000
  H   H111      1.0  0.03898  0.22620  0.36197  1.0000
  H   H112      1.0  0.12651  0.22542  0.41691  1.0000
  C   C123      1.0  0.23873  0.00005  0.42258  1.0000
  C   C124      1.0  0.04319  0.22327  0.45100  1.0000
  S   S39       1.0  0.30326  0.99401  0.05877  1.0000
  H   H113      1.0  0.29977  0.99822  0.37674  1.0000
  C   C125      1.0  0.10364  0.22656  0.38597  1.0000
  C   C126      1.0  0.14448  0.22736  0.34691  1.0000
  S   S40       1.0  0.21900  0.23263  0.40203  1.0000
  H   H114      1.0  0.19734  0.09606  0.46725  1.0000
  C   C127      1.0  0.28756  0.99494  0.16695  1.0000
  C   C128      1.0  0.05786  0.23449  0.31290  1.0000
  C   C129      1.0  0.24165  0.99045  0.40648  1.0000
  H   H115      1.0  0.07306  0.18247  0.47330  1.0000
  H   H116      1.0  0.15318  0.23598  0.98548  1.0000
  C   C130      1.0  0.32916  0.02269  0.45378  1.0000
  H   H117      1.0  0.29616  0.98678  0.13780  1.0000
  S   S41       1.0  0.21844  0.03051  0.47594  1.0000
  H   H118      1.0  0.15247  0.06433  0.46403  1.0000
  C   C131      1.0  0.16254  0.06720  0.47221  1.0000
  C   C132      1.0  0.28085  0.98831  0.18738  1.0000
  S   S42       1.0  0.09361  0.14254  0.47733  1.0000
  H   H119      1.0  0.31661  0.06285  0.97782  1.0000
  S   S43       1.0  0.27607  0.01861  0.79747  1.0000
  S   S44       1.0  0.26065  0.01802  0.74682  1.0000
  H   H120      1.0  0.05822  0.10013  0.54791  1.0000
  S   S45       1.0  0.07703  0.20129  0.80214  1.0000
  S   S46       1.0  0.31143  0.16841  0.86017  1.0000
  S   S47       1.0  0.11505  0.21591  0.76770  1.0000
  Fe  Fe19      1.0  0.28362  0.01065  0.76696  1.0000
  H   H121      1.0  0.31978  0.06134  0.87883  1.0000
  S   S48       1.0  0.22724  0.20746  0.90931  1.0000
  Fe  Fe20      1.0  0.05327  0.12901  0.68255  1.0000
  S   S49       1.0  0.08517  0.11163  0.67551  1.0000
  S   S50       1.0  0.04535  0.15658  0.69707  1.0000
  Fe  Fe21      1.0  0.03665  0.10499  0.66049  1.0000
  S   S51       1.0  0.06737  0.08600  0.65197  1.0000
  N   N11       1.0  0.02804  0.17958  0.82843  1.0000
  Fe  Fe22      1.0  0.07024  0.08478  0.68318  1.0000
  S   S52       1.0  0.08382  0.05511  0.69989  1.0000
  Fe  Fe23      1.0  0.07940  0.11443  0.64490  1.0000
  S   S53       1.0  0.10411  0.12087  0.61778  1.0000
  S   S54       1.0  0.03841  0.10177  0.69265  1.0000
  S   S55       1.0  0.04858  0.13390  0.65105  1.0000
  S   S56       1.0  0.12913  0.11074  0.49853  1.0000
  C   C133      1.0  0.30211  0.01221  0.70797  1.0000
  C   C134      1.0  0.23129  0.16256  0.88596  1.0000
  H   H122      1.0  0.08201  0.06218  0.61727  1.0000
  N   N12       1.0  0.06876  0.08222  0.59397  1.0000
  H   H123      1.0  0.20433  0.22344  0.85090  1.0000
  C   C135      1.0  0.32771  0.08539  0.82935  1.0000
  H   H124      1.0  0.00503  0.20498  0.82123  1.0000
  C   C136      1.0  0.03140  0.23265  0.94270  1.0000
  S   S57       1.0  0.17454  0.02728  0.65725  1.0000
  C   C137      1.0  0.31834  0.06462  0.81099  1.0000
  C   C138      1.0  0.00479  0.07933  0.64718  1.0000
  C   C139      1.0  0.25152  0.02432  0.55664  1.0000
  S   S58       1.0  0.00451  0.21628  0.89966  1.0000
  H   H125      1.0  0.11846  0.12813  0.54496  1.0000
  C   C140      1.0  0.18836  0.15356  0.48159  1.0000
  C   C141      1.0  0.24921  0.17849  0.85343  1.0000
  C   C142      1.0  0.01009  0.22457  0.87369  1.0000
  H   H126      1.0  0.32207  0.99806  0.72830  1.0000
  C   C143      1.0  0.06753  0.23203  0.48854  1.0000
  C   C144      1.0  0.20662  0.15563  0.48541  1.0000
  N   N13       1.0  0.02223  0.21890  0.95726  1.0000
  H   H127      1.0  0.02954  0.06126  0.66065  1.0000
  C   C145      1.0  0.02199  0.17904  0.85003  1.0000
  S   S59       1.0  0.30221  0.00229  0.49767  1.0000
  C   C146      1.0  0.14835  0.03335  0.66709  1.0000
  C   C147      1.0  0.13849  0.02017  0.68265  1.0000
  C   C148      1.0  0.11826  0.02657  0.69225  1.0000
  C   C149      1.0  0.10785  0.04601  0.68607  1.0000
  C   C150      1.0  0.11741  0.05873  0.66980  1.0000
  C   C151      1.0  0.13768  0.05248  0.66047  1.0000
  H   H128      1.0  0.14666  0.00535  0.68778  1.0000
  H   H129      1.0  0.11085  0.01667  0.70476  1.0000
  H   H130      1.0  0.10948  0.07367  0.66483  1.0000
  H   H131      1.0  0.14525  0.06267  0.64838  1.0000
  C   C152      1.0  0.09696  0.12592  0.59455  1.0000
  C   C153      1.0  0.11208  0.12562  0.57701  1.0000
  C   C154      1.0  0.10670  0.12877  0.55839  1.0000
  C   C155      1.0  0.07103  0.13329  0.57477  1.0000
  C   C156      1.0  0.07641  0.12978  0.59340  1.0000
  H   H132      1.0  0.12801  0.12262  0.57784  1.0000
  Fe  Fe24      1.0  0.30406  0.03231  0.78795  1.0000
  H   H133      1.0  0.24670  0.15380  0.88761  1.0000
  C   C157      1.0  0.24630  0.02144  0.57744  1.0000
  C   C158      1.0  0.08615  0.13248  0.55727  1.0000
  Fe  Fe25      1.0  0.14808  0.13462  0.48632  1.0000
  S   S60       1.0  0.09250  0.17273  0.75730  1.0000
  C   C159      1.0  0.28949  0.18012  0.87521  1.0000
  C   C160      1.0  0.28108  0.17025  0.89412  1.0000
  C   C161      1.0  0.26242  0.17925  0.90492  1.0000
  C   C162      1.0  0.25204  0.19806  0.89681  1.0000
  C   C163      1.0  0.26090  0.20823  0.87824  1.0000
  C   C164      1.0  0.27957  0.19929  0.86749  1.0000
  H   H134      1.0  0.28871  0.15550  0.90024  1.0000
  H   H135      1.0  0.25573  0.17135  0.91936  1.0000
  N   N14       1.0  0.18855  0.07439  0.49303  1.0000
  H   H136      1.0  0.28609  0.20703  0.85290  1.0000
  C   C165      1.0  0.07976  0.16887  0.73990  1.0000
  C   C166      1.0  0.06471  0.18374  0.73217  1.0000
  C   C167      1.0  0.05414  0.17962  0.71933  1.0000
  C   C168      1.0  0.05878  0.16077  0.71370  1.0000
  C   C169      1.0  0.07421  0.14607  0.72099  1.0000
  C   C170      1.0  0.08452  0.15008  0.73412  1.0000
  H   H137      1.0  0.06099  0.19833  0.73631  1.0000
  H   H138      1.0  0.04227  0.19111  0.71373  1.0000
  H   H139      1.0  0.07798  0.13152  0.71676  1.0000
  C   C171      1.0  0.25424  0.00041  0.73619  1.0000
  H   H140      1.0  0.04448  0.17877  0.65680  1.0000
  C   C172      1.0  0.08614  0.07360  0.60376  1.0000
  H   H141      1.0  0.05263  0.15465  0.83130  1.0000
  H   H142      1.0  0.20332  0.19570  0.88027  1.0000
  C   C173      1.0  0.24178  0.00739  0.72199  1.0000
  H   H143      1.0  0.14477  0.01756  0.73651  1.0000
  H   H144      1.0  0.28557  0.01585  0.83979  1.0000
  H   H145      1.0  0.16507  0.22633  0.85915  1.0000
  H   H146      1.0  0.23582  0.02328  0.71828  1.0000
  C   C174      1.0  0.03044  0.22130  0.86333  1.0000
  H   H147      1.0  0.21554  0.14310  0.49373  1.0000
  H   H148      1.0  0.06465  0.13004  0.60684  1.0000
  H   H149      1.0  0.02318  0.10743  0.56839  1.0000
  C   C175      1.0  0.21645  0.19503  0.86796  1.0000
  H   H150      1.0  0.05510  0.13630  0.57395  1.0000
  C   C176      1.0  0.21698  0.21083  0.85151  1.0000
  C   C177      1.0  0.25033  0.19415  0.83684  1.0000
  C   C178      1.0  0.23407  0.21041  0.83592  1.0000
  C   C179      1.0  0.30722  0.00898  0.85892  1.0000
  H   H151      1.0  0.31096  0.99311  0.85830  1.0000
  C   C180      1.0  0.25592  0.00432  0.58877  1.0000
  H   H152      1.0  0.22435  0.16837  0.90007  1.0000
  H   H153      1.0  0.11383  0.07601  0.71328  1.0000
  H   H154      1.0  0.11354  0.04396  0.73751  1.0000
  H   H155      1.0  0.08723  0.08473  0.56451  1.0000
  Fe  Fe26      1.0  0.22725  0.01933  0.50586  1.0000
  H   H156      1.0  0.20300  0.99480  0.60638  1.0000
  S   S61       1.0  0.07891  0.13487  0.53446  1.0000
  C   C181      1.0  0.00753  0.20945  0.95277  1.0000
  H   H157      1.0  0.09614  0.13847  0.74001  1.0000
  C   C182      1.0  0.13636  0.22404  0.82690  1.0000
  C   C183      1.0  0.04424  0.16575  0.82120  1.0000
  H   H158      1.0  0.02227  0.02900  0.65807  1.0000
  C   C184      1.0  0.02706  0.21366  0.97574  1.0000
  S   S62       1.0  0.20462  0.01990  0.53509  1.0000
  H   H159      1.0  0.22819  0.99958  0.70099  1.0000
  H   H160      1.0  0.22194  0.15244  0.88421  1.0000
  H   H161      1.0  0.30127  0.02717  0.71039  1.0000
  H   H162      1.0  0.23471  0.22278  0.82325  1.0000
  H   H163      1.0  0.29371  0.08787  0.48340  1.0000
  H   H164      1.0  0.06361  0.15532  0.79480  1.0000
  H   H165      1.0  0.17717  0.00390  0.71845  1.0000
  S   S63       1.0  0.11805  0.21061  0.82581  1.0000
  Fe  Fe27      1.0  0.32876  0.99781  0.76758  1.0000
  Fe  Fe28      1.0  0.05844  0.23142  0.79271  1.0000
  H   H166      1.0  0.01730  0.16458  0.85786  1.0000
  N   N15       1.0  0.23249  0.17919  0.86880  1.0000
  C   C185      1.0  0.31364  0.99564  0.71828  1.0000
  H   H167      1.0  0.23446  0.03219  0.58477  1.0000
  C   C186      1.0  0.23738  0.99402  0.71222  1.0000
  Fe  Fe29      1.0  0.18833  0.99455  0.66250  1.0000
  H   H168      1.0  0.09097  0.08561  0.60832  1.0000
  S   S64       1.0  0.31977  0.10927  0.88244  1.0000
  H   H169      1.0  0.19364  0.09068  0.51250  1.0000
  C   C187      1.0  0.04956  0.08642  0.60534  1.0000
  C   C188      1.0  0.20194  0.07847  0.50418  1.0000
  Fe  Fe30      1.0  0.10172  0.21829  0.79990  1.0000
  H   H170      1.0  0.05713  0.18353  0.63092  1.0000
  C   C189      1.0  0.29116  0.98980  0.69330  1.0000
  S   S65       1.0  0.25005  0.99270  0.49666  1.0000
  N   N16       1.0  0.07637  0.17676  0.65220  1.0000
  C   C190      1.0  0.08030  0.18178  0.66829  1.0000
  C   C191      1.0  0.09001  0.16266  0.64256  1.0000
  C   C192      1.0  0.09821  0.17253  0.67523  1.0000
  C   C193      1.0  0.10818  0.15324  0.64895  1.0000
  C   C194      1.0  0.11221  0.15815  0.66548  1.0000
  H   H171      1.0  0.06913  0.19241  0.67638  1.0000
  H   H172      1.0  0.08680  0.15840  0.62999  1.0000
  H   H173      1.0  0.10086  0.17608  0.68846  1.0000
  H   H174      1.0  0.11879  0.14188  0.64137  1.0000
  H   H175      1.0  0.12600  0.15062  0.67089  1.0000
  N   N17       1.0  0.16239  0.03462  0.71188  1.0000
  C   C195      1.0  0.14515  0.03168  0.72608  1.0000
  C   C196      1.0  0.16276  0.05241  0.69864  1.0000
  C   C197      1.0  0.12752  0.04661  0.72691  1.0000
  C   C198      1.0  0.14544  0.06769  0.69914  1.0000
  C   C199      1.0  0.12770  0.06469  0.71332  1.0000
  C   C200      1.0  0.32664  0.05471  0.96666  1.0000
  S   S66       1.0  0.18029  0.13047  0.48970  1.0000
  H   H176      1.0  0.17626  0.05454  0.68709  1.0000
  H   H177      1.0  0.20710  0.06488  0.51491  1.0000
  H   H178      1.0  0.14550  0.08141  0.68806  1.0000
  Fe  Fe31      1.0  0.29770  0.98997  0.80576  1.0000
  H   H179      1.0  0.32790  0.00686  0.87793  1.0000
  C   C201      1.0  0.18081  0.01892  0.71114  1.0000
  H   H180      1.0  0.21580  0.08324  0.49391  1.0000
  C   C202      1.0  0.21338  0.17394  0.47849  1.0000
  H   H181      1.0  0.25149  0.00158  0.60495  1.0000
  H   H182      1.0  0.11167  0.20206  0.49855  1.0000
  C   C203      1.0  0.05554  0.09586  0.56407  1.0000
  C   C204      1.0  0.29287  0.02174  0.84855  1.0000
  H   H183      1.0  0.18846  0.01793  0.69539  1.0000
  H   H184      1.0  0.27728  0.05219  0.84094  1.0000
  H   H185      1.0  0.17650  0.05261  0.51709  1.0000
  H   H186      1.0  0.05097  0.22418  0.83456  1.0000
  H   H187      1.0  0.04248  0.21420  0.87143  1.0000
  C   C205      1.0  0.03288  0.09542  0.59634  1.0000
  S   S67       1.0  0.30334  0.06244  0.79501  1.0000
  H   H188      1.0  0.29415  0.06536  0.86091  1.0000
  H   H189      1.0  0.19162  0.02222  0.71871  1.0000
  S   S68       1.0  0.22255  0.98762  0.65438  1.0000
  H   H190      1.0  0.27013  0.01209  0.53130  1.0000
  H   H191      1.0  0.26212  0.16611  0.85419  1.0000
  C   C206      1.0  0.26623  0.00989  0.54745  1.0000
  H   H192      1.0  0.09942  0.06613  0.59370  1.0000
  C   C207      1.0  0.31551  0.08294  0.81716  1.0000
  C   C208      1.0  0.01700  0.06121  0.65402  1.0000
  Fe  Fe32      1.0  0.27238  0.01331  0.48808  1.0000
  C   C209      1.0  0.31670  0.01685  0.86995  1.0000
  C   C210      1.0  0.14519  0.21897  0.84379  1.0000
  H   H193      1.0  0.04700  0.08303  0.62151  1.0000
  C   C211      1.0  0.01285  0.04294  0.65251  1.0000
  H   H194      1.0  0.14135  0.20643  0.85541  1.0000
  C   C212      1.0  0.28804  0.04209  0.84941  1.0000
  C   C213      1.0  0.16311  0.05680  0.49164  1.0000
  H   H195      1.0  0.01582  0.20632  0.78490  1.0000
  H   H196      1.0  0.03492  0.18090  0.85575  1.0000
  C   C214      1.0  0.29774  0.04945  0.86064  1.0000
  S   S69       1.0  0.25021  0.03907  0.49955  1.0000
  H   H197      1.0  0.15353  0.04575  0.49865  1.0000
  H   H198      1.0  0.05320  0.20214  0.64595  1.0000
  Fe  Fe33      1.0  0.08855  0.20144  0.76920  1.0000
  H   H199      1.0  0.24384  0.03736  0.54767  1.0000
  C   C215      1.0  0.02365  0.19459  0.79500  1.0000
  S   S70       1.0  0.30976  0.02721  0.75660  1.0000
  C   C216      1.0  0.07193  0.08705  0.57357  1.0000
  H   H200      1.0  0.30392  0.09535  0.81237  1.0000
  S   S71       1.0  0.12342  0.15932  0.49708  1.0000
  C   C217      1.0  0.05687  0.18577  0.64609  1.0000
  C   C218      1.0  0.32218  0.04468  0.88227  1.0000
  C   C219      1.0  0.29079  0.00923  0.69543  1.0000
  Fe  Fe34      1.0  0.10364  0.13610  0.50656  1.0000
  C   C220      1.0  0.33083  0.06446  0.94664  1.0000
  S   S72       1.0  0.00977  0.10266  0.64843  1.0000
  N   N18       1.0  0.31202  0.03688  0.87056  1.0000
  H   H201      1.0  0.25318  0.22273  0.87188  1.0000
  S   S73       1.0  0.32129  0.09030  0.94008  1.0000
  C   C221      1.0  0.27041  0.99009  0.57908  1.0000
  H   H202      1.0  0.19100  0.01810  0.57741  1.0000
  H   H203      1.0  0.07427  0.20451  0.50937  1.0000
  H   H204      1.0  0.11100  0.22706  0.89777  1.0000
  C   C222      1.0  0.17616  0.06073  0.50196  1.0000
  H   H205      1.0  0.04501  0.18105  0.77159  1.0000
  C   C223      1.0  0.01770  0.19381  0.81563  1.0000
  S   S74       1.0  0.32524  0.00424  0.79809  1.0000
  C   C224      1.0  0.03593  0.10012  0.57556  1.0000
  C   C225      1.0  0.04009  0.18052  0.78753  1.0000
  Fe  Fe35      1.0  0.32938  0.13930  0.87408  1.0000
  C   C226      1.0  0.20302  0.00524  0.57503  1.0000
  H   H206      1.0  0.14005  0.21944  0.48165  1.0000
  C   C227      1.0  0.21223  0.00226  0.55554  1.0000
  C   C228      1.0  0.05047  0.16597  0.80065  1.0000
  H   H207      1.0  0.31634  0.03984  0.89851  1.0000
  H   H208      1.0  0.26389  0.19380  0.82499  1.0000
  H   H209      1.0  0.28174  0.98723  0.68426  1.0000
  C   C229      1.0  0.20973  0.99195  0.59148  1.0000
  H   H210      1.0  0.28113  0.02188  0.68801  1.0000
  C   C230      1.0  0.08051  0.21606  0.49783  1.0000
  H   H211      1.0  0.01776  0.09901  0.60548  1.0000
  C   C231      1.0  0.10166  0.21470  0.49159  1.0000
  H   H212      1.0  0.25967  0.08180  0.48360  1.0000
  H   H213      1.0  0.32557  0.09964  0.83387  1.0000
  H   H214      1.0  0.22753  0.17549  0.48145  1.0000
  H   H215      1.0  0.09507  0.22570  0.87010  1.0000
  C   C232      1.0  0.03525  0.22690  0.84246  1.0000
  N   N19       1.0  0.27517  0.99288  0.55866  1.0000
  S   S75       1.0  0.06799  0.23048  0.76005  1.0000
  H   H216      1.0  0.01563  0.19690  0.94486  1.0000
  H   H217      1.0  0.00898  0.19133  0.85389  1.0000
  C   C233      1.0  0.15859  0.23028  0.84597  1.0000
  C   C234      1.0  0.01971  0.23586  0.83191  1.0000
  H   H218      1.0  0.05111  0.23295  0.49273  1.0000
  H   H219      1.0  0.03947  0.30095  0.10943  1.0000
  C   C235      1.0  0.32189  0.41302  0.34386  1.0000
  Fe  Fe36      1.0  0.03940  0.27781  0.38638  1.0000
  H   H220      1.0  0.28100  0.44984  0.41422  1.0000
  S   S76       1.0  0.07112  0.28193  0.36986  1.0000
  C   C236      1.0  0.31346  0.40205  0.36228  1.0000
  C   C237      1.0  0.12630  0.46466  0.05121  1.0000
  Fe  Fe37      1.0  0.01497  0.25541  0.42281  1.0000
  C   C238      1.0  0.09135  0.47258  0.14807  1.0000
  C   C239      1.0  0.32495  0.47401  0.22873  1.0000
  S   S77       1.0  0.02143  0.28661  0.41543  1.0000
  N   N20       1.0  0.00464  0.43619  0.14904  1.0000
  H   H221      1.0  0.02659  0.38738  0.14943  1.0000
  H   H222      1.0  0.14629  0.42019  0.07771  1.0000
  H   H223      1.0  0.10335  0.25529  0.45508  1.0000
  S   S78       1.0  0.28441  0.46749  0.34365  1.0000
  Fe  Fe38      1.0  0.05187  0.28143  0.05189  1.0000
  H   H224      1.0  0.09261  0.29618  0.10853  1.0000
  C   C240      1.0  0.15995  0.47145  0.28492  1.0000
  C   C241      1.0  0.11341  0.29450  0.01465  1.0000
  Fe  Fe39      1.0  0.15529  0.45246  0.21146  1.0000
  S   S79       1.0  0.15622  0.45472  0.24235  1.0000
  S   S80       1.0  0.14058  0.42799  0.20877  1.0000
  H   H225      1.0  0.00807  0.38468  0.18472  1.0000
  C   C242      1.0  0.25953  0.25687  0.43251  1.0000
  Fe  Fe40      1.0  0.18450  0.46777  0.22872  1.0000
  S   S81       1.0  0.20935  0.45775  0.24679  1.0000
  H   H226      1.0  0.10663  0.31792  0.12254  1.0000
  S   S82       1.0  0.18552  0.46212  0.19816  1.0000
  S   S83       1.0  0.28767  0.37721  0.42306  1.0000
  C   C243      1.0  0.03933  0.38564  0.22648  1.0000
  Fe  Fe41      1.0  0.28254  0.34566  0.43380  1.0000
  S   S84       1.0  0.25168  0.33717  0.43881  1.0000
  S   S85       1.0  0.13146  0.27556  0.42642  1.0000
  S   S86       1.0  0.18936  0.26531  0.42888  1.0000
  S   S87       1.0  0.13654  0.48304  0.20521  1.0000
  S   S88       1.0  0.04404  0.30941  0.06539  1.0000
  S   S89       1.0  0.06381  0.28139  0.01925  1.0000
  Fe  Fe42      1.0  0.07183  0.41703  0.10926  1.0000
  S   S90       1.0  0.08096  0.41458  0.13808  1.0000
  S   S91       1.0  0.05237  0.44666  0.09960  1.0000
  Fe  Fe43      1.0  0.09640  0.37579  0.10280  1.0000
  S   S92       1.0  0.10836  0.37064  0.13090  1.0000
  S   S93       1.0  0.10733  0.35148  0.08408  1.0000
  Fe  Fe44      1.0  0.07599  0.38309  0.14431  1.0000
  S   S94       1.0  0.05956  0.36750  0.17339  1.0000
  Fe  Fe45      1.0  0.11216  0.40279  0.12185  1.0000
  S   S95       1.0  0.13756  0.41753  0.12276  1.0000
  S   S96       1.0  0.06373  0.38644  0.11690  1.0000
  S   S97       1.0  0.10338  0.40687  0.09234  1.0000
  H   H227      1.0  0.03646  0.37864  0.24210  1.0000
  H   H228      1.0  0.03259  0.31810  0.13891  1.0000
  C   C244      1.0  0.06208  0.32135  0.06942  1.0000
  C   C245      1.0  0.08304  0.31371  0.06505  1.0000
  C   C246      1.0  0.09683  0.32341  0.06912  1.0000
  C   C247      1.0  0.08972  0.34049  0.07798  1.0000
  C   C248      1.0  0.06875  0.34797  0.08248  1.0000
  C   C249      1.0  0.05501  0.33848  0.07813  1.0000
  H   H229      1.0  0.08858  0.30026  0.05875  1.0000
  H   H230      1.0  0.11305  0.31748  0.06572  1.0000
  H   H231      1.0  0.06310  0.36114  0.08918  1.0000
  H   H232      1.0  0.03880  0.34443  0.08158  1.0000
  H   H233      1.0  0.09563  0.25199  0.34172  1.0000
  H   H234      1.0  0.32250  0.40499  0.41922  1.0000
  S   S98       1.0  0.18241  0.26542  0.38371  1.0000
  H   H235      1.0  0.29453  0.35369  0.36377  1.0000
  S   S99       1.0  0.00774  0.47599  0.24807  1.0000
  Fe  Fe46      1.0  0.00681  0.25771  0.38204  1.0000
  H   H236      1.0  0.08341  0.33925  0.14584  1.0000
  C   C250      1.0  0.06677  0.46530  0.09627  1.0000
  C   C251      1.0  0.08655  0.45986  0.09992  1.0000
  H   H237      1.0  0.11329  0.46999  0.10067  1.0000
  H   H238      1.0  0.08924  0.33715  0.98903  1.0000
  H   H239      1.0  0.09491  0.45980  0.14071  1.0000
  H   H240      1.0  0.09306  0.44439  0.10465  1.0000
  H   H241      1.0  0.09935  0.45619  0.19729  1.0000
  Fe  Fe47      1.0  0.30671  0.37125  0.44625  1.0000
  H   H242      1.0  0.28589  0.47844  0.99700  1.0000
  H   H243      1.0  0.04630  0.33959  0.15380  1.0000
  H   H244      1.0  0.24093  0.33042  0.35161  1.0000
  H   H245      1.0  0.09135  0.27638  0.32612  1.0000
  C   C252      1.0  0.24728  0.32159  0.42456  1.0000
  C   C253      1.0  0.26211  0.31522  0.40855  1.0000
  C   C254      1.0  0.25772  0.30353  0.39701  1.0000
  C   C255      1.0  0.23857  0.29799  0.40147  1.0000
  C   C256      1.0  0.22387  0.30409  0.41768  1.0000
  C   C257      1.0  0.22821  0.31590  0.42913  1.0000
  H   H246      1.0  0.27678  0.31962  0.40475  1.0000
  H   H247      1.0  0.26911  0.29897  0.38439  1.0000
  H   H248      1.0  0.20895  0.30025  0.42105  1.0000
  H   H249      1.0  0.21661  0.32086  0.44143  1.0000
  C   C258      1.0  0.13931  0.42604  0.18469  1.0000
  C   C259      1.0  0.12604  0.41462  0.18264  1.0000
  C   C260      1.0  0.12517  0.41223  0.16365  1.0000
  C   C261      1.0  0.13778  0.42104  0.14663  1.0000
  C   C262      1.0  0.15084  0.43273  0.14864  1.0000
  C   C263      1.0  0.15146  0.43540  0.16763  1.0000
  H   H250      1.0  0.11665  0.40730  0.19580  1.0000
  H   H251      1.0  0.11518  0.40306  0.16227  1.0000
  H   H252      1.0  0.16068  0.43953  0.13552  1.0000
  H   H253      1.0  0.16178  0.44418  0.16913  1.0000
  C   C264      1.0  0.29490  0.44187  0.34928  1.0000
  C   C265      1.0  0.28599  0.43057  0.36716  1.0000
  C   C266      1.0  0.29525  0.41078  0.37363  1.0000
  S   S100      1.0  0.30988  0.33282  0.41267  1.0000
  S   S101      1.0  0.02601  0.26636  0.05331  1.0000
  C   C267      1.0  0.31266  0.43298  0.33737  1.0000
  H   H254      1.0  0.27215  0.43736  0.37631  1.0000
  H   H255      1.0  0.13572  0.23676  0.39149  1.0000
  S   S102      1.0  0.01286  0.28882  0.37107  1.0000
  C   C268      1.0  0.10083  0.32397  0.99211  1.0000
  H   H256      1.0  0.10295  0.24254  0.38260  1.0000
  H   H257      1.0  0.05449  0.24655  0.42774  1.0000
  C   C269      1.0  0.23810  0.46824  0.26099  1.0000
  C   C270      1.0  0.24957  0.48150  0.26310  1.0000
  H   H258      1.0  0.23947  0.45325  0.26985  1.0000
  C   C271      1.0  0.33259  0.40456  0.98294  1.0000
  C   C272      1.0  0.12163  0.25067  0.98822  1.0000
  N   N21       1.0  0.14751  0.46940  0.07142  1.0000
  C   C273      1.0  0.01722  0.40063  0.15476  1.0000
  Fe  Fe48      1.0  0.08269  0.25152  0.02910  1.0000
  C   C274      1.0  0.31770  0.40156  0.47562  1.0000
  C   C275      1.0  0.14331  0.43618  0.07175  1.0000
  H   H259      1.0  0.04972  0.27958  0.12672  1.0000
  H   H260      1.0  0.12247  0.46925  0.15108  1.0000
  S   S103      1.0  0.30173  0.47943  0.28357  1.0000
  H   H261      1.0  0.11155  0.28435  0.02899  1.0000
  C   C276      1.0  0.04691  0.40361  0.18615  1.0000
  C   C277      1.0  0.03513  0.40655  0.22100  1.0000
  H   H262      1.0  0.13545  0.24167  0.34166  1.0000
  H   H263      1.0  0.04923  0.41067  0.17063  1.0000
  C   C278      1.0  0.09041  0.31761  0.12663  1.0000
  C   C279      1.0  0.05087  0.38269  0.19160  1.0000
  C   C280      1.0  0.05347  0.29264  0.11500  1.0000
  C   C281      1.0  0.32493  0.41634  0.40585  1.0000
  S   S104      1.0  0.30213  0.39858  0.46039  1.0000
  C   C282      1.0  0.27548  0.26628  0.43205  1.0000
  H   H264      1.0  0.01414  0.46423  0.13915  1.0000
  H   H265      1.0  0.25471  0.29001  0.47076  1.0000
  H   H266      1.0  0.00266  0.24283  0.02336  1.0000
  H   H267      1.0  0.06015  0.46365  0.14015  1.0000
  Fe  Fe49      1.0  0.16430  0.26217  0.41532  1.0000
  H   H268      1.0  0.07234  0.48252  0.26746  1.0000
  C   C283      1.0  0.00559  0.25993  0.99339  1.0000
  C   C284      1.0  0.08768  0.28172  0.38527  1.0000
  C   C285      1.0  0.08028  0.28216  0.40556  1.0000
  C   C286      1.0  0.09377  0.28099  0.41789  1.0000
  C   C287      1.0  0.11484  0.27854  0.41020  1.0000
  C   C288      1.0  0.12228  0.27817  0.38986  1.0000
  C   C289      1.0  0.10869  0.28007  0.37736  1.0000
  H   H269      1.0  0.06414  0.28361  0.41176  1.0000
  H   H270      1.0  0.08779  0.28194  0.43343  1.0000
  H   H271      1.0  0.13846  0.27662  0.38371  1.0000
  H   H272      1.0  0.11452  0.27979  0.36163  1.0000
  N   N22       1.0  0.08687  0.44843  0.22801  1.0000
  C   C290      1.0  0.07462  0.43460  0.23197  1.0000
  C   C291      1.0  0.09900  0.44789  0.24086  1.0000
  C   C292      1.0  0.07399  0.41997  0.24940  1.0000
  C   C293      1.0  0.09879  0.43346  0.25840  1.0000
  C   C294      1.0  0.08615  0.41943  0.26268  1.0000
  C   C295      1.0  0.08799  0.46306  0.20925  1.0000
  H   H273      1.0  0.06525  0.43475  0.22164  1.0000
  H   H274      1.0  0.10913  0.45851  0.23749  1.0000
  H   H275      1.0  0.06414  0.40911  0.25249  1.0000
  H   H276      1.0  0.10858  0.43308  0.26840  1.0000
  H   H277      1.0  0.08589  0.40808  0.27618  1.0000
  C   C296      1.0  0.07550  0.23944  0.31527  1.0000
  H   H278      1.0  0.07284  0.46807  0.20506  1.0000
  H   H279      1.0  0.22624  0.27327  0.47246  1.0000
  Fe  Fe50      1.0  0.20830  0.26600  0.39787  1.0000
  Fe  Fe51      1.0  0.01122  0.45305  0.22931  1.0000
  H   H280      1.0  0.06439  0.28702  0.10204  1.0000
  C   C297      1.0  0.22566  0.34460  0.37679  1.0000
  N   N23       1.0  0.07426  0.25560  0.32363  1.0000
  C   C298      1.0  0.05567  0.26693  0.33011  1.0000
  C   C299      1.0  0.13501  0.47722  0.05801  1.0000
  C   C300      1.0  0.03774  0.26250  0.32781  1.0000
  C   C301      1.0  0.04887  0.31785  0.13546  1.0000
  C   C302      1.0  0.00673  0.39908  0.17461  1.0000
  C   C303      1.0  0.09280  0.26006  0.32680  1.0000
  H   H281      1.0  0.05461  0.27944  0.33721  1.0000
  C   C304      1.0  0.10706  0.47784  0.15388  1.0000
  H   H282      1.0  0.02297  0.27129  0.33319  1.0000
  S   S105      1.0  0.29844  0.34085  0.45917  1.0000
  S   S106      1.0  0.02391  0.47204  0.20061  1.0000
  H   H283      1.0  0.03551  0.43159  0.19642  1.0000
  C   C305      1.0  0.15162  0.44918  0.07838  1.0000
  Fe  Fe52      1.0  0.04784  0.23756  0.06111  1.0000
  N   N24       1.0  0.26196  0.35762  0.37211  1.0000
  C   C306      1.0  0.24582  0.36262  0.38710  1.0000
  C   C307      1.0  0.22746  0.35617  0.38969  1.0000
  C   C308      1.0  0.28102  0.36469  0.36946  1.0000
  H   H284      1.0  0.24726  0.37112  0.39757  1.0000
  H   H285      1.0  0.21499  0.35947  0.40208  1.0000
  N   N25       1.0  0.07190  0.48350  0.15149  1.0000
  H   H286      1.0  0.28088  0.37921  0.35877  1.0000
  H   H287      1.0  0.28330  0.36680  0.38383  1.0000
  C   C309      1.0  0.31405  0.44820  0.38667  1.0000
  H   H288      1.0  0.27293  0.34278  0.34718  1.0000
  C   C310      1.0  0.29058  0.28757  0.44524  1.0000
  H   H289      1.0  0.28914  0.26448  0.42046  1.0000
  H   H290      1.0  0.28479  0.30262  0.44936  1.0000
  H   H291      1.0  0.12356  0.43411  0.05330  1.0000
  S   S107      1.0  0.07275  0.25286  0.06189  1.0000
  H   H292      1.0  0.17106  0.45938  0.27796  1.0000
  Fe  Fe53      1.0  0.31639  0.36404  0.40368  1.0000
  H   H293      1.0  0.29686  0.43937  0.43257  1.0000
  C   C311      1.0  0.25628  0.28045  0.46016  1.0000
  C   C312      1.0  0.24180  0.25922  0.44724  1.0000
  C   C313      1.0  0.24012  0.27109  0.46116  1.0000
  N   N26       1.0  0.31093  0.43378  0.40348  1.0000
  Fe  Fe54      1.0  0.03981  0.26371  0.02141  1.0000
  H   H294      1.0  0.15631  0.46628  0.30134  1.0000
  H   H295      1.0  0.10637  0.25529  0.31534  1.0000
  C   C314      1.0  0.07579  0.24638  0.47325  1.0000
  C   C315      1.0  0.09700  0.24446  0.46733  1.0000
  Fe  Fe55      1.0  0.32635  0.32946  0.43728  1.0000
  H   H296      1.0  0.04987  0.35756  0.21612  1.0000
  C   C316      1.0  0.01620  0.41944  0.14214  1.0000
  C   C317      1.0  0.05646  0.33002  0.14388  1.0000
  N   N27       1.0  0.06178  0.30581  0.12298  1.0000
  H   H297      1.0  0.19569  0.47422  0.29055  1.0000
  C   C318      1.0  0.03889  0.24620  0.31911  1.0000
  H   H298      1.0  0.28546  0.42340  0.42380  1.0000
  H   H299      1.0  0.16087  0.44298  0.08959  1.0000
  H   H300      1.0  0.08514  0.31500  0.02243  1.0000
  C   C319      1.0  0.15522  0.48277  0.07971  1.0000
  S   S108      1.0  0.11582  0.24323  0.01438  1.0000
  H   H301      1.0  0.14570  0.47398  0.27924  1.0000
  S   S109      1.0  0.02541  0.42108  0.23967  1.0000
  C   C320      1.0  0.24207  0.33984  0.36137  1.0000
  H   H302      1.0  0.30278  0.46187  0.38448  1.0000
  C   C321      1.0  0.09856  0.31156  0.01090  1.0000
  H   H303      1.0  0.31957  0.44163  0.32349  1.0000
  H   H304      1.0  0.30014  0.27819  0.45586  1.0000
  C   C322      1.0  0.07737  0.32985  0.13943  1.0000
  H   H305      1.0  0.17132  0.47664  0.08112  1.0000
  H   H306      1.0  0.28830  0.40246  0.38749  1.0000
  C   C323      1.0  0.09818  0.47445  0.09745  1.0000
  C   C324      1.0  0.22463  0.47436  0.24774  1.0000
  N   N28       1.0  0.27364  0.27804  0.44567  1.0000
  H   H307      1.0  0.09273  0.47668  0.21067  1.0000
  H   H308      1.0  0.22930  0.25201  0.44772  1.0000
  C   C325      1.0  0.04692  0.37373  0.21180  1.0000
  C   C326      1.0  0.03883  0.41552  0.20080  1.0000
  C   C327      1.0  0.05566  0.47862  0.14452  1.0000
  H   H309      1.0  0.25962  0.47672  0.27359  1.0000
  H   H310      1.0  0.21180  0.33879  0.37910  1.0000
  S   S110      1.0  0.02446  0.27226  0.99488  1.0000
  C   C328      1.0  0.08234  0.30547  0.11863  1.0000
  C   C329      1.0  0.26018  0.34665  0.35913  1.0000
  C   C330      1.0  0.29265  0.43689  0.41924  1.0000
  S   S111      1.0  0.23307  0.28469  0.38571  1.0000
  H   H311      1.0  0.06587  0.25851  0.46549  1.0000
  C   C331      1.0  0.13053  0.44401  0.05813  1.0000
  H   H312      1.0  0.32754  0.46214  0.24142  1.0000
  C   C332      1.0  0.00395  0.45589  0.13581  1.0000
  H   H313      1.0  0.09132  0.26681  0.98592  1.0000
  H   H314      1.0  0.16363  0.24048  0.35823  1.0000
  N   N29       1.0  0.13259  0.30246  0.98117  1.0000
  C   C333      1.0  0.13050  0.29023  0.99959  1.0000
  H   H315      1.0  0.13644  0.24118  0.46245  1.0000
  S   S112      1.0  0.03479  0.24603  0.39484  1.0000
  H   H316      1.0  0.26069  0.24811  0.42130  1.0000
  H   H317      1.0  0.30049  0.28989  0.43009  1.0000
  H   H318      1.0  0.11588  0.47097  0.04109  1.0000
  S   S113      1.0  0.32632  0.37784  0.37121  1.0000
  H   H319      1.0  0.02501  0.24225  0.31788  1.0000
  H   H320      1.0  0.14179  0.27677  0.00264  1.0000
  H   H321      1.0  0.02480  0.42060  0.12685  1.0000
  H   H322      1.0  0.30382  0.43268  0.47543  1.0000
  C   C334      1.0  0.10681  0.26282  0.97798  1.0000
  H   H323      1.0  0.29386  0.48493  0.24288  1.0000
  H   H324      1.0  0.04160  0.47851  0.15640  1.0000
  H   H325      1.0  0.00892  0.45462  0.11979  1.0000
  H   H326      1.0  0.14565  0.48452  0.09470  1.0000
  C   C335      1.0  0.33132  0.44509  0.37147  1.0000
  C   C336      1.0  0.05854  0.48561  0.09044  1.0000
  Fe  Fe56      1.0  0.13940  0.48600  0.23515  1.0000
  C   C337      1.0  0.08833  0.46799  0.72286  1.0000
  H   H327      1.0  0.15004  0.45525  0.67764  1.0000
  C   C338      1.0  0.14140  0.24027  0.81195  1.0000
  H   H328      1.0  0.26403  0.29282  0.93870  1.0000
  C   C339      1.0  0.13841  0.31397  0.73431  1.0000
  H   H329      1.0  0.09350  0.45926  0.57010  1.0000
  H   H330      1.0  0.30441  0.40064  0.52911  1.0000
  H   H331      1.0  0.27278  0.44225  0.93074  1.0000
  H   H332      1.0  0.13321  0.28819  0.87958  1.0000
  H   H333      1.0  0.31484  0.45482  0.86077  1.0000
  C   C340      1.0  0.08479  0.33355  0.74984  1.0000
  S   S114      1.0  0.10018  0.37793  0.69928  1.0000
  Fe  Fe57      1.0  0.16511  0.45908  0.58745  1.0000
  S   S115      1.0  0.15840  0.42806  0.59634  1.0000
  C   C341      1.0  0.27300  0.29704  0.92388  1.0000
  H   H334      1.0  0.27782  0.48544  0.87591  1.0000
  C   C342      1.0  0.33216  0.38568  0.48293  1.0000
  C   C343      1.0  0.08670  0.31690  0.76531  1.0000
  H   H335      1.0  0.11972  0.32884  0.96273  1.0000
  H   H336      1.0  0.02174  0.35220  0.73101  1.0000
  S   S116      1.0  0.05431  0.40277  0.71660  1.0000
  S   S117      1.0  0.05025  0.47117  0.57343  1.0000
  H   H337      1.0  0.14635  0.28429  0.85479  1.0000
  H   H338      1.0  0.29593  0.45856  0.84603  1.0000
  S   S118      1.0  0.10121  0.27046  0.73587  1.0000
  Fe  Fe58      1.0  0.07471  0.39953  0.68684  1.0000
  Fe  Fe59      1.0  0.09331  0.24507  0.76109  1.0000
  Fe  Fe60      1.0  0.11149  0.40533  0.69926  1.0000
  C   C344      1.0  0.29520  0.30905  0.88593  1.0000
  S   S119      1.0  0.14434  0.40785  0.68992  1.0000
  C   C345      1.0  0.10247  0.25369  0.85262  1.0000
  S   S120      1.0  0.08814  0.42650  0.68351  1.0000
  Fe  Fe61      1.0  0.21018  0.28195  0.88247  1.0000
  H   H339      1.0  0.04788  0.41136  0.61727  1.0000
  S   S121      1.0  0.23051  0.30512  0.87426  1.0000
  Fe  Fe62      1.0  0.18895  0.26038  0.86229  1.0000
  S   S122      1.0  0.18082  0.26082  0.83289  1.0000
  S   S123      1.0  0.17905  0.28827  0.87542  1.0000
  S   S124      1.0  0.22109  0.25583  0.86644  1.0000
  H   H340      1.0  0.24536  0.27677  0.92343  1.0000
  S   S125      1.0  0.28107  0.38630  0.89254  1.0000
  S   S126      1.0  0.20107  0.26334  0.91282  1.0000
  Fe  Fe63      1.0  0.30191  0.38516  0.93927  1.0000
  S   S127      1.0  0.26939  0.39888  0.93702  1.0000
  Fe  Fe64      1.0  0.26998  0.37191  0.92424  1.0000
  S   S128      1.0  0.24532  0.35297  0.93392  1.0000
  Fe  Fe65      1.0  0.28332  0.41192  0.90554  1.0000
  S   S129      1.0  0.27640  0.44353  0.88866  1.0000
  S   S130      1.0  0.30133  0.35707  0.92942  1.0000
  C   C346      1.0  0.06823  0.47513  0.72018  1.0000
  Fe  Fe66      1.0  0.31231  0.37329  0.89860  1.0000
  C   C347      1.0  0.27527  0.46208  0.90211  1.0000
  H   H341      1.0  0.12209  0.30130  0.85865  1.0000
  Fe  Fe67      1.0  0.08086  0.38317  0.72899  1.0000
  Fe  Fe68      1.0  0.06985  0.42827  0.71434  1.0000
  C   C348      1.0  0.13500  0.36654  0.74003  1.0000
  H   H342      1.0  0.30908  0.45574  0.95445  1.0000
  H   H343      1.0  0.04771  0.27732  0.75224  1.0000
  C   C349      1.0  0.23971  0.34121  0.91683  1.0000
  C   C350      1.0  0.24918  0.34437  0.89662  1.0000
  C   C351      1.0  0.24556  0.33373  0.88364  1.0000
  C   C352      1.0  0.23254  0.31976  0.89073  1.0000
  C   C353      1.0  0.22263  0.31693  0.91084  1.0000
  C   C354      1.0  0.22622  0.32763  0.92384  1.0000
  H   H344      1.0  0.25951  0.35480  0.89102  1.0000
  H   H345      1.0  0.25320  0.33607  0.86809  1.0000
  H   H346      1.0  0.21248  0.30629  0.91644  1.0000
  H   H347      1.0  0.21877  0.32519  0.93945  1.0000
  H   H348      1.0  0.31391  0.46478  0.90384  1.0000
  H   H349      1.0  0.05153  0.45857  0.62346  1.0000
  C   C355      1.0  0.15076  0.29823  0.96556  1.0000
  H   H350      1.0  0.25457  0.27319  0.89831  1.0000
  H   H351      1.0  0.02116  0.46212  0.66149  1.0000
  C   C356      1.0  0.03870  0.43206  0.66295  1.0000
  S   S131      1.0  0.08188  0.24847  0.79311  1.0000
  C   C357      1.0  0.00456  0.42216  0.65576  1.0000
  H   H352      1.0  0.11815  0.41828  0.59784  1.0000
  S   S132      1.0  0.09430  0.40910  0.73000  1.0000
  H   H353      1.0  0.30352  0.31394  0.87096  1.0000
  C   C358      1.0  0.09487  0.29456  0.74158  1.0000
  C   C359      1.0  0.31605  0.44149  0.96209  1.0000
  C   C360      1.0  0.08797  0.33066  0.73024  1.0000
  C   C361      1.0  0.09310  0.31122  0.72611  1.0000
  H   H354      1.0  0.01063  0.47563  0.71557  1.0000
  H   H355      1.0  0.08604  0.34331  0.71828  1.0000
  H   H356      1.0  0.09550  0.30908  0.71090  1.0000
  C   C362      1.0  0.15638  0.42053  0.62217  1.0000
  C   C363      1.0  0.14295  0.40778  0.63313  1.0000
  C   C364      1.0  0.13952  0.40357  0.65401  1.0000
  C   C365      1.0  0.15028  0.41128  0.66388  1.0000
  C   C366      1.0  0.16453  0.42313  0.65290  1.0000
  C   C367      1.0  0.16722  0.42814  0.63206  1.0000
  H   H357      1.0  0.13472  0.40162  0.62558  1.0000
  H   H358      1.0  0.12849  0.39438  0.66242  1.0000
  H   H359      1.0  0.17300  0.42899  0.66048  1.0000
  H   H360      1.0  0.17775  0.43783  0.62369  1.0000
  H   H361      1.0  0.10066  0.27999  0.94970  1.0000
  C   C368      1.0  0.06610  0.44949  0.61818  1.0000
  H   H362      1.0  0.08330  0.46838  0.62458  1.0000
  C   C369      1.0  0.31258  0.45445  0.84581  1.0000
  C   C370      1.0  0.08972  0.47543  0.56809  1.0000
  N   N30       1.0  0.12075  0.27022  0.86669  1.0000
  H   H363      1.0  0.04670  0.30842  0.72667  1.0000
  C   C371      1.0  0.14492  0.31541  0.71369  1.0000
  S   S133      1.0  0.13853  0.27612  0.92151  1.0000
  H   H364      1.0  0.03985  0.27937  0.78818  1.0000
  C   C372      1.0  0.31505  0.42033  0.48094  1.0000
  H   H365      1.0  0.09364  0.28472  0.77312  1.0000
  C   C373      1.0  0.00412  0.44185  0.65727  1.0000
  H   H366      1.0  0.28172  0.28864  0.87717  1.0000
  C   C374      1.0  0.02132  0.44687  0.66055  1.0000
  C   C375      1.0  0.14550  0.35041  0.71059  1.0000
  H   H367      1.0  0.15358  0.33505  0.68565  1.0000
  C   C376      1.0  0.14856  0.33371  0.70172  1.0000
  C   C377      1.0  0.13513  0.33105  0.74263  1.0000
  C   C378      1.0  0.27391  0.45731  0.92277  1.0000
  C   C379      1.0  0.10017  0.48139  0.72396  1.0000
  H   H368      1.0  0.12939  0.32999  0.75860  1.0000
  C   C380      1.0  0.13111  0.28680  0.86485  1.0000
  H   H369      1.0  0.15763  0.47681  0.69793  1.0000
  S   S134      1.0  0.17875  0.23995  0.89090  1.0000
  C   C381      1.0  0.10187  0.23841  0.86944  1.0000
  Fe  Fe69      1.0  0.17068  0.26745  0.90450  1.0000
  H   H370      1.0  0.14595  0.36426  0.74989  1.0000
  H   H371      1.0  0.12764  0.25555  0.89511  1.0000
  H   H372      1.0  0.11916  0.36902  0.74903  1.0000
  H   H373      1.0  0.13687  0.38043  0.72872  1.0000
  Fe  Fe70      1.0  0.21013  0.23755  0.89632  1.0000
  H   H374      1.0  0.32439  0.43764  0.49759  1.0000
  H   H375      1.0  0.14836  0.36459  0.70115  1.0000
  C   C382      1.0  0.09178  0.29743  0.76118  1.0000
  C   C383      1.0  0.26139  0.48465  0.53062  1.0000
  S   S135      1.0  0.14288  0.48356  0.60120  1.0000
  C   C384      1.0  0.10286  0.44376  0.61159  1.0000
  N   N31       1.0  0.26141  0.43018  0.54953  1.0000
  C   C385      1.0  0.26942  0.43859  0.56076  1.0000
  C   C386      1.0  0.27375  0.41682  0.53813  1.0000
  C   C387      1.0  0.29032  0.43376  0.56070  1.0000
  C   C388      1.0  0.29465  0.41135  0.53805  1.0000
  C   C389      1.0  0.30296  0.41997  0.54933  1.0000
  C   C390      1.0  0.23960  0.43578  0.54914  1.0000
  H   H376      1.0  0.25973  0.44936  0.56963  1.0000
  H   H377      1.0  0.04738  0.34359  0.71795  1.0000
  H   H378      1.0  0.29666  0.44087  0.56925  1.0000
  C   C391      1.0  0.28290  0.29472  0.88956  1.0000
  N   N32       1.0  0.13859  0.34897  0.73078  1.0000
  H   H379      1.0  0.23748  0.44458  0.53420  1.0000
  H   H380      1.0  0.23273  0.42220  0.55246  1.0000
  H   H381      1.0  0.23098  0.44524  0.56035  1.0000
  H   H382      1.0  0.03156  0.34354  0.77201  1.0000
  C   C392      1.0  0.10355  0.42697  0.60383  1.0000
  H   H383      1.0  0.28518  0.31838  0.93297  1.0000
  H   H384      1.0  0.03187  0.31270  0.79806  1.0000
  C   C393      1.0  0.03951  0.29297  0.77688  1.0000
  H   H385      1.0  0.14691  0.30236  0.70705  1.0000
  H   H386      1.0  0.27244  0.46838  0.94924  1.0000
  H   H387      1.0  0.31666  0.48313  0.92842  1.0000
  N   N33       1.0  0.03887  0.32779  0.74787  1.0000
  C   C394      1.0  0.28508  0.31144  0.92076  1.0000
  C   C395      1.0  0.31244  0.42372  0.95878  1.0000
  C   C396      1.0  0.27930  0.48427  0.53684  1.0000
  H   H388      1.0  0.03426  0.43665  0.61725  1.0000
  C   C397      1.0  0.27668  0.48168  0.89191  1.0000
  H   H389      1.0  0.32694  0.44224  0.91734  1.0000
  C   C398      1.0  0.04320  0.30950  0.74232  1.0000
  H   H390      1.0  0.13536  0.29983  0.74370  1.0000
  C   C399      1.0  0.15518  0.25130  0.81392  1.0000
  C   C400      1.0  0.11212  0.27020  0.95741  1.0000
  H   H391      1.0  0.26233  0.48186  0.51591  1.0000
  C   C401      1.0  0.32860  0.44079  0.97521  1.0000
  C   C402      1.0  0.29625  0.31745  0.90165  1.0000
  C   C403      1.0  0.13220  0.26523  0.94690  1.0000
  S   S136      1.0  0.05275  0.45891  0.71912  1.0000
  C   C404      1.0  0.04809  0.42720  0.60976  1.0000
  H   H392      1.0  0.30292  0.42435  0.94848  1.0000
  H   H393      1.0  0.00497  0.27479  0.96297  1.0000
  S   S137      1.0  0.06130  0.39410  0.66324  1.0000
  S   S138      1.0  0.07816  0.35774  0.75545  1.0000
  H   H394      1.0  0.08430  0.31904  0.78051  1.0000
  N   N34       1.0  0.06691  0.43285  0.61076  1.0000
  H   H395      1.0  0.08592  0.40855  0.59762  1.0000
  S   S139      1.0  0.02533  0.24160  0.80571  1.0000
  C   C405      1.0  0.04374  0.29183  0.75671  1.0000
  H   H396      1.0  0.11694  0.44805  0.61173  1.0000
  C   C406      1.0  0.25954  0.27358  0.91204  1.0000
  C   C407      1.0  0.14694  0.25258  0.95695  1.0000
  C   C408      1.0  0.02224  0.40751  0.65740  1.0000
  C   C409      1.0  0.30969  0.41965  0.84825  1.0000
  C   C410      1.0  0.03925  0.41241  0.66117  1.0000
  H   H397      1.0  0.05182  0.43594  0.66579  1.0000
  C   C411      1.0  0.03474  0.32905  0.76763  1.0000
  C   C412      1.0  0.03499  0.31168  0.78242  1.0000
  H   H398      1.0  0.12059  0.47864  0.56563  1.0000
  C   C413      1.0  0.11093  0.23911  0.88483  1.0000
  H   H399      1.0  0.12151  0.44781  0.66737  1.0000
  H   H400      1.0  0.29393  0.48128  0.52692  1.0000
  C   C414      1.0  0.12061  0.46266  0.67003  1.0000
  C   C415      1.0  0.08531  0.42163  0.60364  1.0000
  N   N35       1.0  0.27191  0.28900  0.90834  1.0000
  C   C416      1.0  0.32907  0.45551  0.90529  1.0000
  C   C417      1.0  0.32077  0.40519  0.96917  1.0000
  H   H401      1.0  0.04705  0.42918  0.59390  1.0000
  H   H402      1.0  0.02260  0.39233  0.65604  1.0000
  S   S140      1.0  0.31577  0.40008  0.90871  1.0000
  H   H403      1.0  0.05206  0.25347  0.93539  1.0000
  H   H404      1.0  0.32004  0.46609  0.83468  1.0000
  H   H405      1.0  0.14632  0.29929  0.95116  1.0000
  S   S141      1.0  0.19292  0.46781  0.59133  1.0000
  C   C418      1.0  0.04535  0.24205  0.94669  1.0000
  C   C419      1.0  0.08403  0.45513  0.61882  1.0000
  C   C420      1.0  0.03777  0.34623  0.73269  1.0000
  C   C421      1.0  0.11227  0.26944  0.85136  1.0000
  C   C422      1.0  0.13682  0.46698  0.67576  1.0000
  H   H406      1.0  0.13471  0.24428  0.79887  1.0000
  Fe  Fe71      1.0  0.33032  0.47407  0.54597  1.0000
  H   H407      1.0  0.30538  0.32888  0.89895  1.0000
  H   H408      1.0  0.09468  0.45216  0.72431  1.0000
  H   H409      1.0  0.11342  0.28082  0.83788  1.0000
  S   S142      1.0  0.16642  0.47588  0.55604  1.0000
  C   C423      1.0  0.32672  0.42320  0.49346  1.0000
  N   N36       1.0  0.32110  0.43438  0.84118  1.0000
  C   C424      1.0  0.12040  0.25522  0.88319  1.0000
  H   H410      1.0  0.26842  0.25860  0.91725  1.0000
  H   H411      1.0  0.31920  0.41601  0.54915  1.0000
  C   C425      1.0  0.27374  0.47213  0.93322  1.0000
  H   H412      1.0  0.15918  0.26370  0.80219  1.0000
  H   H413      1.0  0.11565  0.47582  0.72611  1.0000
  H   H414      1.0  0.15962  0.28283  0.96931  1.0000
  H   H415      1.0  0.26750  0.41035  0.52899  1.0000
  H   H416      1.0  0.29424  0.42288  0.85682  1.0000
  H   H417      1.0  0.04355  0.35787  0.73692  1.0000
  C   C426      1.0  0.16371  0.24645  0.83098  1.0000
  H   H418      1.0  0.09623  0.25277  0.84023  1.0000
  C   C427      1.0  0.10319  0.47742  0.66828  1.0000
  S   S143      1.0  0.31705  0.38263  0.96493  1.0000
  C   C428      1.0  0.31784  0.40018  0.84474  1.0000
  H   H419      1.0  0.16087  0.30909  0.96351  1.0000
  H   H420      1.0  0.16246  0.24864  0.94892  1.0000
  H   H421      1.0  0.30892  0.38842  0.85068  1.0000
  C   C429      1.0  0.11805  0.31916  0.97733  1.0000
  H   H422      1.0  0.09011  0.47393  0.66484  1.0000
  H   H423      1.0  0.33234  0.47781  0.58734  1.0000
  C   C430      1.0  0.06945  0.48527  0.56857  1.0000
  H   H424      1.0  0.29347  0.48598  0.97039  1.0000
  C   C431      1.0  0.14167  0.24543  0.97763  1.0000
  H   H425      1.0  0.02760  0.23666  0.92802  1.0000
  H   H426      1.0  0.06031  0.24472  0.96919  1.0000
  N   N37       1.0  0.13584  0.48558  0.67939  1.0000
  C   C432      1.0  0.33299  0.48047  0.92260  1.0000
  C   C433      1.0  0.05011  0.23704  0.96559  1.0000
  C   C434      1.0  0.00843  0.72119  0.03573  1.0000
  S   S144      1.0  0.28786  0.65298  0.39142  1.0000
  H   H427      1.0  0.13990  0.57497  0.13781  1.0000
  S   S145      1.0  0.30973  0.52591  0.26698  1.0000
  C   C435      1.0  0.10279  0.49437  0.16313  1.0000
  Fe  Fe72      1.0  0.30366  0.52905  0.29907  1.0000
  S   S146      1.0  0.30453  0.55877  0.30634  1.0000
  H   H428      1.0  0.21268  0.49863  0.22607  1.0000
  C   C436      1.0  0.23451  0.50700  0.23837  1.0000
  C   C437      1.0  0.04642  0.71037  0.33660  1.0000
  C   C438      1.0  0.22295  0.49377  0.23635  1.0000
  Fe  Fe73      1.0  0.28306  0.51012  0.27579  1.0000
  C   C439      1.0  0.01048  0.71876  0.46325  1.0000
  Fe  Fe74      1.0  0.17616  0.66060  0.40829  1.0000
  S   S147      1.0  0.18484  0.68394  0.38150  1.0000
  S   S148      1.0  0.19926  0.63366  0.41800  1.0000
  Fe  Fe75      1.0  0.13187  0.68211  0.41663  1.0000
  S   S149      1.0  0.13691  0.70739  0.39075  1.0000
  C   C440      1.0  0.15819  0.50755  0.27164  1.0000
  Fe  Fe76      1.0  0.15537  0.68312  0.37422  1.0000
  S   S150      1.0  0.15494  0.68094  0.34316  1.0000
  Fe  Fe77      1.0  0.16568  0.70572  0.40070  1.0000
  S   S151      1.0  0.14810  0.65775  0.39935  1.0000
  S   S152      1.0  0.15922  0.68255  0.42815  1.0000
  H   H429      1.0  0.28893  0.62803  0.35762  1.0000
  C   C441      1.0  0.31813  0.50487  0.19681  1.0000
  C   C442      1.0  0.07703  0.51934  0.21658  1.0000
  H   H430      1.0  0.33280  0.56637  0.26657  1.0000
  H   H431      1.0  0.23083  0.66690  0.35568  1.0000
  H   H432      1.0  0.01281  0.50997  0.16833  1.0000
  S   S153      1.0  0.04461  0.70154  0.07165  1.0000
  C   C443      1.0  0.13823  0.58962  0.10739  1.0000
  Fe  Fe78      1.0  0.07769  0.58747  0.08297  1.0000
  S   S154      1.0  0.05444  0.58968  0.11149  1.0000
  S   S155      1.0  0.08874  0.61342  0.06036  1.0000
  Fe  Fe79      1.0  0.08719  0.54190  0.09262  1.0000
  S   S156      1.0  0.06472  0.54027  0.12162  1.0000
  S   S157      1.0  0.10597  0.51234  0.08650  1.0000
  Fe  Fe80      1.0  0.04436  0.56425  0.10474  1.0000
  C   C444      1.0  0.30616  0.50591  0.99678  1.0000
  Fe  Fe81      1.0  0.07690  0.56542  0.12578  1.0000
  S   S158      1.0  0.08190  0.56431  0.15627  1.0000
  S   S159      1.0  0.06580  0.56379  0.07494  1.0000
  S   S160      1.0  0.10125  0.56540  0.09791  1.0000
  H   H433      1.0  0.10613  0.52140  0.22115  1.0000
  H   H434      1.0  0.07825  0.52992  0.20259  1.0000
  H   H435      1.0  0.14344  0.50848  0.26827  1.0000
  C   C445      1.0  0.05739  0.67714  0.06876  1.0000
  C   C446      1.0  0.07514  0.67386  0.05414  1.0000
  C   C447      1.0  0.08454  0.65423  0.05154  1.0000
  C   C448      1.0  0.07625  0.63785  0.06355  1.0000
  C   C449      1.0  0.05853  0.64116  0.07818  1.0000
  C   C450      1.0  0.04913  0.66076  0.08079  1.0000
  H   H436      1.0  0.08169  0.68642  0.04489  1.0000
  H   H437      1.0  0.09830  0.65176  0.04024  1.0000
  H   H438      1.0  0.05189  0.62868  0.08734  1.0000
  H   H439      1.0  0.03534  0.66326  0.09205  1.0000
  C   C451      1.0  0.02107  0.68506  0.03967  1.0000
  C   C452      1.0  0.13784  0.69957  0.33107  1.0000
  C   C453      1.0  0.13299  0.69638  0.31410  1.0000
  C   C454      1.0  0.12011  0.71139  0.30358  1.0000
  C   C455      1.0  0.11245  0.72980  0.30973  1.0000
  C   C456      1.0  0.00699  0.55468  0.19077  1.0000
  C   C457      1.0  0.12981  0.71784  0.33750  1.0000
  H   H440      1.0  0.13924  0.68227  0.30905  1.0000
  H   H441      1.0  0.11630  0.70880  0.29052  1.0000
  H   H442      1.0  0.07945  0.51847  0.17340  1.0000
  H   H443      1.0  0.32589  0.52011  0.00606  1.0000
  C   C458      1.0  0.22661  0.65909  0.40709  1.0000
  C   C459      1.0  0.22367  0.63931  0.41383  1.0000
  C   C460      1.0  0.24056  0.62377  0.41580  1.0000
  C   C461      1.0  0.26039  0.62792  0.40999  1.0000
  H   H444      1.0  0.21367  0.67124  0.40627  1.0000
  H   H445      1.0  0.23832  0.60847  0.42122  1.0000
  H   H446      1.0  0.27332  0.61582  0.41092  1.0000
  H   H447      1.0  0.10687  0.59488  0.15230  1.0000
  C   C462      1.0  0.13810  0.52983  0.14551  1.0000
  C   C463      1.0  0.11834  0.54013  0.14387  1.0000
  C   C464      1.0  0.10580  0.54962  0.15923  1.0000
  C   C465      1.0  0.11267  0.54787  0.17674  1.0000
  C   C466      1.0  0.30595  0.48691  0.22975  1.0000
  C   C467      1.0  0.19587  0.50562  0.28001  1.0000
  H   H448      1.0  0.11286  0.54052  0.13076  1.0000
  H   H449      1.0  0.10296  0.55501  0.18877  1.0000
  C   C468      1.0  0.06758  0.49967  0.16065  1.0000
  N   N38       1.0  0.29088  0.50858  0.98667  1.0000
  C   C469      1.0  0.05821  0.49697  0.24230  1.0000
  C   C470      1.0  0.24772  0.50098  0.25185  1.0000
  H   H450      1.0  0.07789  0.69842  0.39189  1.0000
  H   H451      1.0  0.15242  0.58051  0.10114  1.0000
  C   C471      1.0  0.08317  0.67449  0.43035  1.0000
  H   H452      1.0  0.07934  0.73160  0.34935  1.0000
  H   H453      1.0  0.26870  0.66196  0.34979  1.0000
  H   H454      1.0  0.00957  0.58830  0.13855  1.0000
  H   H455      1.0  0.13027  0.59505  0.06762  1.0000
  H   H456      1.0  0.15138  0.60536  0.06941  1.0000
  H   H457      1.0  0.23302  0.52203  0.22960  1.0000
  H   H458      1.0  0.21380  0.63752  0.36947  1.0000
  H   H459      1.0  0.15854  0.53891  0.25958  1.0000
  H   H460      1.0  0.26787  0.49480  0.98293  1.0000
  H   H461      1.0  0.13102  0.49332  0.05313  1.0000
  C   C472      1.0  0.01342  0.53263  0.14151  1.0000
  Fe  Fe82      1.0  0.01785  0.49579  0.21883  1.0000
  H   H462      1.0  0.09659  0.68302  0.37587  1.0000
  H   H463      1.0  0.04174  0.72287  0.99157  1.0000
  S   S161      1.0  0.06898  0.72539  0.01743  1.0000
  H   H464      1.0  0.01899  0.72195  0.04448  1.0000
  H   H465      1.0  0.18630  0.71189  0.33661  1.0000
  S   S162      1.0  0.27513  0.51625  0.30698  1.0000
  C   C473      1.0  0.26336  0.64760  0.40211  1.0000
  H   H466      1.0  0.00566  0.62714  0.41275  1.0000
  C   C474      1.0  0.02448  0.56263  0.18137  1.0000
  C   C475      1.0  0.06537  0.73247  0.41789  1.0000
  C   C476      1.0  0.07546  0.65287  0.41201  1.0000
  C   C477      1.0  0.31630  0.55974  0.32559  1.0000
  H   H467      1.0  0.03886  0.71971  0.42104  1.0000
  H   H468      1.0  0.03609  0.71348  0.32642  1.0000
  C   C478      1.0  0.07030  0.50031  0.08789  1.0000
  H   H469      1.0  0.08655  0.62005  0.12985  1.0000
  H   H470      1.0  0.09972  0.62548  0.09334  1.0000
  H   H471      1.0  0.03181  0.67943  0.43575  1.0000
  C   C479      1.0  0.13125  0.58641  0.12812  1.0000
  C   C480      1.0  0.27505  0.59377  0.37271  1.0000
  H   H472      1.0  0.23456  0.60375  0.37712  1.0000
  C   C481      1.0  0.13214  0.53683  0.17875  1.0000
  S   S163      1.0  0.03684  0.65222  0.40911  1.0000
  C   C482      1.0  0.06224  0.68088  0.43725  1.0000
  C   C483      1.0  0.04795  0.67401  0.43079  1.0000
  Fe  Fe83      1.0  0.29591  0.48661  0.31421  1.0000
  C   C484      1.0  0.09104  0.50147  0.24555  1.0000
  H   H473      1.0  0.01979  0.67158  0.03466  1.0000
  C   C485      1.0  0.24641  0.66320  0.40106  1.0000
  H   H474      1.0  0.24860  0.67848  0.39523  1.0000
  C   C486      1.0  0.02529  0.57497  0.16260  1.0000
  H   H475      1.0  0.01741  0.68220  0.05628  1.0000
  H   H476      1.0  0.28994  0.59450  0.37567  1.0000
  C   C487      1.0  0.14500  0.52816  0.16296  1.0000
  C   C488      1.0  0.18720  0.48852  0.28431  1.0000
  C   C489      1.0  0.09274  0.51466  0.22716  1.0000
  H   H477      1.0  0.31291  0.49097  0.00348  1.0000
  H   H478      1.0  0.30830  0.59196  0.32167  1.0000
  H   H479      1.0  0.05699  0.69147  0.44730  1.0000
  H   H480      1.0  0.31083  0.55450  0.99039  1.0000
  S   S164      1.0  0.26117  0.51838  0.25459  1.0000
  H   H481      1.0  0.02803  0.69940  0.97932  1.0000
  C   C490      1.0  0.28413  0.49111  0.98423  1.0000
  H   H482      1.0  0.10240  0.73311  0.41988  1.0000
  Fe  Fe84      1.0  0.31492  0.62916  0.39789  1.0000
  H   H483      1.0  0.17036  0.72708  0.30729  1.0000
  C   C491      1.0  0.31591  0.57843  0.33000  1.0000
  C   C492      1.0  0.09030  0.49464  0.09103  1.0000
  H   H484      1.0  0.21079  0.50460  0.28306  1.0000
  H   H485      1.0  0.31573  0.51703  0.18433  1.0000
  N   N39       1.0  0.07281  0.70246  0.36267  1.0000
  C   C493      1.0  0.07081  0.72039  0.34961  1.0000
  C   C494      1.0  0.06138  0.68866  0.36342  1.0000
  C   C495      1.0  0.05782  0.72451  0.33621  1.0000
  S   S165      1.0  0.16943  0.51467  0.16514  1.0000
  H   H486      1.0  0.04500  0.48998  0.24812  1.0000
  C   C496      1.0  0.08676  0.69810  0.37642  1.0000
  S   S166      1.0  0.32401  0.49983  0.30825  1.0000
  H   H487      1.0  0.13739  0.53535  0.19236  1.0000
  Fe  Fe85      1.0  0.00891  0.67630  0.40882  1.0000
  S   S167      1.0  0.01137  0.56322  0.10885  1.0000
  H   H488      1.0  0.27802  0.58562  0.36019  1.0000
  C   C497      1.0  0.11269  0.59759  0.13627  1.0000
  Fe  Fe86      1.0  0.16645  0.49318  0.19430  1.0000
  S   S168      1.0  0.17655  0.73277  0.40233  1.0000
  H   H489      1.0  0.03863  0.68165  0.35127  1.0000
  H   H490      1.0  0.00621  0.54515  0.20542  1.0000
  S   S169      1.0  0.01352  0.70760  0.39619  1.0000
  S   S170      1.0  0.16744  0.49959  0.22380  1.0000
  C   C498      1.0  0.10127  0.61168  0.12368  1.0000
  C   C499      1.0  0.30503  0.54159  0.98969  1.0000
  H   H491      1.0  0.08062  0.64195  0.40232  1.0000
  C   C500      1.0  0.00637  0.51635  0.15520  1.0000
  H   H492      1.0  0.26694  0.58508  0.38650  1.0000
  C   C501      1.0  0.04795  0.69244  0.35046  1.0000
  H   H493      1.0  0.18336  0.73199  0.36213  1.0000
  C   C502      1.0  0.28958  0.54418  0.97931  1.0000
  C   C503      1.0  0.16661  0.52487  0.26676  1.0000
  S   S171      1.0  0.31439  0.59669  0.41052  1.0000
  H   H494      1.0  0.06402  0.51595  0.08306  1.0000
  H   H495      1.0  0.03885  0.58119  0.15526  1.0000
  H   H496      1.0  0.10585  0.65503  0.41280  1.0000
  C   C504      1.0  0.08976  0.66031  0.41790  1.0000
  C   C505      1.0  0.32549  0.57972  0.34498  1.0000
  H   H497      1.0  0.05204  0.49005  0.13132  1.0000
  C   C506      1.0  0.05456  0.66001  0.41815  1.0000
  H   H498      1.0  0.32666  0.52788  0.33313  1.0000
  S   S172      1.0  0.11147  0.49458  0.25792  1.0000
  H   H499      1.0  0.14784  0.52270  0.13348  1.0000
  S   S173      1.0  0.33279  0.63248  0.41905  1.0000
  H   H500      1.0  0.19256  0.53702  0.26695  1.0000
  H   H501      1.0  0.01144  0.63277  0.44405  1.0000
  H   H502      1.0  0.00270  0.70709  0.46307  1.0000
  S   S174      1.0  0.12568  0.72974  0.00421  1.0000
  N   N40       1.0  0.12718  0.60383  0.09516  1.0000
  H   H503      1.0  0.09714  0.70903  0.37246  1.0000
  N   N41       1.0  0.00750  0.70320  0.03188  1.0000
  H   H504      1.0  0.15345  0.68960  0.46976  1.0000
  H   H505      1.0  0.12765  0.62156  0.06583  1.0000
  C   C507      1.0  0.13456  0.60656  0.07346  1.0000
  C   C508      1.0  0.08295  0.50539  0.16650  1.0000
  C   C509      1.0  0.31349  0.52234  0.99841  1.0000
  C   C510      1.0  0.05993  0.51026  0.22392  1.0000
  S   S175      1.0  0.04142  0.51533  0.20938  1.0000
  N   N42       1.0  0.16863  0.48964  0.28007  1.0000
  H   H506      1.0  0.06254  0.67466  0.37413  1.0000
  C   C511      1.0  0.18562  0.52383  0.27094  1.0000
  Fe  Fe87      1.0  0.05796  0.72670  0.04988  1.0000
  C   C512      1.0  0.02980  0.72860  0.98316  1.0000
  C   C513      1.0  0.10879  0.61463  0.10303  1.0000
  S   S176      1.0  0.10067  0.68531  0.43654  1.0000
  H   H507      1.0  0.02504  0.53888  0.14434  1.0000
  N   N43       1.0  0.26296  0.61386  0.36768  1.0000
  C   C514      1.0  0.27250  0.62990  0.35968  1.0000
  C   C515      1.0  0.24219  0.61639  0.37063  1.0000
  C   C516      1.0  0.26112  0.64918  0.35507  1.0000
  C   C517      1.0  0.23034  0.63546  0.36618  1.0000
  C   C518      1.0  0.23990  0.65195  0.35845  1.0000
  H   H508      1.0  0.13387  0.72059  0.35028  1.0000
  H   H509      1.0  0.11485  0.49871  0.16759  1.0000
  H   H510      1.0  0.15456  0.49795  0.07016  1.0000
  H   H511      1.0  0.12324  0.67780  0.46718  1.0000
  H   H512      1.0  0.03748  0.55907  0.18854  1.0000
  H   H513      1.0  0.07104  0.72118  0.42969  1.0000
  H   H514      1.0  0.30887  0.55489  0.44797  1.0000
  Fe  Fe88      1.0  0.32792  0.49567  0.27668  1.0000
  H   H515      1.0  0.05222  0.50844  0.16328  1.0000
  C   C519      1.0  0.00864  0.57899  0.15333  1.0000
  H   H516      1.0  0.31167  0.52541  0.47568  1.0000
  C   C520      1.0  0.32636  0.54234  0.33627  1.0000
  H   H517      1.0  0.04318  0.48998  0.08775  1.0000
  C   C521      1.0  0.32090  0.54186  0.44598  1.0000
  H   H518      1.0  0.28793  0.51274  0.21461  1.0000
  C   C522      1.0  0.11745  0.73312  0.32659  1.0000
  H   H519      1.0  0.13727  0.72855  0.42772  1.0000
  S   S177      1.0  0.33051  0.58615  0.46220  1.0000
  C   C523      1.0  0.32247  0.52533  0.46151  1.0000
  C   C524      1.0  0.07364  0.49282  0.25327  1.0000
  H   H520      1.0  0.07738  0.69957  0.47415  1.0000
  C   C525      1.0  0.17833  0.72739  0.33485  1.0000
  H   H521      1.0  0.09842  0.71487  0.98174  1.0000
  C   C526      1.0  0.16940  0.73594  0.31836  1.0000
  C   C527      1.0  0.04712  0.73164  0.41315  1.0000
  C   C528      1.0  0.12137  0.68808  0.47715  1.0000
  C   C529      1.0  0.30258  0.50251  0.21376  1.0000
  H   H522      1.0  0.03722  0.68704  0.03456  1.0000
  C   C530      1.0  0.00457  0.54142  0.12487  1.0000
  H   H523      1.0  0.32534  0.59419  0.34809  1.0000
  C   C531      1.0  0.02259  0.71590  0.47744  1.0000
  Fe  Fe89      1.0  0.14671  0.50134  0.57013  1.0000
  H   H524      1.0  0.13536  0.53080  0.51350  1.0000
  H   H525      1.0  0.08501  0.71391  0.50819  1.0000
  Fe  Fe90      1.0  0.10707  0.71449  0.79672  1.0000
  H   H526      1.0  0.14929  0.71386  0.49182  1.0000
  H   H527      1.0  0.32553  0.55604  0.49772  1.0000
  C   C532      1.0  0.10034  0.50736  0.56224  1.0000
  H   H528      1.0  0.05611  0.60355  0.77398  1.0000
  H   H529      1.0  0.27823  0.51145  0.89434  1.0000
  C   C533      1.0  0.00197  0.48775  0.70646  1.0000
  C   C534      1.0  0.00604  0.72246  0.96575  1.0000
  C   C535      1.0  0.06851  0.71973  0.71574  1.0000
  S   S178      1.0  0.17026  0.50452  0.63017  1.0000
  H   H530      1.0  0.15782  0.57168  0.54372  1.0000
  H   H531      1.0  0.07992  0.66291  0.76372  1.0000
  C   C536      1.0  0.02401  0.70100  0.83198  1.0000
  C   C537      1.0  0.02943  0.70415  0.90597  1.0000
  C   C538      1.0  0.01199  0.57299  0.65810  1.0000
  C   C539      1.0  0.08451  0.68841  0.48574  1.0000
  S   S179      1.0  0.24506  0.60764  0.89419  1.0000
  C   C540      1.0  0.01199  0.69254  0.84970  1.0000
  H   H532      1.0  0.06366  0.58891  0.79676  1.0000
  S   S180      1.0  0.17295  0.51398  0.57209  1.0000
  H   H533      1.0  0.11869  0.51532  0.67920  1.0000
  C   C541      1.0  0.06019  0.49566  0.71827  1.0000
  S   S181      1.0  0.00276  0.55214  0.61301  1.0000
  C   C542      1.0  0.07768  0.52660  0.60807  1.0000
  H   H534      1.0  0.22479  0.69075  0.85900  1.0000
  C   C543      1.0  0.25533  0.65155  0.91707  1.0000
  S   S182      1.0  0.10035  0.68400  0.79907  1.0000
  S   S183      1.0  0.12153  0.66806  0.74531  1.0000
  Fe  Fe91      1.0  0.09153  0.58089  0.67074  1.0000
  S   S184      1.0  0.10437  0.57792  0.69787  1.0000
  S   S185      1.0  0.10801  0.58585  0.63881  1.0000
  Fe  Fe92      1.0  0.05199  0.56805  0.69434  1.0000
  S   S186      1.0  0.06096  0.56461  0.72358  1.0000
  H   H535      1.0  0.08901  0.50806  0.67045  1.0000
  Fe  Fe93      1.0  0.07272  0.59334  0.71044  1.0000
  S   S187      1.0  0.06427  0.61622  0.73067  1.0000
  Fe  Fe94      1.0  0.09150  0.54967  0.70857  1.0000
  S   S188      1.0  0.06064  0.59830  0.68232  1.0000
  S   S189      1.0  0.08177  0.55128  0.68031  1.0000
  Fe  Fe95      1.0  0.22127  0.71809  0.90011  1.0000
  C   C544      1.0  0.09208  0.50198  0.72189  1.0000
  S   S190      1.0  0.23939  0.69137  0.91709  1.0000
  H   H536      1.0  0.11500  0.72588  0.51119  1.0000
  Fe  Fe96      1.0  0.31206  0.55949  0.88370  1.0000
  C   C545      1.0  0.10007  0.70819  0.50005  1.0000
  Fe  Fe97      1.0  0.28423  0.53887  0.91875  1.0000
  S   S191      1.0  0.27609  0.50957  0.93650  1.0000
  H   H537      1.0  0.14983  0.50784  0.52442  1.0000
  S   S192      1.0  0.27988  0.55524  0.88815  1.0000
  S   S193      1.0  0.27282  0.56630  0.93267  1.0000
  C   C546      1.0  0.10488  0.71932  0.71227  1.0000
  C   C547      1.0  0.15351  0.73340  0.96887  1.0000
  Fe  Fe98      1.0  0.06850  0.70021  0.79738  1.0000
  C   C548      1.0  0.17845  0.71805  0.81373  1.0000
  S   S194      1.0  0.04627  0.72829  0.49660  1.0000
  H   H538      1.0  0.10959  0.72874  0.69747  1.0000
  S   S195      1.0  0.31720  0.54080  0.91311  1.0000
  H   H539      1.0  0.07741  0.70432  0.85614  1.0000
  S   S196      1.0  0.10724  0.51914  0.72150  1.0000
  H   H540      1.0  0.08858  0.67356  0.48117  1.0000
  S   S197      1.0  0.04386  0.68529  0.81879  1.0000
  S   S198      1.0  0.30346  0.58865  0.89450  1.0000
  H   H541      1.0  0.06372  0.56288  0.77501  1.0000
  C   C549      1.0  0.23053  0.67942  0.84916  1.0000
  Fe  Fe99      1.0  0.30558  0.56944  0.92456  1.0000
  H   H542      1.0  0.05926  0.71248  0.84010  1.0000
  C   C550      1.0  0.27179  0.63388  0.85429  1.0000
  H   H543      1.0  0.15827  0.51908  0.49856  1.0000
  C   C551      1.0  0.18652  0.55322  0.53294  1.0000
  H   H544      1.0  0.10840  0.68316  0.70407  1.0000
  H   H545      1.0  0.24373  0.64151  0.84396  1.0000
  C   C552      1.0  0.05490  0.55851  0.60978  1.0000
  H   H546      1.0  0.29814  0.63013  0.86689  1.0000
  S   S199      1.0  0.11921  0.52125  0.55976  1.0000
  C   C553      1.0  0.23996  0.66778  0.91192  1.0000
  C   C554      1.0  0.22567  0.66511  0.90226  1.0000
  C   C555      1.0  0.22694  0.64636  0.89752  1.0000
  C   C556      1.0  0.24266  0.63030  0.90214  1.0000
  C   C557      1.0  0.27988  0.65986  0.86649  1.0000
  H   H547      1.0  0.21361  0.67745  0.89849  1.0000
  H   H548      1.0  0.21590  0.64436  0.89000  1.0000
  H   H549      1.0  0.06558  0.52478  0.71744  1.0000
  H   H550      1.0  0.28953  0.66488  0.87355  1.0000
  H   H551      1.0  0.32509  0.53073  0.58856  1.0000
  C   C558      1.0  0.25402  0.64694  0.84990  1.0000
  C   C559      1.0  0.10610  0.65270  0.74196  1.0000
  C   C560      1.0  0.08593  0.65359  0.75255  1.0000
  C   C561      1.0  0.07337  0.64246  0.74870  1.0000
  C   C562      1.0  0.08088  0.63000  0.73449  1.0000
  C   C563      1.0  0.10119  0.62871  0.72411  1.0000
  C   C564      1.0  0.11375  0.64006  0.72783  1.0000
  H   H552      1.0  0.05770  0.64353  0.75683  1.0000
  H   H553      1.0  0.10715  0.61912  0.71312  1.0000
  H   H554      1.0  0.12936  0.63926  0.71958  1.0000
  C   C565      1.0  0.27695  0.49642  0.90232  1.0000
  H   H555      1.0  0.05296  0.68274  0.89170  1.0000
  C   C566      1.0  0.06468  0.50622  0.56554  1.0000
  H   H556      1.0  0.04175  0.56916  0.60550  1.0000
  S   S200      1.0  0.07370  0.70470  0.76414  1.0000
  H   H557      1.0  0.13740  0.55363  0.53236  1.0000
  H   H558      1.0  0.15806  0.71251  0.79759  1.0000
  H   H559      1.0  0.03677  0.71841  0.71947  1.0000
  H   H560      1.0  0.21808  0.67101  0.85149  1.0000
  C   C567      1.0  0.06925  0.59690  0.78144  1.0000
  N   N44       1.0  0.04640  0.71020  0.87140  1.0000
  H   H561      1.0  0.03294  0.52407  0.67245  1.0000
  H   H562      1.0  0.02415  0.70199  0.48815  1.0000
  C   C568      1.0  0.24117  0.49183  0.56248  1.0000
  C   C569      1.0  0.25675  0.63288  0.91210  1.0000
  C   C570      1.0  0.02042  0.72178  0.82539  1.0000
  C   C571      1.0  0.15385  0.52777  0.63186  1.0000
  C   C572      1.0  0.14395  0.53826  0.61632  1.0000
  C   C573      1.0  0.13078  0.55675  0.61797  1.0000
  C   C574      1.0  0.12671  0.56431  0.63556  1.0000
  C   C575      1.0  0.13636  0.55370  0.65120  1.0000
  C   C576      1.0  0.15028  0.53572  0.64915  1.0000
  H   H563      1.0  0.14637  0.53216  0.60305  1.0000
  H   H564      1.0  0.12319  0.56482  0.60591  1.0000
  H   H565      1.0  0.13337  0.55952  0.66477  1.0000
  H   H566      1.0  0.15819  0.52798  0.66103  1.0000
  S   S201      1.0  0.23712  0.73024  0.86936  1.0000
  C   C577      1.0  0.10258  0.49654  0.67140  1.0000
  H   H567      1.0  0.22650  0.49473  0.57247  1.0000
  N   N45       1.0  0.16327  0.53321  0.52013  1.0000
  H   H568      1.0  0.31566  0.52225  0.87533  1.0000
  H   H569      1.0  0.08058  0.66670  0.70348  1.0000
  H   H570      1.0  0.10225  0.52076  0.62373  1.0000
  C   C578      1.0  0.11933  0.50049  0.67660  1.0000
  H   H571      1.0  0.10718  0.60094  0.76149  1.0000
  H   H572      1.0  0.13046  0.69168  0.97168  1.0000
  C   C579      1.0  0.15929  0.71666  0.81103  1.0000
  H   H573      1.0  0.26883  0.62052  0.91585  1.0000
  C   C580      1.0  0.10508  0.48641  0.56541  1.0000
  C   C581      1.0  0.15389  0.54907  0.52950  1.0000
  Fe  Fe100     1.0  0.01994  0.48722  0.58805  1.0000
  H   H574      1.0  0.02948  0.72836  0.81156  1.0000
  H   H575      1.0  0.09996  0.72896  0.72373  1.0000
  C   C582      1.0  0.32947  0.51687  0.86524  1.0000
  H   H576      1.0  0.04474  0.50131  0.71610  1.0000
  H   H577      1.0  0.24184  0.71950  0.94049  1.0000
  H   H578      1.0  0.25810  0.49442  0.58335  1.0000
  C   C583      1.0  0.28470  0.64037  0.86277  1.0000
  C   C584      1.0  0.08020  0.51726  0.56187  1.0000
  H   H579      1.0  0.19193  0.71495  0.80229  1.0000
  H   H580      1.0  0.07652  0.53347  0.55923  1.0000
  H   H581      1.0  0.04908  0.51391  0.56565  1.0000
  C   C585      1.0  0.13584  0.70742  0.94111  1.0000
  H   H582      1.0  0.08851  0.53884  0.75575  1.0000
  H   H583      1.0  0.27102  0.52950  0.96929  1.0000
  H   H584      1.0  0.23345  0.68748  0.83340  1.0000
  Fe  Fe101     1.0  0.10612  0.69065  0.76553  1.0000
  Fe  Fe102     1.0  0.27148  0.58310  0.90156  1.0000
  C   C586      1.0  0.25907  0.49169  0.56861  1.0000
  C   C587      1.0  0.19592  0.53691  0.52358  1.0000
  H   H585      1.0  0.21231  0.53161  0.52165  1.0000
  C   C588      1.0  0.00657  0.57159  0.64067  1.0000
  H   H586      1.0  0.07293  0.68730  0.49995  1.0000
  H   H587      1.0  0.26634  0.65348  0.92468  1.0000
  H   H588      1.0  0.13203  0.57767  0.74148  1.0000
  N   N46       1.0  0.24924  0.66595  0.85386  1.0000
  H   H589      1.0  0.04454  0.68403  0.71176  1.0000
  H   H590      1.0  0.33201  0.53476  0.94978  1.0000
  C   C589      1.0  0.27031  0.73245  0.90978  1.0000
  C   C590      1.0  0.14173  0.72125  0.82549  1.0000
  C   C591      1.0  0.11723  0.57410  0.74915  1.0000
  C   C592      1.0  0.02148  0.55589  0.66961  1.0000
  C   C593      1.0  0.02003  0.53592  0.64614  1.0000
  N   N47       1.0  0.06539  0.56252  0.62202  1.0000
  C   C594      1.0  0.08206  0.54909  0.62717  1.0000
  S   S202      1.0  0.32034  0.57810  0.94540  1.0000
  S   S203      1.0  0.02420  0.55698  0.69343  1.0000
  C   C595      1.0  0.18398  0.52693  0.51735  1.0000
  S   S204      1.0  0.20391  0.72789  0.83282  1.0000
  C   C596      1.0  0.05922  0.58142  0.62945  1.0000
  H   H591      1.0  0.09044  0.55242  0.63668  1.0000
  C   C597      1.0  0.18014  0.72396  0.83090  1.0000
  C   C598      1.0  0.03215  0.73126  0.47816  1.0000
  C   C599      1.0  0.08864  0.53106  0.62008  1.0000
  C   C600      1.0  0.00485  0.73406  0.83662  1.0000
  H   H592      1.0  0.07113  0.59076  0.62285  1.0000
  H   H593      1.0  0.04450  0.59018  0.62578  1.0000
  H   H594      1.0  0.05725  0.57838  0.64598  1.0000
  N   N48       1.0  0.08829  0.70972  0.71193  1.0000
  C   C601      1.0  0.09271  0.69109  0.70714  1.0000
  C   C602      1.0  0.12472  0.70404  0.96069  1.0000
  C   C603      1.0  0.07705  0.68167  0.70683  1.0000
  C   C604      1.0  0.13624  0.70811  0.49108  1.0000
  C   C605      1.0  0.05680  0.69143  0.71146  1.0000
  H   H595      1.0  0.32400  0.48677  0.87165  1.0000
  C   C606      1.0  0.02202  0.71533  0.97617  1.0000
  C   C607      1.0  0.15113  0.52222  0.51377  1.0000
  H   H596      1.0  0.02308  0.52159  0.64163  1.0000
  C   C608      1.0  0.06200  0.70334  0.85472  1.0000
  H   H597      1.0  0.00721  0.51104  0.71883  1.0000
  H   H598      1.0  0.00823  0.58722  0.66301  1.0000
  C   C609      1.0  0.11203  0.55652  0.74758  1.0000
  H   H599      1.0  0.13004  0.73004  0.85419  1.0000
  H   H600      1.0  0.19559  0.56080  0.53821  1.0000
  S   S205      1.0  0.07456  0.73036  0.79680  1.0000
  H   H601      1.0  0.00615  0.72842  0.91589  1.0000
  C   C610      1.0  0.26207  0.67258  0.86176  1.0000
  H   H602      1.0  0.27501  0.61850  0.85205  1.0000
  H   H603      1.0  0.25820  0.68754  0.86513  1.0000
  S   S206      1.0  0.19123  0.72141  0.89153  1.0000
  H   H604      1.0  0.05176  0.53701  0.59382  1.0000
  H   H605      1.0  0.19138  0.51388  0.51061  1.0000
  C   C611      1.0  0.16536  0.55934  0.53600  1.0000
  C   C612      1.0  0.07209  0.50902  0.71900  1.0000
  H   H606      1.0  0.08252  0.51264  0.60254  1.0000
  H   H607      1.0  0.12276  0.54623  0.73873  1.0000
  C   C613      1.0  0.02582  0.53740  0.66343  1.0000
  H   H608      1.0  0.07584  0.60946  0.78275  1.0000
  S   S207      1.0  0.11621  0.71991  0.76295  1.0000
  C   C614      1.0  0.06060  0.54033  0.60298  1.0000
  C   C615      1.0  0.04387  0.69775  0.88968  1.0000
  H   H609      1.0  0.06501  0.73465  0.71922  1.0000
  C   C616      1.0  0.24233  0.48827  0.54348  1.0000
  N   N49       1.0  0.08418  0.58302  0.76979  1.0000
  C   C617      1.0  0.07887  0.56596  0.76808  1.0000
  C   C618      1.0  0.10307  0.58722  0.76049  1.0000
  C   C619      1.0  0.09277  0.55235  0.75715  1.0000
  C   C620      1.0  0.11692  0.71495  0.50189  1.0000
  C   C621      1.0  0.01016  0.55304  0.63485  1.0000
  H   H610      1.0  0.02721  0.69426  0.92046  1.0000
  H   H611      1.0  0.15031  0.69765  0.93671  1.0000
  S   S208      1.0  0.01788  0.49339  0.61831  1.0000
  N   N50       1.0  0.10248  0.69474  0.48797  1.0000
  H   H612      1.0  0.16280  0.72025  0.97600  1.0000
  C   C622      1.0  0.27534  0.49168  0.92302  1.0000
  C   C623      1.0  0.05246  0.71065  0.71583  1.0000
  S   S209      1.0  0.22022  0.48757  0.53585  1.0000
  H   H613      1.0  0.01480  0.67647  0.85481  1.0000
  Fe  Fe103     1.0  0.17067  0.49408  0.60231  1.0000
  H   H614      1.0  0.06174  0.68764  0.85413  1.0000
  Fe  Fe104     1.0  0.08314  0.73345  0.76346  1.0000
  H   H615      1.0  0.11827  0.70797  0.71629  1.0000
  H   H616      1.0  0.32008  0.51269  0.57710  1.0000
  H   H617      1.0  0.14816  0.50320  0.69274  1.0000
  S   S210      1.0  0.00309  0.51769  0.57668  1.0000
  H   H618      1.0  0.28331  0.55910  0.97212  1.0000
  C   C624      1.0  0.01759  0.72339  0.90344  1.0000
  N   N51       1.0  0.09980  0.73363  0.95292  1.0000
  C   C625      1.0  0.33220  0.51699  0.58220  1.0000
  H   H619      1.0  0.27030  0.71610  0.91289  1.0000
  C   C626      1.0  0.10656  0.71729  0.96633  1.0000
  C   C627      1.0  0.00002  0.50758  0.70834  1.0000
  C   C628      1.0  0.12863  0.72387  0.92740  1.0000
  C   C629      1.0  0.16266  0.72785  0.84564  1.0000
  C   C630      1.0  0.03498  0.72917  0.86887  1.0000
  C   C631      1.0  0.13853  0.69460  0.47859  1.0000
  Fe  Fe105     1.0  0.19255  0.48677  0.56087  1.0000
  H   H620      1.0  0.16584  0.49116  0.67333  1.0000
  C   C632      1.0  0.27817  0.48774  0.55588  1.0000
  S   S211      1.0  0.11696  0.72238  0.82196  1.0000
  C   C633      1.0  0.14356  0.72654  0.84291  1.0000
  C   C634      1.0  0.15274  0.48942  0.68614  1.0000
  H   H621      1.0  0.17418  0.73445  0.94015  1.0000
  S   S212      1.0  0.30034  0.48656  0.56445  1.0000
  H   H622      1.0  0.13753  0.72708  0.91234  1.0000
  H   H623      1.0  0.16378  0.73232  0.85895  1.0000
  H   H624      1.0  0.28639  0.73447  0.90418  1.0000
  C   C635      1.0  0.24622  0.73291  0.94200  1.0000
  H   H625      1.0  0.22437  0.73532  0.96973  1.0000
  C   C636      1.0  0.02029  0.73597  0.88478  1.0000
  Fe  Fe106     1.0  0.20645  0.73603  0.86132  1.0000
  C   C637      1.0  0.28275  0.52740  0.97778  1.0000
  C   C638      1.0  0.00224  0.93533  0.18012  1.0000
  S   S213      1.0  0.06489  0.80154  0.29729  1.0000
  C   C639      1.0  0.33019  0.91222  0.99719  1.0000
  H   H626      1.0  0.25488  0.94616  0.43976  1.0000
  C   C640      1.0  0.06797  0.76244  0.39394  1.0000
  H   H627      1.0  0.31021  0.89528  0.46531  1.0000
  Fe  Fe107     1.0  0.23179  0.95776  0.15717  1.0000
  S   S214      1.0  0.22000  0.93863  0.18641  1.0000
  S   S215      1.0  0.25900  0.94247  0.13709  1.0000
  Fe  Fe108     1.0  0.18888  0.95405  0.18090  1.0000
  S   S216      1.0  0.15967  0.94182  0.18793  1.0000
  Fe  Fe109     1.0  0.21976  0.96497  0.19969  1.0000
  S   S217      1.0  0.23079  0.95924  0.22848  1.0000
  H   H628      1.0  0.03601  0.95738  0.14362  1.0000
  H   H629      1.0  0.14425  0.89842  0.25707  1.0000
  Fe  Fe110     1.0  0.08383  0.88395  0.12654  1.0000
  S   S218      1.0  0.08996  0.88558  0.15583  1.0000
  S   S219      1.0  0.06939  0.91155  0.10756  1.0000
  Fe  Fe111     1.0  0.10242  0.83972  0.12901  1.0000
  S   S220      1.0  0.11029  0.83737  0.15877  1.0000
  S   S221      1.0  0.11119  0.81302  0.11341  1.0000
  Fe  Fe112     1.0  0.07924  0.85626  0.16630  1.0000
  S   S222      1.0  0.05739  0.84942  0.19549  1.0000
  Fe  Fe113     1.0  0.12054  0.86689  0.14589  1.0000
  S   S223      1.0  0.15064  0.87175  0.14972  1.0000
  S   S224      1.0  0.07044  0.85612  0.13780  1.0000
  S   S225      1.0  0.11539  0.86768  0.11539  1.0000
  Fe  Fe114     1.0  0.05423  0.80494  0.32934  1.0000
  S   S226      1.0  0.07394  0.82710  0.32707  1.0000
  S   S227      1.0  0.02286  0.80524  0.34833  1.0000
  S   S228      1.0  0.11160  0.79570  0.30499  1.0000
  Fe  Fe115     1.0  0.09659  0.79973  0.33637  1.0000
  S   S229      1.0  0.11378  0.79509  0.36086  1.0000
  Fe  Fe116     1.0  0.08693  0.82116  0.29582  1.0000
  S   S230      1.0  0.09758  0.84345  0.26836  1.0000
  H   H630      1.0  0.06613  0.78395  0.19627  1.0000
  H   H631      1.0  0.07223  0.76965  0.26475  1.0000
  C   C641      1.0  0.02276  0.95837  0.15641  1.0000
  H   H632      1.0  0.29889  0.89542  0.07009  1.0000
  H   H633      1.0  0.10089  0.78616  0.26285  1.0000
  H   H634      1.0  0.07356  0.83645  0.03637  1.0000
  C   C642      1.0  0.08317  0.84023  0.04448  1.0000
  H   H635      1.0  0.15076  0.76207  0.30428  1.0000
  H   H636      1.0  0.30527  0.90255  0.04336  1.0000
  H   H637      1.0  0.25089  0.91705  0.42404  1.0000
  S   S231      1.0  0.05394  0.81576  0.44071  1.0000
  Fe  Fe117     1.0  0.08868  0.77669  0.30844  1.0000
  H   H638      1.0  0.05656  0.77569  0.23526  1.0000
  C   C643      1.0  0.17300  0.75202  0.43287  1.0000
  H   H639      1.0  0.05137  0.80746  0.20306  1.0000
  C   C644      1.0  0.09251  0.80399  0.21572  1.0000
  C   C645      1.0  0.09801  0.80266  0.38273  1.0000
  C   C646      1.0  0.07816  0.81345  0.38252  1.0000
  C   C647      1.0  0.06499  0.81788  0.40029  1.0000
  C   C648      1.0  0.07140  0.81127  0.41848  1.0000
  C   C649      1.0  0.09138  0.80078  0.41870  1.0000
  C   C650      1.0  0.10471  0.79659  0.40082  1.0000
  H   H640      1.0  0.07281  0.81822  0.36871  1.0000
  H   H641      1.0  0.04975  0.82631  0.39987  1.0000
  H   H642      1.0  0.09665  0.79603  0.43260  1.0000
  H   H643      1.0  0.12008  0.78833  0.40113  1.0000
  C   C651      1.0  0.04318  0.91911  0.11676  1.0000
  C   C652      1.0  0.03213  0.90612  0.13133  1.0000
  C   C653      1.0  0.01134  0.91255  0.13895  1.0000
  C   C654      1.0  0.09486  0.74823  0.41316  1.0000
  C   C655      1.0  0.01260  0.94508  0.11764  1.0000
  C   C656      1.0  0.03332  0.93851  0.10972  1.0000
  H   H644      1.0  0.03954  0.89114  0.13684  1.0000
  H   H645      1.0  0.27125  0.92834  0.40701  1.0000
  Fe  Fe118     1.0  0.33142  0.97929  0.03902  1.0000
  H   H646      1.0  0.04179  0.94860  0.09839  1.0000
  C   C657      1.0  0.06743  0.84961  0.21591  1.0000
  C   C658      1.0  0.05777  0.84189  0.23527  1.0000
  C   C659      1.0  0.06666  0.84042  0.25155  1.0000
  C   C660      1.0  0.08511  0.84682  0.24853  1.0000
  C   C661      1.0  0.09423  0.85535  0.22922  1.0000
  C   C662      1.0  0.08560  0.85647  0.21291  1.0000
  H   H647      1.0  0.04359  0.83674  0.23766  1.0000
  H   H648      1.0  0.05907  0.83457  0.26642  1.0000
  H   H649      1.0  0.10805  0.86101  0.22673  1.0000
  H   H650      1.0  0.09305  0.86259  0.19801  1.0000
  Fe  Fe119     1.0  0.06348  0.79650  0.46854  1.0000
  C   C663      1.0  0.15688  0.92410  0.17513  1.0000
  C   C664      1.0  0.13784  0.91846  0.17886  1.0000
  C   C665      1.0  0.13549  0.90303  0.17041  1.0000
  C   C666      1.0  0.15227  0.89295  0.15837  1.0000
  C   C667      1.0  0.17126  0.89876  0.15447  1.0000
  C   C668      1.0  0.17352  0.91446  0.16260  1.0000
  H   H651      1.0  0.12494  0.92572  0.18870  1.0000
  H   H652      1.0  0.12087  0.89852  0.17372  1.0000
  H   H653      1.0  0.18433  0.89094  0.14525  1.0000
  H   H654      1.0  0.18830  0.91860  0.15971  1.0000
  C   C669      1.0  0.29056  0.90416  0.44389  1.0000
  H   H655      1.0  0.01781  0.82839  0.42477  1.0000
  H   H656      1.0  0.31452  0.95291  0.07931  1.0000
  H   H657      1.0  0.24260  0.95786  0.26497  1.0000
  Fe  Fe120     1.0  0.09326  0.74104  0.01908  1.0000
  C   C670      1.0  0.27200  0.95749  0.11641  1.0000
  C   C671      1.0  0.27603  0.93580  0.18858  1.0000
  C   C672      1.0  0.04938  0.76247  0.38934  1.0000
  C   C673      1.0  0.03772  0.92360  0.16934  1.0000
  C   C674      1.0  0.07150  0.79885  0.07688  1.0000
  C   C675      1.0  0.09062  0.78686  0.07846  1.0000
  C   C676      1.0  0.10229  0.79090  0.09033  1.0000
  C   C677      1.0  0.09496  0.80691  0.10074  1.0000
  C   C678      1.0  0.07552  0.81841  0.09975  1.0000
  C   C679      1.0  0.06388  0.81439  0.08786  1.0000
  H   H658      1.0  0.09667  0.77486  0.07007  1.0000
  H   H659      1.0  0.11729  0.78189  0.09106  1.0000
  H   H660      1.0  0.06962  0.83064  0.10780  1.0000
  H   H661      1.0  0.04906  0.82366  0.08679  1.0000
  C   C680      1.0  0.14001  0.87108  0.25090  1.0000
  H   H662      1.0  0.02441  0.96858  0.16555  1.0000
  H   H663      1.0  0.16422  0.90866  0.22281  1.0000
  S   S232      1.0  0.07610  0.77805  0.34054  1.0000
  S   S233      1.0  0.07530  0.77207  0.01131  1.0000
  H   H664      1.0  0.12873  0.82298  0.05869  1.0000
  H   H665      1.0  0.04300  0.77459  0.37850  1.0000
  H   H666      1.0  0.27478  0.90161  0.41511  1.0000
  H   H667      1.0  0.29688  0.93308  0.10996  1.0000
  C   C681      1.0  0.26767  0.91618  0.41997  1.0000
  S   S234      1.0  0.08392  0.73955  0.05236  1.0000
  C   C682      1.0  0.26685  0.93483  0.44548  1.0000
  H   H668      1.0  0.24967  0.98466  0.11895  1.0000
  C   C683      1.0  0.16207  0.88251  0.21275  1.0000
  H   H669      1.0  0.18798  0.75524  0.42554  1.0000
  S   S235      1.0  0.27383  0.94729  0.33302  1.0000
  C   C684      1.0  0.07802  0.77929  0.25096  1.0000
  C   C685      1.0  0.13430  0.74375  0.45190  1.0000
  H   H670      1.0  0.29740  0.89115  0.43701  1.0000
  Fe  Fe121     1.0  0.05023  0.75621  0.01205  1.0000
  H   H671      1.0  0.12213  0.96745  0.17238  1.0000
  C   C686      1.0  0.10145  0.80103  0.23221  1.0000
  H   H672      1.0  0.15930  0.83727  0.20804  1.0000
  S   S236      1.0  0.03064  0.76627  0.98866  1.0000
  C   C687      1.0  0.23575  0.97824  0.23827  1.0000
  C   C688      1.0  0.02191  0.74917  0.97945  1.0000
  C   C689      1.0  0.13468  0.74181  0.97972  1.0000
  C   C690      1.0  0.26086  0.94764  0.07528  1.0000
  H   H673      1.0  0.17760  0.76666  0.36879  1.0000
  C   C691      1.0  0.01713  0.90113  0.19248  1.0000
  H   H674      1.0  0.06853  0.88819  0.07099  1.0000
  H   H675      1.0  0.02441  0.74682  0.39574  1.0000
  H   H676      1.0  0.27216  0.96364  0.21016  1.0000
  H   H677      1.0  0.32026  0.94409  0.98887  1.0000
  H   H678      1.0  0.15889  0.78581  0.35805  1.0000
  H   H679      1.0  0.07047  0.86934  0.09322  1.0000
  C   C692      1.0  0.06931  0.78271  0.23424  1.0000
  C   C693      1.0  0.16321  0.76939  0.36333  1.0000
  S   S237      1.0  0.03718  0.75658  0.04453  1.0000
  H   H680      1.0  0.06046  0.86437  0.05502  1.0000
  C   C694      1.0  0.01463  0.78356  0.34769  1.0000
  H   H681      1.0  0.00022  0.77903  0.37886  1.0000
  H   H682      1.0  0.10791  0.81577  0.03795  1.0000
  H   H683      1.0  0.13096  0.86657  0.26566  1.0000
  C   C695      1.0  0.00782  0.73704  0.44991  1.0000
  N   N52       1.0  0.27522  0.91832  0.43689  1.0000
  S   S238      1.0  0.20063  0.97105  0.15049  1.0000
  H   H684      1.0  0.24886  0.94969  0.08839  1.0000
  H   H685      1.0  0.14751  0.78151  0.33048  1.0000
  H   H686      1.0  0.01893  0.79562  0.45638  1.0000
  H   H687      1.0  0.31929  0.90911  0.05849  1.0000
  H   H688      1.0  0.00906  0.96509  0.14979  1.0000
  H   H689      1.0  0.26366  0.93518  0.20225  1.0000
  C   C696      1.0  0.00506  0.82308  0.40205  1.0000
  N   N53       1.0  0.28969  0.92667  0.05828  1.0000
  H   H690      1.0  0.04936  0.89274  0.18151  1.0000
  C   C697      1.0  0.10247  0.82854  0.04541  1.0000
  S   S239      1.0  0.18756  0.97851  0.19720  1.0000
  H   H691      1.0  0.01729  0.76553  0.43905  1.0000
  H   H692      1.0  0.31795  0.95215  0.30910  1.0000
  N   N54       1.0  0.02084  0.93856  0.16875  1.0000
  H   H693      1.0  0.11193  0.74746  0.33118  1.0000
  H   H694      1.0  0.30524  0.94044  0.03009  1.0000
  S   S240      1.0  0.32003  0.89058  0.39836  1.0000
  C   C698      1.0  0.27403  0.92910  0.07444  1.0000
  H   H695      1.0  0.29008  0.92539  0.19213  1.0000
  H   H696      1.0  0.00290  0.90247  0.15033  1.0000
  C   C699      1.0  0.03609  0.90470  0.18122  1.0000
  C   C700      1.0  0.16320  0.75815  0.45104  1.0000
  Fe  Fe122     1.0  0.27199  0.98056  0.32596  1.0000
  H   H697      1.0  0.05246  0.92604  0.16021  1.0000
  C   C701      1.0  0.07903  0.87562  0.07834  1.0000
  H   H698      1.0  0.07607  0.77445  0.38625  1.0000
  H   H699      1.0  0.31564  0.93383  0.38376  1.0000
  H   H700      1.0  0.09794  0.81409  0.20218  1.0000
  S   S241      1.0  0.05767  0.79650  0.05976  1.0000
  C   C702      1.0  0.28001  0.96120  0.04326  1.0000
  C   C703      1.0  0.00792  0.82010  0.42160  1.0000
  C   C704      1.0  0.09418  0.78853  0.24989  1.0000
  C   C705      1.0  0.29775  0.90628  0.46002  1.0000
  H   H701      1.0  0.14259  0.85796  0.19575  1.0000
  C   C706      1.0  0.14737  0.88895  0.24605  1.0000
  C   C707      1.0  0.15666  0.85363  0.20199  1.0000
  N   N55       1.0  0.28005  0.95620  0.18114  1.0000
  N   N56       1.0  0.15458  0.86517  0.21752  1.0000
  C   C708      1.0  0.30389  0.90745  0.05764  1.0000
  H   H702      1.0  0.11358  0.80877  0.23144  1.0000
  N   N57       1.0  0.07668  0.79482  0.21688  1.0000
  C   C709      1.0  0.06700  0.79837  0.19974  1.0000
  C   C710      1.0  0.14379  0.75417  0.46051  1.0000
  H   H703      1.0  0.29659  0.95640  0.35870  1.0000
  C   C711      1.0  0.10630  0.84833  0.06757  1.0000
  H   H704      1.0  0.00520  0.96016  0.11237  1.0000
  H   H705      1.0  0.01274  0.83344  0.39014  1.0000
  S   S242      1.0  0.09661  0.74851  0.29627  1.0000
  C   C712      1.0  0.15648  0.76641  0.33163  1.0000
  H   H706      1.0  0.15102  0.76472  0.37613  1.0000
  C   C713      1.0  0.31819  0.95557  0.46862  1.0000
  C   C714      1.0  0.01941  0.77592  0.33006  1.0000
  C   C715      1.0  0.29049  0.94872  0.10533  1.0000
  H   H707      1.0  0.16967  0.85661  0.18935  1.0000
  C   C716      1.0  0.16371  0.74126  0.42450  1.0000
  H   H708      1.0  0.09128  0.88220  0.08056  1.0000
  H   H709      1.0  0.13779  0.84557  0.24025  1.0000
  H   H710      1.0  0.10836  0.76553  0.97873  1.0000
  N   N58       1.0  0.08745  0.85988  0.06637  1.0000
  H   H711      1.0  0.24613  0.97431  0.40845  1.0000
  Fe  Fe123     1.0  0.06406  0.76961  0.04457  1.0000
  S   S243      1.0  0.08064  0.76539  0.46643  1.0000
  S   S244      1.0  0.24255  0.98584  0.44591  1.0000
  C   C717      1.0  0.15857  0.89468  0.22688  1.0000
  H   H712      1.0  0.02771  0.78374  0.31649  1.0000
  C   C718      1.0  0.29643  0.94054  0.36217  1.0000
  H   H713      1.0  0.27795  0.90579  0.34882  1.0000
  H   H714      1.0  0.17062  0.88716  0.19786  1.0000
  C   C719      1.0  0.26401  0.96381  0.05963  1.0000
  C   C720      1.0  0.03899  0.74687  0.39894  1.0000
  H   H715      1.0  0.27190  0.91686  0.08703  1.0000
  H   H716      1.0  0.29635  0.88345  0.37412  1.0000
  H   H717      1.0  0.10585  0.75397  0.39969  1.0000
  C   C721      1.0  0.27731  0.96871  0.19426  1.0000
  C   C722      1.0  0.28601  0.93256  0.35210  1.0000
  C   C723      1.0  0.28600  0.91200  0.35655  1.0000
  H   H718      1.0  0.09166  0.75830  0.42407  1.0000
  C   C724      1.0  0.01820  0.75193  0.45009  1.0000
  C   C725      1.0  0.14389  0.85925  0.23640  1.0000
  H   H719      1.0  0.11507  0.85071  0.07733  1.0000
  H   H720      1.0  0.01572  0.88638  0.20143  1.0000
  C   C726      1.0  0.00219  0.74819  0.34744  1.0000
  C   C727      1.0  0.30053  0.95994  0.08793  1.0000
  H   H721      1.0  0.03808  0.76074  0.46425  1.0000
  H   H722      1.0  0.28294  0.97386  0.03133  1.0000
  C   C728      1.0  0.07580  0.85587  0.05520  1.0000
  C   C729      1.0  0.29648  0.89935  0.37080  1.0000
  C   C730      1.0  0.30732  0.92773  0.37625  1.0000
  C   C731      1.0  0.11416  0.83260  0.05700  1.0000
  H   H723      1.0  0.07558  0.80685  0.18606  1.0000
  N   N59       1.0  0.16569  0.75806  0.34754  1.0000
  H   H724      1.0  0.17062  0.76613  0.45766  1.0000
  H   H725      1.0  0.01633  0.75269  0.31616  1.0000
  C   C732      1.0  0.29272  0.94238  0.04278  1.0000
  C   C733      1.0  0.32023  0.92949  0.98625  1.0000
  H   H726      1.0  0.31462  0.95173  0.45608  1.0000
  C   C734      1.0  0.24148  0.97316  0.25685  1.0000
  C   C735      1.0  0.30734  0.90710  0.38049  1.0000
  N   N60       1.0  0.07579  0.74750  0.40798  1.0000
  C   C736      1.0  0.14440  0.73701  0.43407  1.0000
  H   H727      1.0  0.11954  0.74020  0.45934  1.0000
  C   C737      1.0  0.01289  0.75841  0.32986  1.0000
  H   H728      1.0  0.29782  0.98430  0.46637  1.0000
  S   S245      1.0  0.32830  0.97281  0.01024  1.0000
  C   C738      1.0  0.03030  0.74908  0.46415  1.0000
  C   C739      1.0  0.17638  0.73876  0.34935  1.0000
  H   H729      1.0  0.27080  0.93057  0.17730  1.0000
  C   C740      1.0  0.28729  0.96235  0.16118  1.0000
  C   C741      1.0  0.15833  0.75555  0.31673  1.0000
  H   H730      1.0  0.32886  0.91835  0.32847  1.0000
  H   H731      1.0  0.05656  0.73861  0.32563  1.0000
  C   C742      1.0  0.00162  0.93215  0.13241  1.0000
  H   H732      1.0  0.25011  0.98362  0.27948  1.0000
  C   C743      1.0  0.00280  0.80323  0.45657  1.0000
  C   C744      1.0  0.26391  0.97775  0.11044  1.0000
  H   H733      1.0  0.25455  0.97852  0.06050  1.0000
  C   C745      1.0  0.30875  0.97404  0.47441  1.0000
  C   C746      1.0  0.00370  0.77346  0.36514  1.0000
  C   C747      1.0  0.32973  0.94970  0.31761  1.0000
  H   H734      1.0  0.29009  0.95224  0.15085  1.0000
  C   C748      1.0  0.32998  0.89337  0.99354  1.0000
  H   H735      1.0  0.15576  0.97198  0.15092  1.0000
  C   C749      1.0  0.29218  0.98004  0.08156  1.0000
  C   C750      1.0  0.27356  0.93735  0.46173  1.0000
  C   C751      1.0  0.12392  0.98189  0.16288  1.0000
  S   S246      1.0  0.23353  0.98306  0.17083  1.0000
  C   C752      1.0  0.28900  0.92286  0.46911  1.0000
  H   H736      1.0  0.26693  0.95058  0.46838  1.0000
  C   C753      1.0  0.32040  0.89181  0.97866  1.0000
  C   C754      1.0  0.29090  0.98187  0.15374  1.0000
  C   C755      1.0  0.14288  0.98444  0.15081  1.0000
  C   C756      1.0  0.00005  0.91654  0.19197  1.0000
  H   H737      1.0  0.00050  0.81769  0.46157  1.0000
  H   H738      1.0  0.00684  0.91078  0.66942  1.0000
  H   H739      1.0  0.08475  0.82047  0.52319  1.0000
  H   H740      1.0  0.18571  0.77099  0.82698  1.0000
  H   H741      1.0  0.03735  0.85212  0.70537  1.0000
  S   S247      1.0  0.06999  0.76057  0.74249  1.0000
  H   H742      1.0  0.11970  0.77978  0.94301  1.0000
  S   S248      1.0  0.29892  0.90800  0.94833  1.0000
  C   C757      1.0  0.08061  0.82210  0.53866  1.0000
  H   H743      1.0  0.29237  0.94739  0.87478  1.0000
  C   C758      1.0  0.25744  0.96648  0.73117  1.0000
  S   S249      1.0  0.32779  0.88169  0.85949  1.0000
  S   S250      1.0  0.19848  0.76727  0.86773  1.0000
  H   H744      1.0  0.01004  0.97017  0.62074  1.0000
  Fe  Fe124     1.0  0.22769  0.76014  0.87900  1.0000
  S   S251      1.0  0.25262  0.77857  0.87159  1.0000
  Fe  Fe125     1.0  0.05843  0.75611  0.49430  1.0000
  Fe  Fe126     1.0  0.09857  0.84951  0.60661  1.0000
  S   S252      1.0  0.08142  0.83464  0.63598  1.0000
  S   S253      1.0  0.10415  0.84274  0.57546  1.0000
  Fe  Fe127     1.0  0.11261  0.87753  0.62594  1.0000
  S   S254      1.0  0.09697  0.86488  0.65648  1.0000
  S   S255      1.0  0.12756  0.90465  0.61919  1.0000
  Fe  Fe128     1.0  0.10871  0.83472  0.64791  1.0000
  S   S256      1.0  0.12393  0.80956  0.66925  1.0000
  Fe  Fe129     1.0  0.07099  0.86601  0.64234  1.0000
  S   S257      1.0  0.04068  0.87910  0.65988  1.0000
  S   S258      1.0  0.12687  0.84726  0.61813  1.0000
  S   S259      1.0  0.08575  0.88088  0.61213  1.0000
  C   C759      1.0  0.26115  0.91192  0.86746  1.0000
  C   C760      1.0  0.13550  0.91155  0.63814  1.0000
  C   C761      1.0  0.13663  0.89870  0.65652  1.0000
  C   C762      1.0  0.14501  0.90389  0.67045  1.0000
  C   C763      1.0  0.15242  0.92184  0.66603  1.0000
  C   C764      1.0  0.15065  0.93493  0.64791  1.0000
  C   C765      1.0  0.14216  0.92984  0.63406  1.0000
  H   H745      1.0  0.13170  0.88449  0.65973  1.0000
  H   H746      1.0  0.14638  0.89369  0.68443  1.0000
  C   C766      1.0  0.17085  0.76760  0.79775  1.0000
  C   C767      1.0  0.06376  0.81472  0.55127  1.0000
  C   C768      1.0  0.08739  0.83329  0.56631  1.0000
  C   C769      1.0  0.02165  0.96793  0.62990  1.0000
  C   C770      1.0  0.05843  0.81718  0.57129  1.0000
  C   C771      1.0  0.07021  0.82641  0.57881  1.0000
  H   H747      1.0  0.13323  0.75979  0.77881  1.0000
  H   H748      1.0  0.04532  0.81164  0.58109  1.0000
  H   H749      1.0  0.06618  0.82791  0.59433  1.0000
  N   N61       1.0  0.04100  0.95560  0.62177  1.0000
  C   C772      1.0  0.02572  0.89722  0.64485  1.0000
  C   C773      1.0  0.02948  0.89780  0.62429  1.0000
  C   C774      1.0  0.01759  0.91247  0.61240  1.0000
  H   H750      1.0  0.09243  0.92356  0.60057  1.0000
  H   H751      1.0  0.04128  0.88668  0.61760  1.0000
  H   H752      1.0  0.02053  0.91277  0.59651  1.0000
  S   S260      1.0  0.15389  0.76651  0.91328  1.0000
  C   C775      1.0  0.26067  0.81737  0.91245  1.0000
  C   C776      1.0  0.24234  0.81038  0.91599  1.0000
  C   C777      1.0  0.23963  0.79845  0.90364  1.0000
  C   C778      1.0  0.25514  0.79369  0.88742  1.0000
  C   C779      1.0  0.27336  0.80092  0.88372  1.0000
  C   C780      1.0  0.27618  0.81259  0.89624  1.0000
  H   H753      1.0  0.23021  0.81409  0.92843  1.0000
  H   H754      1.0  0.22549  0.79307  0.90661  1.0000
  H   H755      1.0  0.28544  0.79729  0.87120  1.0000
  H   H756      1.0  0.27137  0.97431  0.75188  1.0000
  C   C781      1.0  0.08543  0.77326  0.72174  1.0000
  C   C782      1.0  0.07615  0.78706  0.70710  1.0000
  C   C783      1.0  0.08789  0.79784  0.69061  1.0000
  C   C784      1.0  0.10898  0.79509  0.68881  1.0000
  C   C785      1.0  0.11830  0.78108  0.70329  1.0000
  C   C786      1.0  0.10658  0.77014  0.71969  1.0000
  H   H757      1.0  0.05979  0.78939  0.70853  1.0000
  H   H758      1.0  0.08063  0.80840  0.67938  1.0000
  H   H759      1.0  0.13463  0.77887  0.70194  1.0000
  H   H760      1.0  0.11388  0.75961  0.73091  1.0000
  H   H761      1.0  0.17082  0.75803  0.77075  1.0000
  C   C787      1.0  0.07535  0.93916  0.62434  1.0000
  S   S261      1.0  0.28960  0.97340  0.83730  1.0000
  C   C788      1.0  0.13865  0.77451  0.81952  1.0000
  C   C789      1.0  0.05662  0.95073  0.63182  1.0000
  H   H762      1.0  0.20583  0.90183  0.65647  1.0000
  N   N62       1.0  0.31391  0.97664  0.71614  1.0000
  H   H763      1.0  0.26374  0.92697  0.86051  1.0000
  S   S262      1.0  0.18569  0.97256  0.69161  1.0000
  H   H764      1.0  0.29169  0.86338  0.84487  1.0000
  C   C790      1.0  0.09235  0.83133  0.54617  1.0000
  C   C791      1.0  0.00995  0.91132  0.65348  1.0000
  H   H765      1.0  0.00030  0.77228  0.96542  1.0000
  N   N63       1.0  0.11643  0.78765  0.57044  1.0000
  C   C792      1.0  0.13067  0.79246  0.55353  1.0000
  C   C793      1.0  0.10118  0.77852  0.56981  1.0000
  C   C794      1.0  0.12975  0.78825  0.53534  1.0000
  C   C795      1.0  0.09981  0.77410  0.55189  1.0000
  C   C796      1.0  0.11419  0.77904  0.53456  1.0000
  C   C797      1.0  0.11773  0.79169  0.58954  1.0000
  C   C798      1.0  0.16919  0.77786  0.82925  1.0000
  H   H766      1.0  0.08955  0.77522  0.58305  1.0000
  H   H767      1.0  0.11705  0.84540  0.70941  1.0000
  C   C799      1.0  0.00642  0.75637  0.96841  1.0000
  H   H768      1.0  0.14252  0.80005  0.55392  1.0000
  H   H769      1.0  0.29638  0.85320  0.86957  1.0000
  H   H770      1.0  0.08129  0.76303  0.95060  1.0000
  C   C800      1.0  0.06191  0.93741  0.59647  1.0000
  H   H771      1.0  0.11264  0.77014  0.81029  1.0000
  Fe  Fe130     1.0  0.18510  0.75225  0.89863  1.0000
  C   C801      1.0  0.31373  0.97926  0.49036  1.0000
  C   C802      1.0  0.33155  0.94181  0.47964  1.0000
  H   H772      1.0  0.16755  0.79435  0.82732  1.0000
  Fe  Fe131     1.0  0.06094  0.79036  0.51343  1.0000
  C   C803      1.0  0.00207  0.92678  0.62095  1.0000
  H   H773      1.0  0.28527  0.89791  0.84639  1.0000
  S   S263      1.0  0.07759  0.75843  0.51478  1.0000
  S   S264      1.0  0.16456  0.92700  0.68304  1.0000
  S   S265      1.0  0.26352  0.83196  0.92864  1.0000
  H   H774      1.0  0.10556  0.83671  0.53637  1.0000
  C   C804      1.0  0.31277  0.93759  0.82802  1.0000
  C   C805      1.0  0.32134  0.91719  0.83315  1.0000
  H   H775      1.0  0.31402  0.94480  0.81250  1.0000
  H   H776      1.0  0.14122  0.93990  0.61992  1.0000
  C   C806      1.0  0.31033  0.92791  0.97165  1.0000
  C   C807      1.0  0.30209  0.94843  0.84304  1.0000
  H   H777      1.0  0.12756  0.80288  0.58735  1.0000
  H   H778      1.0  0.29312  0.96323  0.55881  1.0000
  C   C808      1.0  0.15998  0.74144  0.94860  1.0000
  H   H779      1.0  0.10534  0.74999  0.92300  1.0000
  C   C809      1.0  0.23626  0.74180  0.95858  1.0000
  C   C810      1.0  0.30054  0.93903  0.86311  1.0000
  S   S266      1.0  0.04976  0.80132  0.54292  1.0000
  H   H780      1.0  0.29039  0.81777  0.89340  1.0000
  H   H781      1.0  0.26355  0.95061  0.73477  1.0000
  H   H782      1.0  0.19016  0.87480  0.65254  1.0000
  H   H783      1.0  0.05614  0.84035  0.68676  1.0000
  C   C811      1.0  0.28420  0.85913  0.86078  1.0000
  N   N64       1.0  0.19260  0.92272  0.61194  1.0000
  C   C812      1.0  0.20083  0.92041  0.62828  1.0000
  C   C813      1.0  0.18433  0.90775  0.60944  1.0000
  C   C814      1.0  0.20016  0.90313  0.64308  1.0000
  C   C815      1.0  0.18352  0.89020  0.62388  1.0000
  C   C816      1.0  0.19136  0.88799  0.64088  1.0000
  C   C817      1.0  0.19317  0.94118  0.59688  1.0000
  H   H784      1.0  0.20753  0.93219  0.63016  1.0000
  H   H785      1.0  0.17756  0.90960  0.59663  1.0000
  S   S267      1.0  0.03967  0.78693  0.49527  1.0000
  H   H786      1.0  0.17609  0.87880  0.62226  1.0000
  C   C818      1.0  0.31061  0.90911  0.96759  1.0000
  H   H787      1.0  0.18157  0.94369  0.58766  1.0000
  H   H788      1.0  0.18987  0.95443  0.60416  1.0000
  H   H789      1.0  0.20857  0.94045  0.58699  1.0000
  N   N65       1.0  0.27043  0.87637  0.86842  1.0000
  H   H790      1.0  0.28448  0.97505  0.53615  1.0000
  C   C819      1.0  0.25561  0.87321  0.88524  1.0000
  H   H791      1.0  0.30788  0.91164  0.88376  1.0000
  C   C820      1.0  0.24324  0.88936  0.89366  1.0000
  H   H792      1.0  0.08779  0.93521  0.63228  1.0000
  H   H793      1.0  0.25359  0.85811  0.89253  1.0000
  C   C821      1.0  0.04346  0.94914  0.60427  1.0000
  H   H794      1.0  0.23189  0.88667  0.90731  1.0000
  H   H795      1.0  0.09029  0.82744  0.70948  1.0000
  H   H796      1.0  0.27578  0.84706  0.86189  1.0000
  N   N66       1.0  0.15938  0.77304  0.81523  1.0000
  C   C822      1.0  0.23429  0.97217  0.56905  1.0000
  H   H797      1.0  0.04971  0.88291  0.69674  1.0000
  S   S268      1.0  0.32113  0.83722  0.90383  1.0000
  C   C823      1.0  0.24534  0.97350  0.71667  1.0000
  H   H798      1.0  0.24640  0.95938  0.56665  1.0000
  H   H799      1.0  0.31442  0.95424  0.74221  1.0000
  S   S269      1.0  0.08306  0.80282  0.48665  1.0000
  H   H800      1.0  0.16230  0.77175  0.84493  1.0000
  C   C824      1.0  0.31937  0.90770  0.85326  1.0000
  C   C825      1.0  0.07798  0.93257  0.60650  1.0000
  H   H801      1.0  0.12397  0.77765  0.59904  1.0000
  C   C826      1.0  0.14053  0.76408  0.78871  1.0000
  C   C827      1.0  0.16162  0.76302  0.78425  1.0000
  S   S270      1.0  0.23506  0.95920  0.60865  1.0000
  S   S271      1.0  0.24169  0.95633  0.70363  1.0000
  H   H802      1.0  0.08714  0.76772  0.55130  1.0000
  C   C828      1.0  0.24611  0.90883  0.88472  1.0000
  C   C829      1.0  0.12921  0.76689  0.95022  1.0000
  H   H803      1.0  0.30218  0.95848  0.70291  1.0000
  H   H804      1.0  0.03105  0.95278  0.59637  1.0000
  H   H805      1.0  0.10240  0.79827  0.59752  1.0000
  Fe  Fe132     1.0  0.29111  0.84649  0.92388  1.0000
  C   C830      1.0  0.30927  0.91875  0.86822  1.0000
  S   S272      1.0  0.21358  0.74758  0.91038  1.0000
  C   C831      1.0  0.25654  0.76759  0.94582  1.0000
  H   H806      1.0  0.11300  0.77622  0.52044  1.0000
  H   H807      1.0  0.07594  0.90148  0.69715  1.0000
  C   C832      1.0  0.27329  0.89541  0.85951  1.0000
  H   H808      1.0  0.23692  0.92147  0.89129  1.0000
  N   N67       1.0  0.06825  0.85410  0.70369  1.0000
  C   C833      1.0  0.06424  0.87462  0.70018  1.0000
  C   C834      1.0  0.08691  0.84367  0.70714  1.0000
  C   C835      1.0  0.07906  0.88522  0.70028  1.0000
  C   C836      1.0  0.10213  0.85378  0.70720  1.0000
  C   C837      1.0  0.09814  0.87470  0.70376  1.0000
  H   H809      1.0  0.12959  0.77862  0.83346  1.0000
  H   H810      1.0  0.03682  0.73902  0.85437  1.0000
  S   S273      1.0  0.13207  0.76138  0.48360  1.0000
  H   H811      1.0  0.23375  0.76644  0.97313  1.0000
  C   C838      1.0  0.24150  0.75925  0.96047  1.0000
  H   H812      1.0  0.15595  0.94893  0.64448  1.0000
  H   H813      1.0  0.01066  0.75072  0.88249  1.0000
  S   S274      1.0  0.21817  0.94056  0.66608  1.0000
  H   H814      1.0  0.27716  0.76544  0.91764  1.0000
  Fe  Fe133     1.0  0.18418  0.95091  0.67300  1.0000
  C   C839      1.0  0.12274  0.75881  0.97046  1.0000
  H   H815      1.0  0.18733  0.76610  0.79450  1.0000
  Fe  Fe134     1.0  0.30592  0.88054  0.93414  1.0000
  C   C840      1.0  0.05310  0.84326  0.70219  1.0000
  S   S275      1.0  0.28896  0.87940  0.91107  1.0000
  H   H816      1.0  0.05360  0.82875  0.71293  1.0000
  H   H817      1.0  0.30271  0.94135  0.96320  1.0000
  S   S276      1.0  0.18363  0.97388  0.64483  1.0000
  C   C841      1.0  0.26600  0.75845  0.92931  1.0000
  Fe  Fe135     1.0  0.21764  0.96507  0.63904  1.0000
  C   C842      1.0  0.29014  0.97783  0.54853  1.0000
  H   H818      1.0  0.26053  0.78135  0.94697  1.0000
  H   H819      1.0  0.06368  0.93194  0.58283  1.0000
  S   S277      1.0  0.30513  0.84846  0.94893  1.0000
  H   H820      1.0  0.01520  0.96052  0.64522  1.0000
  C   C843      1.0  0.30276  0.97357  0.70395  1.0000
  C   C844      1.0  0.32780  0.96589  0.50073  1.0000
  C   C845      1.0  0.14763  0.75798  0.93918  1.0000
  Fe  Fe136     1.0  0.21983  0.96412  0.68231  1.0000
  H   H821      1.0  0.33179  0.96989  0.51298  1.0000
  Fe  Fe137     1.0  0.09818  0.77062  0.48681  1.0000
  C   C846      1.0  0.12894  0.76996  0.80640  1.0000
  H   H822      1.0  0.00208  0.75014  0.83151  1.0000
  H   H823      1.0  0.10992  0.88276  0.70339  1.0000
  H   H824      1.0  0.14074  0.79244  0.52181  1.0000
  H   H825      1.0  0.23471  0.98294  0.53775  1.0000
  C   C847      1.0  0.22776  0.98558  0.55263  1.0000
  C   C848      1.0  0.08088  0.74754  0.95919  1.0000
  H   H826      1.0  0.26169  0.73985  0.89780  1.0000
  H   H827      1.0  0.32914  0.90868  0.82153  1.0000
  C   C849      1.0  0.26191  0.97986  0.74088  1.0000
  C   C850      1.0  0.22548  0.97546  0.58849  1.0000
  H   H828      1.0  0.33130  0.94686  0.71983  1.0000
  H   H829      1.0  0.27716  0.97646  0.58806  1.0000
  H   H830      1.0  0.02401  0.98298  0.63040  1.0000
  N   N68       1.0  0.26091  0.74124  0.92766  1.0000
  H   H831      1.0  0.32047  0.87724  0.97583  1.0000
  H   H832      1.0  0.07861  0.74853  0.97514  1.0000
  C   C851      1.0  0.32494  0.95941  0.72812  1.0000
  S   S278      1.0  0.30307  0.98069  0.77601  1.0000
  H   H833      1.0  0.30471  0.98332  0.54204  1.0000
  H   H834      1.0  0.06755  0.74254  0.95714  1.0000
  H   H835      1.0  0.05464  0.95581  0.64571  1.0000
  Fe  Fe138     1.0  0.31989  0.87022  0.89257  1.0000
  H   H836      1.0  0.29450  0.92464  0.48162  1.0000
  C   C852      1.0  0.11041  0.73685  0.93357  1.0000
  H   H837      1.0  0.60464  0.12977  0.17962  1.0000
  S   S279      1.0  0.59355  0.19613  0.29546  1.0000
  Fe  Fe139     1.0  0.60227  0.18990  0.26431  1.0000
  S   S280      1.0  0.60467  0.15836  0.25941  1.0000
  Fe  Fe140     1.0  0.56412  0.06047  0.20429  1.0000
  S   S281      1.0  0.54347  0.08783  0.19144  1.0000
  S   S282      1.0  0.55048  0.03462  0.22383  1.0000
  Fe  Fe141     1.0  0.60236  0.07482  0.17989  1.0000
  S   S283      1.0  0.58499  0.10303  0.16471  1.0000
  Fe  Fe142     1.0  0.56580  0.10481  0.19540  1.0000
  S   S284      1.0  0.55719  0.13547  0.20414  1.0000
  Fe  Fe143     1.0  0.56468  0.08334  0.16232  1.0000
  S   S285      1.0  0.55527  0.08382  0.13377  1.0000
  S   S286      1.0  0.58463  0.07763  0.21084  1.0000
  S   S287      1.0  0.58385  0.05494  0.17490  1.0000
  Fe  Fe144     1.0  0.47083  0.21016  0.44539  1.0000
  C   C853      1.0  0.51932  0.23444  0.33552  1.0000
  C   C854      1.0  0.56049  0.99411  0.22629  1.0000
  Fe  Fe145     1.0  0.44398  0.19073  0.42925  1.0000
  S   S288      1.0  0.45123  0.20850  0.39828  1.0000
  S   S289      1.0  0.42433  0.16696  0.43864  1.0000
  Fe  Fe146     1.0  0.48332  0.20161  0.40298  1.0000
  S   S290      1.0  0.50930  0.18744  0.38098  1.0000
  H   H838      1.0  0.64294  0.01676  0.13603  1.0000
  C   C855      1.0  0.50671  0.99758  0.02794  1.0000
  S   S291      1.0  0.47639  0.18202  0.43316  1.0000
  S   S292      1.0  0.43750  0.21721  0.44437  1.0000
  C   C856      1.0  0.34877  0.13687  0.43425  1.0000
  S   S293      1.0  0.38246  0.07961  0.37131  1.0000
  C   C857      1.0  0.62132  0.17660  0.20599  1.0000
  H   H839      1.0  0.62781  0.22661  0.44746  1.0000
  S   S294      1.0  0.38265  0.08272  0.41759  1.0000
  N   N69       1.0  0.51985  0.19384  0.99395  1.0000
  Fe  Fe147     1.0  0.38107  0.10377  0.38832  1.0000
  S   S295      1.0  0.39912  0.12902  0.37711  1.0000
  Fe  Fe148     1.0  0.38152  0.05918  0.40131  1.0000
  C   C858      1.0  0.65255  0.22009  0.31644  1.0000
  H   H840      1.0  0.63247  0.18386  0.19383  1.0000
  C   C859      1.0  0.35809  0.16175  0.40437  1.0000
  S   S296      1.0  0.35870  0.99413  0.02484  1.0000
  C   C860      1.0  0.64812  0.06471  0.10275  1.0000
  Fe  Fe149     1.0  0.57635  0.22560  0.28235  1.0000
  C   C861      1.0  0.49863  0.22214  0.47616  1.0000
  C   C862      1.0  0.37991  0.01732  0.38464  1.0000
  C   C863      1.0  0.39266  0.01086  0.39842  1.0000
  C   C864      1.0  0.62607  0.11685  0.19892  1.0000
  H   H841      1.0  0.59929  0.19475  0.33735  1.0000
  H   H842      1.0  0.62698  0.10156  0.19735  1.0000
  N   N70       1.0  0.46882  0.14370  0.36640  1.0000
  H   H843      1.0  0.37565  0.03315  0.37884  1.0000
  H   H844      1.0  0.58358  0.11109  0.23100  1.0000
  Fe  Fe150     1.0  0.49796  0.00646  0.11840  1.0000
  S   S297      1.0  0.50233  0.01804  0.14416  1.0000
  Fe  Fe151     1.0  0.47265  0.99977  0.09111  1.0000
  C   C865      1.0  0.48616  0.00623  0.19643  1.0000
  C   C866      1.0  0.49969  0.01536  0.03534  1.0000
  S   S298      1.0  0.61010  0.02552  0.08521  1.0000
  C   C867      1.0  0.65013  0.02318  0.14435  1.0000
  H   H845      1.0  0.60569  0.18547  0.20562  1.0000
  H   H846      1.0  0.36322  0.00834  0.36729  1.0000
  C   C868      1.0  0.55929  0.22321  0.36240  1.0000
  C   C869      1.0  0.63680  0.12074  0.21149  1.0000
  H   H847      1.0  0.65116  0.20684  0.34756  1.0000
  H   H848      1.0  0.56907  0.17178  0.97894  1.0000
  H   H849      1.0  0.62443  0.17709  0.22061  1.0000
  H   H850      1.0  0.61547  0.00001  0.05646  1.0000
  H   H851      1.0  0.35358  0.15331  0.39565  1.0000
  H   H852      1.0  0.56634  0.03542  0.09177  1.0000
  C   C870      1.0  0.63928  0.03969  0.15319  1.0000
  C   C871      1.0  0.64332  0.21993  0.44921  1.0000
  H   H853      1.0  0.62408  0.09629  0.13493  1.0000
  H   H854      1.0  0.35538  0.99347  0.42365  1.0000
  H   H855      1.0  0.37813  0.18967  0.43433  1.0000
  N   N71       1.0  0.47266  0.99750  0.02527  1.0000
  C   C872      1.0  0.57956  0.00077  0.16895  1.0000
  C   C873      1.0  0.45961  0.12821  0.37771  1.0000
  C   C874      1.0  0.36616  0.17891  0.39458  1.0000
  H   H856      1.0  0.38155  0.03247  0.45485  1.0000
  S   S299      1.0  0.48045  0.22917  0.41544  1.0000
  H   H857      1.0  0.61874  0.99292  0.20981  1.0000
  C   C875      1.0  0.39842  0.99030  0.40560  1.0000
  C   C876      1.0  0.40594  0.99037  0.05570  1.0000
  H   H858      1.0  0.45364  0.16072  0.34343  1.0000
  H   H859      1.0  0.35532  0.05391  0.35269  1.0000
  S   S300      1.0  0.63631  0.20527  0.31364  1.0000
  H   H860      1.0  0.51469  0.05390  0.20510  1.0000
  S   S301      1.0  0.34682  0.11136  0.39458  1.0000
  H   H861      1.0  0.64609  0.10847  0.21977  1.0000
  S   S302      1.0  0.44300  0.01085  0.07991  1.0000
  H   H862      1.0  0.33318  0.02735  0.98795  1.0000
  C   C877      1.0  0.56414  0.00515  0.06138  1.0000
  C   C878      1.0  0.41873  0.15604  0.42099  1.0000
  C   C879      1.0  0.42144  0.16482  0.40071  1.0000
  C   C880      1.0  0.41549  0.15632  0.38735  1.0000
  C   C881      1.0  0.40701  0.13892  0.39414  1.0000
  C   C882      1.0  0.40475  0.12995  0.41433  1.0000
  C   C883      1.0  0.41050  0.13853  0.42770  1.0000
  H   H863      1.0  0.42768  0.17836  0.39539  1.0000
  H   H864      1.0  0.41725  0.16336  0.37175  1.0000
  H   H865      1.0  0.39856  0.11642  0.41969  1.0000
  H   H866      1.0  0.40846  0.13161  0.44335  1.0000
  H   H867      1.0  0.59472  0.09468  0.12139  1.0000
  H   H868      1.0  0.51224  0.02307  0.23045  1.0000
  C   C884      1.0  0.54184  0.06465  0.13594  1.0000
  C   C885      1.0  0.53819  0.05117  0.15398  1.0000
  C   C886      1.0  0.52680  0.03644  0.15593  1.0000
  C   C887      1.0  0.51865  0.03521  0.14002  1.0000
  C   C888      1.0  0.52302  0.04810  0.12166  1.0000
  C   C889      1.0  0.53461  0.06283  0.11964  1.0000
  H   H869      1.0  0.54399  0.05221  0.16653  1.0000
  H   H870      1.0  0.52453  0.02584  0.16977  1.0000
  H   H871      1.0  0.51694  0.04717  0.10924  1.0000
  H   H872      1.0  0.53753  0.07312  0.10558  1.0000
  C   C890      1.0  0.36365  0.16515  0.43524  1.0000
  C   C891      1.0  0.65765  0.21744  0.33512  1.0000
  H   H873      1.0  0.49664  0.17736  0.99695  1.0000
  H   H874      1.0  0.49942  0.06072  0.18666  1.0000
  C   C892      1.0  0.53288  0.19299  0.34346  1.0000
  C   C893      1.0  0.51779  0.20218  0.35770  1.0000
  S   S303      1.0  0.63646  0.07023  0.17297  1.0000
  H   H875      1.0  0.55262  0.19716  0.31443  1.0000
  H   H876      1.0  0.53826  0.17694  0.34647  1.0000
  C   C894      1.0  0.58913  0.15209  0.24618  1.0000
  C   C895      1.0  0.57575  0.16674  0.23593  1.0000
  C   C896      1.0  0.56550  0.16134  0.22362  1.0000
  C   C897      1.0  0.56853  0.14130  0.22146  1.0000
  C   C898      1.0  0.58130  0.12658  0.23232  1.0000
  C   C899      1.0  0.59153  0.13197  0.24462  1.0000
  H   H877      1.0  0.57361  0.18226  0.23716  1.0000
  H   H878      1.0  0.55547  0.17279  0.21543  1.0000
  N   N72       1.0  0.35665  0.15526  0.42450  1.0000
  H   H879      1.0  0.46890  0.13687  0.33841  1.0000
  C   C900      1.0  0.56150  0.18843  0.37839  1.0000
  H   H880      1.0  0.51002  0.21859  0.00928  1.0000
  H   H881      1.0  0.59556  0.02225  0.14739  1.0000
  H   H882      1.0  0.51021  0.02213  0.03959  1.0000
  H   H883      1.0  0.36779  0.18363  0.37853  1.0000
  C   C901      1.0  0.60249  0.99321  0.21439  1.0000
  H   H884      1.0  0.59027  0.98922  0.04351  1.0000
  Fe  Fe152     1.0  0.34860  0.08861  0.42254  1.0000
  C   C902      1.0  0.64880  0.04838  0.16349  1.0000
  H   H885      1.0  0.40697  0.01798  0.06382  1.0000
  H   H886      1.0  0.47324  0.03756  0.04408  1.0000
  C   C903      1.0  0.56787  0.01192  0.22227  1.0000
  C   C904      1.0  0.58891  0.01149  0.21634  1.0000
  Fe  Fe153     1.0  0.51848  0.99487  0.07813  1.0000
  H   H887      1.0  0.48187  0.03707  0.18176  1.0000
  C   C905      1.0  0.49975  0.05301  0.20235  1.0000
  H   H888      1.0  0.59474  0.02520  0.21339  1.0000
  H   H889      1.0  0.60173  0.12052  0.25261  1.0000
  C   C906      1.0  0.45864  0.98815  0.01950  1.0000
  C   C907      1.0  0.50489  0.01842  0.22082  1.0000
  H   H890      1.0  0.33524  0.13632  0.42866  1.0000
  Fe  Fe154     1.0  0.61090  0.23170  0.24647  1.0000
  H   H891      1.0  0.45141  0.11076  0.40722  1.0000
  C   C908      1.0  0.47754  0.15415  0.37507  1.0000
  H   H892      1.0  0.36903  0.04699  0.97995  1.0000
  C   C909      1.0  0.61221  0.15224  0.19142  1.0000
  C   C910      1.0  0.36524  0.01317  0.44783  1.0000
  S   S304      1.0  0.49437  0.02087  0.08700  1.0000
  H   H893      1.0  0.48119  0.15726  0.33661  1.0000
  C   C911      1.0  0.50336  0.99826  0.22396  1.0000
  H   H894      1.0  0.62388  0.04615  0.15133  1.0000
  H   H895      1.0  0.54131  0.02309  0.08041  1.0000
  C   C912      1.0  0.37186  0.18233  0.42592  1.0000
  C   C913      1.0  0.55746  0.01803  0.07513  1.0000
  H   H896      1.0  0.53792  0.21227  0.38867  1.0000
  N   N73       1.0  0.57632  0.21826  0.34827  1.0000
  C   C914      1.0  0.59488  0.07353  0.09446  1.0000
  H   H897      1.0  0.64285  0.14334  0.22406  1.0000
  C   C915      1.0  0.51177  0.23011  0.45907  1.0000
  C   C916      1.0  0.64553  0.07659  0.11687  1.0000
  H   H898      1.0  0.49913  0.23013  0.36453  1.0000
  C   C917      1.0  0.62625  0.08750  0.12352  1.0000
  C   C918      1.0  0.54255  0.20932  0.00363  1.0000
  H   H899      1.0  0.35058  0.98816  0.34185  1.0000
  C   C919      1.0  0.57169  0.02485  0.08172  1.0000
  H   H900      1.0  0.65739  0.23579  0.28595  1.0000
  C   C920      1.0  0.55609  0.18185  0.98591  1.0000
  H   H901      1.0  0.55335  0.99971  0.12700  1.0000
  H   H902      1.0  0.45192  0.12044  0.37104  1.0000
  C   C921      1.0  0.58453  0.01261  0.15018  1.0000
  H   H903      1.0  0.51010  0.22923  0.44446  1.0000
  C   C922      1.0  0.45920  0.12268  0.39822  1.0000
  H   H904      1.0  0.59952  0.07011  0.07914  1.0000
  N   N74       1.0  0.62269  0.15592  0.20387  1.0000
  C   C923      1.0  0.59934  0.00500  0.06175  1.0000
  H   H905      1.0  0.58678  0.00113  0.18078  1.0000
  C   C924      1.0  0.47905  0.02413  0.03765  1.0000
  H   H906      1.0  0.58087  0.23178  0.31778  1.0000
  C   C925      1.0  0.55925  0.19609  0.99515  1.0000
  H   H907      1.0  0.36351  0.15946  0.45099  1.0000
  C   C926      1.0  0.57874  0.18349  0.36379  1.0000
  H   H908      1.0  0.57466  0.19705  0.99546  1.0000
  H   H909      1.0  0.37914  0.00309  0.44256  1.0000
  C   C927      1.0  0.49410  0.99213  0.21156  1.0000
  N   N75       1.0  0.49753  0.03206  0.20563  1.0000
  H   H910      1.0  0.58731  0.06141  0.10454  1.0000
  H   H911      1.0  0.58620  0.16797  0.36383  1.0000
  S   S305      1.0  0.63087  0.20261  0.25743  1.0000
  Fe  Fe155     1.0  0.62035  0.21154  0.28758  1.0000
  H   H912      1.0  0.48723  0.20236  0.00195  1.0000
  C   C928      1.0  0.48774  0.02631  0.19385  1.0000
  H   H913      1.0  0.63339  0.05456  0.08455  1.0000
  S   S306      1.0  0.54639  0.99598  0.05366  1.0000
  C   C929      1.0  0.46807  0.13324  0.40717  1.0000
  H   H914      1.0  0.46727  0.12959  0.42318  1.0000
  C   C930      1.0  0.41430  0.00248  0.06370  1.0000
  N   N76       1.0  0.34668  0.01000  0.44704  1.0000
  S   S307      1.0  0.40037  0.02836  0.40775  1.0000
  H   H915      1.0  0.48430  0.15735  0.40229  1.0000
  C   C931      1.0  0.54129  0.20448  0.32540  1.0000
  C   C932      1.0  0.36669  0.02968  0.45499  1.0000
  C   C933      1.0  0.37284  0.00326  0.37816  1.0000
  H   H916      1.0  0.34387  0.13570  0.45070  1.0000
  H   H917      1.0  0.60053  0.23251  0.33020  1.0000
  C   C934      1.0  0.65964  0.22246  0.43306  1.0000
  C   C935      1.0  0.58602  0.19871  0.34878  1.0000
  C   C936      1.0  0.63496  0.14049  0.21379  1.0000
  C   C937      1.0  0.34892  0.04270  0.46189  1.0000
  C   C938      1.0  0.56082  0.99972  0.13884  1.0000
  C   C939      1.0  0.47741  0.14899  0.39552  1.0000
  C   C940      1.0  0.46810  0.14996  0.34517  1.0000
  C   C941      1.0  0.49288  0.98876  0.02300  1.0000
  H   H918      1.0  0.54433  0.99431  0.23111  1.0000
  H   H919      1.0  0.48454  0.16669  0.36625  1.0000
  H   H920      1.0  0.48732  0.06119  0.21259  1.0000
  H   H921      1.0  0.58349  0.08779  0.09398  1.0000
  C   C942      1.0  0.34186  0.05362  0.34761  1.0000
  H   H922      1.0  0.37999  0.20219  0.39797  1.0000
  H   H923      1.0  0.35600  0.02803  0.33352  1.0000
  C   C943      1.0  0.56515  0.98860  0.17234  1.0000
  C   C944      1.0  0.55180  0.20843  0.37783  1.0000
  Fe  Fe156     1.0  0.64082  0.00516  0.08463  1.0000
  H   H924      1.0  0.60205  0.16435  0.18396  1.0000
  C   C945      1.0  0.61368  0.13269  0.18881  1.0000
  H   H925      1.0  0.46161  0.98990  0.00301  1.0000
  H   H926      1.0  0.44241  0.99490  0.02481  1.0000
  C   C946      1.0  0.64712  0.20944  0.46779  1.0000
  Fe  Fe157     1.0  0.34817  0.08511  0.38071  1.0000
  C   C947      1.0  0.57514  0.01208  0.13503  1.0000
  C   C948      1.0  0.60975  0.08642  0.11588  1.0000
  C   C949      1.0  0.59265  0.01792  0.07548  1.0000
  C   C950      1.0  0.58508  0.99894  0.05439  1.0000
  H   H927      1.0  0.39232  0.99657  0.04967  1.0000
  S   S308      1.0  0.58293  0.21843  0.25149  1.0000
  N   N77       1.0  0.61248  0.07498  0.10179  1.0000
  C   C951      1.0  0.63131  0.06402  0.09536  1.0000
  C   C952      1.0  0.37304  0.18926  0.40547  1.0000
  H   H928      1.0  0.55519  0.17677  0.38973  1.0000
  C   C953      1.0  0.43211  0.99472  0.07141  1.0000
  C   C954      1.0  0.53615  0.18095  0.98541  1.0000
  C   C955      1.0  0.53479  0.22527  0.32146  1.0000
  C   C956      1.0  0.51082  0.22292  0.35363  1.0000
  C   C957      1.0  0.52284  0.20791  0.00299  1.0000
  S   S309      1.0  0.34749  0.06289  0.40941  1.0000
  C   C958      1.0  0.46570  0.01505  0.03232  1.0000
  S   S310      1.0  0.47895  0.21070  0.47460  1.0000
  H   H929      1.0  0.44960  0.02182  0.03458  1.0000
  H   H930      1.0  0.47916  0.00165  0.18645  1.0000
  H   H931      1.0  0.36071  0.12355  0.43119  1.0000
  H   H932      1.0  0.54483  0.22091  0.01031  1.0000
  H   H933      1.0  0.52272  0.99054  0.02641  1.0000
  C   C959      1.0  0.66108  0.23375  0.30043  1.0000
  H   H934      1.0  0.66299  0.05579  0.09789  1.0000
  H   H935      1.0  0.57876  0.02146  0.12054  1.0000
  C   C960      1.0  0.49926  0.19303  0.99239  1.0000
  N   N78       1.0  0.55580  0.98838  0.15744  1.0000
  H   H936      1.0  0.65683  0.23105  0.41870  1.0000
  C   C961      1.0  0.34582  0.99284  0.43892  1.0000
  S   S311      1.0  0.47393  0.98789  0.12348  1.0000
  H   H937      1.0  0.36319  0.99012  0.31591  1.0000
  H   H938      1.0  0.34979  0.05559  0.46747  1.0000
  Fe  Fe158     1.0  0.44736  0.23440  0.41358  1.0000
  H   H939      1.0  0.65828  0.07679  0.12321  1.0000
  C   C962      1.0  0.58384  0.23373  0.33189  1.0000
  C   C963      1.0  0.34219  0.03895  0.33680  1.0000
  H   H940      1.0  0.50950  0.98740  0.23582  1.0000
  H   H941      1.0  0.33468  0.02730  0.39978  1.0000
  H   H942      1.0  0.53373  0.17003  0.97796  1.0000
  Fe  Fe159     1.0  0.66368  0.17809  0.90468  1.0000
  Fe  Fe160     1.0  0.46831  0.98823  0.74770  1.0000
  H   H943      1.0  0.37323  0.11721  0.95166  1.0000
  H   H944      1.0  0.52507  0.19446  0.56399  1.0000
  C   C964      1.0  0.56221  0.99818  0.58000  1.0000
  S   S312      1.0  0.56976  0.19343  0.56949  1.0000
  H   H945      1.0  0.56523  0.12275  0.58183  1.0000
  C   C965      1.0  0.56815  0.15371  0.57644  1.0000
  C   C966      1.0  0.57809  0.13322  0.55094  1.0000
  H   H946      1.0  0.41078  0.05247  0.92312  1.0000
  S   S313      1.0  0.59066  0.05316  0.56449  1.0000
  C   C967      1.0  0.63840  0.09388  0.59719  1.0000
  Fe  Fe161     1.0  0.57641  0.08453  0.56930  1.0000
  H   H947      1.0  0.54028  0.20782  0.52916  1.0000
  Fe  Fe162     1.0  0.56198  0.04482  0.58479  1.0000
  H   H948      1.0  0.58797  0.03597  0.66583  1.0000
  S   S314      1.0  0.66437  0.99251  0.72336  1.0000
  H   H949      1.0  0.59057  0.98761  0.61317  1.0000
  S   S315      1.0  0.54500  0.07751  0.64372  1.0000
  S   S316      1.0  0.49747  0.22378  0.90293  1.0000
  H   H950      1.0  0.60049  0.21638  0.83157  1.0000
  H   H951      1.0  0.61151  0.05699  0.62576  1.0000
  C   C968      1.0  0.51647  0.23244  0.49686  1.0000
  N   N79       1.0  0.63456  0.09037  0.56527  1.0000
  C   C969      1.0  0.58235  0.16797  0.54240  1.0000
  H   H952      1.0  0.55673  0.17428  0.94628  1.0000
  H   H953      1.0  0.35364  0.07844  0.78504  1.0000
  S   S317      1.0  0.63252  0.03280  0.59584  1.0000
  C   C970      1.0  0.57549  0.17763  0.91676  1.0000
  H   H954      1.0  0.62157  0.01770  0.71885  1.0000
  H   H955      1.0  0.41388  0.05405  0.79607  1.0000
  C   C971      1.0  0.55130  0.18890  0.49800  1.0000
  C   C972      1.0  0.41695  0.98976  0.76431  1.0000
  H   H956      1.0  0.55826  0.18465  0.87408  1.0000
  H   H957      1.0  0.38115  0.07842  0.80175  1.0000
  N   N80       1.0  0.37648  0.08848  0.94489  1.0000
  S   S318      1.0  0.57399  0.03902  0.61263  1.0000
  S   S319      1.0  0.48041  0.01592  0.73106  1.0000
  S   S320      1.0  0.53266  0.01156  0.74572  1.0000
  H   H958      1.0  0.58933  0.17611  0.92196  1.0000
  C   C973      1.0  0.60031  0.02803  0.69908  1.0000
  H   H959      1.0  0.62285  0.22964  0.86417  1.0000
  S   S321      1.0  0.48411  0.01723  0.67387  1.0000
  C   C974      1.0  0.39908  0.05924  0.93436  1.0000
  H   H960      1.0  0.55985  0.04205  0.74498  1.0000
  C   C975      1.0  0.39086  0.04730  0.95205  1.0000
  H   H961      1.0  0.63859  0.06182  0.55727  1.0000
  Fe  Fe163     1.0  0.35144  0.09792  0.86629  1.0000
  S   S322      1.0  0.35958  0.07239  0.84923  1.0000
  Fe  Fe164     1.0  0.37105  0.12287  0.88442  1.0000
  S   S323      1.0  0.54644  0.07661  0.58693  1.0000
  S   S324      1.0  0.40229  0.12687  0.88578  1.0000
  H   H962      1.0  0.45364  0.18470  0.86368  1.0000
  C   C976      1.0  0.34352  0.05373  0.93227  1.0000
  S   S325      1.0  0.36532  0.09150  0.89324  1.0000
  S   S326      1.0  0.36018  0.12824  0.85576  1.0000
  S   S327      1.0  0.47659  0.18560  0.90411  1.0000
  Fe  Fe165     1.0  0.51087  0.99812  0.73648  1.0000
  Fe  Fe166     1.0  0.49042  0.19607  0.92467  1.0000
  S   S328      1.0  0.46045  0.21114  0.94096  1.0000
  Fe  Fe167     1.0  0.44703  0.20327  0.91835  1.0000
  S   S329      1.0  0.41612  0.19435  0.92471  1.0000
  H   H963      1.0  0.56166  0.15534  0.59178  1.0000
  H   H964      1.0  0.54865  0.18932  0.83887  1.0000
  H   H965      1.0  0.50260  0.98777  0.61620  1.0000
  S   S330      1.0  0.35809  0.98862  0.74627  1.0000
  S   S331      1.0  0.65330  0.19423  0.87626  1.0000
  C   C977      1.0  0.35303  0.03382  0.93801  1.0000
  H   H966      1.0  0.33898  0.03925  0.87866  1.0000
  H   H967      1.0  0.55109  0.23486  0.87438  1.0000
  C   C978      1.0  0.57602  0.18063  0.89631  1.0000
  H   H968      1.0  0.55229  0.23019  0.95237  1.0000
  H   H969      1.0  0.36342  0.02586  0.92689  1.0000
  H   H970      1.0  0.64358  0.08726  0.61106  1.0000
  C   C979      1.0  0.40579  0.14443  0.89839  1.0000
  C   C980      1.0  0.42571  0.14654  0.89767  1.0000
  C   C981      1.0  0.42913  0.16137  0.90622  1.0000
  C   C982      1.0  0.41261  0.17415  0.91568  1.0000
  C   C983      1.0  0.39269  0.17155  0.91705  1.0000
  C   C984      1.0  0.38926  0.15682  0.90834  1.0000
  H   H971      1.0  0.43858  0.13689  0.89015  1.0000
  H   H972      1.0  0.44453  0.16300  0.90534  1.0000
  H   H973      1.0  0.37984  0.18134  0.92441  1.0000
  H   H974      1.0  0.37384  0.15540  0.90897  1.0000
  C   C985      1.0  0.55696  0.17668  0.93057  1.0000
  Fe  Fe168     1.0  0.48068  0.21507  0.88401  1.0000
  H   H975      1.0  0.56434  0.99379  0.71560  1.0000
  H   H976      1.0  0.41847  0.02982  0.77379  1.0000
  H   H977      1.0  0.50635  0.23239  0.97325  1.0000
  H   H978      1.0  0.59064  0.14793  0.52140  1.0000
  H   H979      1.0  0.56290  0.03165  0.67895  1.0000
  H   H980      1.0  0.35767  0.03897  0.83353  1.0000
  H   H981      1.0  0.62475  0.12263  0.60556  1.0000
  C   C986      1.0  0.53940  0.18204  0.90352  1.0000
  C   C987      1.0  0.63787  0.03420  0.61842  1.0000
  H   H982      1.0  0.50911  0.01196  0.61156  1.0000
  C   C988      1.0  0.65915  0.02211  0.64303  1.0000
  C   C989      1.0  0.56230  0.22897  0.93746  1.0000
  C   C990      1.0  0.33598  0.03463  0.97241  1.0000
  Fe  Fe169     1.0  0.62728  0.19884  0.93122  1.0000
  C   C991      1.0  0.36868  0.11015  0.94132  1.0000
  C   C992      1.0  0.58433  0.14954  0.53677  1.0000
  H   H983      1.0  0.61944  0.05857  0.65771  1.0000
  C   C993      1.0  0.57150  0.03859  0.73204  1.0000
  Fe  Fe170     1.0  0.64546  0.22139  0.89049  1.0000
  H   H984      1.0  0.52553  0.18365  0.89831  1.0000
  H   H985      1.0  0.49076  0.21743  0.50832  1.0000
  S   S332      1.0  0.65853  0.20586  0.91762  1.0000
  C   C994      1.0  0.40356  0.20442  0.87370  1.0000
  C   C995      1.0  0.53506  0.00233  0.63547  1.0000
  C   C996      1.0  0.55067  0.99465  0.64615  1.0000
  H   H986      1.0  0.55943  0.00462  0.64834  1.0000
  H   H987      1.0  0.63457  0.20800  0.48060  1.0000
  H   H988      1.0  0.35890  0.04969  0.74670  1.0000
  C   C997      1.0  0.39187  0.07999  0.93112  1.0000
  C   C998      1.0  0.60519  0.22877  0.96245  1.0000
  C   C999      1.0  0.52615  0.06274  0.65263  1.0000
  C   C1000     1.0  0.52202  0.05374  0.67280  1.0000
  C   C1001     1.0  0.50892  0.03987  0.67943  1.0000
  C   C1002     1.0  0.49924  0.03566  0.66607  1.0000
  C   C1003     1.0  0.50246  0.04554  0.64615  1.0000
  C   C1004     1.0  0.51626  0.05873  0.63935  1.0000
  H   H989      1.0  0.52932  0.05707  0.68320  1.0000
  H   H990      1.0  0.50640  0.03244  0.69486  1.0000
  H   H991      1.0  0.49481  0.04254  0.63583  1.0000
  H   H992      1.0  0.51908  0.06589  0.62383  1.0000
  C   C1005     1.0  0.53883  0.17918  0.92396  1.0000
  H   H993      1.0  0.61966  0.11639  0.54797  1.0000
  C   C1006     1.0  0.34578  0.05123  0.82912  1.0000
  C   C1007     1.0  0.62788  0.11368  0.59410  1.0000
  H   H994      1.0  0.61168  0.02364  0.68637  1.0000
  H   H995      1.0  0.39030  0.02987  0.75788  1.0000
  H   H996      1.0  0.62421  0.08208  0.54282  1.0000
  C   C1008     1.0  0.60601  0.02460  0.71747  1.0000
  C   C1009     1.0  0.41662  0.99118  0.74426  1.0000
  H   H997      1.0  0.65158  0.08001  0.53886  1.0000
  N   N81       1.0  0.58071  0.03664  0.69721  1.0000
  S   S333      1.0  0.58955  0.08194  0.59606  1.0000
  C   C1010     1.0  0.63748  0.07798  0.55028  1.0000
  H   H998      1.0  0.58483  0.18615  0.84115  1.0000
  H   H999      1.0  0.51873  0.15954  0.57328  1.0000
  H   H1000     1.0  0.58875  0.01125  0.56567  1.0000
  S   S334      1.0  0.54577  0.02105  0.58344  1.0000
  C   C1011     1.0  0.57016  0.13526  0.57082  1.0000
  S   S335      1.0  0.60736  0.20373  0.96079  1.0000
  C   C1012     1.0  0.55657  0.99595  0.74672  1.0000
  Fe  Fe171     1.0  0.62223  0.18881  0.89320  1.0000
  S   S336      1.0  0.58821  0.22105  0.51338  1.0000
  H   H1001     1.0  0.55061  0.04802  0.71212  1.0000
  C   C1013     1.0  0.64633  0.03539  0.65495  1.0000
  C   C1014     1.0  0.62496  0.04746  0.63036  1.0000
  C   C1015     1.0  0.62942  0.04834  0.64846  1.0000
  C   C1016     1.0  0.35340  0.05308  0.76201  1.0000
  Fe  Fe172     1.0  0.60133  0.04997  0.59271  1.0000
  C   C1017     1.0  0.64187  0.08247  0.58239  1.0000
  H   H1002     1.0  0.58707  0.18049  0.53139  1.0000
  C   C1018     1.0  0.36843  0.07690  0.96232  1.0000
  S   S337      1.0  0.51541  0.17965  0.94111  1.0000
  C   C1019     1.0  0.57610  0.20059  0.83549  1.0000
  C   C1020     1.0  0.56633  0.04182  0.71341  1.0000
  C   C1021     1.0  0.42105  0.17889  0.85512  1.0000
  C   C1022     1.0  0.57401  0.17017  0.56220  1.0000
  C   C1023     1.0  0.57484  0.04028  0.67788  1.0000
  S   S338      1.0  0.58073  0.11033  0.54355  1.0000
  C   C1024     1.0  0.55799  0.18255  0.88976  1.0000
  Fe  Fe173     1.0  0.56086  0.07131  0.61338  1.0000
  C   C1025     1.0  0.55584  0.20237  0.83425  1.0000
  N   N82       1.0  0.54214  0.18102  0.51870  1.0000
  C   C1026     1.0  0.53848  0.16188  0.52362  1.0000
  C   C1027     1.0  0.53707  0.19278  0.53289  1.0000
  C   C1028     1.0  0.52993  0.15389  0.54328  1.0000
  C   C1029     1.0  0.52832  0.18534  0.55265  1.0000
  C   C1030     1.0  0.52484  0.16573  0.55787  1.0000
  H   H1003     1.0  0.59554  0.02666  0.74855  1.0000
  H   H1004     1.0  0.54262  0.15249  0.51243  1.0000
  C   C1031     1.0  0.38082  0.98821  0.77341  1.0000
  H   H1005     1.0  0.37468  0.11739  0.92579  1.0000
  Fe  Fe174     1.0  0.48797  0.00106  0.70448  1.0000
  H   H1006     1.0  0.43516  0.16997  0.84846  1.0000
  Fe  Fe175     1.0  0.66130  0.00250  0.69142  1.0000
  H   H1007     1.0  0.53224  0.01819  0.62911  1.0000
  C   C1032     1.0  0.54471  0.22121  0.82750  1.0000
  N   N83       1.0  0.42140  0.19345  0.86498  1.0000
  H   H1008     1.0  0.61309  0.13729  0.57359  1.0000
  H   H1009     1.0  0.35174  0.11320  0.94363  1.0000
  H   H1010     1.0  0.57310  0.23253  0.97565  1.0000
  C   C1033     1.0  0.40249  0.17468  0.85424  1.0000
  H   H1011     1.0  0.37063  0.20892  0.88053  1.0000
  H   H1012     1.0  0.44467  0.21093  0.85453  1.0000
  S   S339      1.0  0.45045  0.23232  0.89690  1.0000
  C   C1034     1.0  0.59146  0.02983  0.73406  1.0000
  C   C1035     1.0  0.38422  0.18562  0.86328  1.0000
  C   C1036     1.0  0.34305  0.06960  0.83513  1.0000
  S   S340      1.0  0.65058  0.03471  0.67856  1.0000
  C   C1037     1.0  0.38472  0.20067  0.87301  1.0000
  S   S341      1.0  0.63315  0.17001  0.92036  1.0000
  H   H1013     1.0  0.44020  0.20061  0.88099  1.0000
  S   S342      1.0  0.43964  0.98899  0.77176  1.0000
  C   C1038     1.0  0.62131  0.12190  0.57619  1.0000
  C   C1039     1.0  0.62496  0.10999  0.56179  1.0000
  H   H1014     1.0  0.65007  0.06711  0.58490  1.0000
  C   C1040     1.0  0.55687  0.23149  0.90382  1.0000
  S   S343      1.0  0.34094  0.13600  0.90199  1.0000
  S   S344      1.0  0.61376  0.21692  0.90557  1.0000
  C   C1041     1.0  0.65518  0.02183  0.62458  1.0000
  S   S345      1.0  0.59872  0.18369  0.87877  1.0000
  C   C1042     1.0  0.50103  0.22336  0.49504  1.0000
  Fe  Fe176     1.0  0.57503  0.22086  0.54594  1.0000
  H   H1015     1.0  0.52890  0.22248  0.82683  1.0000
  N   N84       1.0  0.37043  0.05425  0.77038  1.0000
  C   C1043     1.0  0.36793  0.06789  0.78231  1.0000
  C   C1044     1.0  0.38834  0.04075  0.76726  1.0000
  C   C1045     1.0  0.38348  0.06802  0.79174  1.0000
  C   C1046     1.0  0.40431  0.04061  0.77625  1.0000
  C   C1047     1.0  0.40176  0.05425  0.78868  1.0000
  H   H1016     1.0  0.52779  0.13844  0.54727  1.0000
  C   C1048     1.0  0.58492  0.21759  0.83007  1.0000
  H   H1017     1.0  0.39839  0.08919  0.91734  1.0000
  H   H1018     1.0  0.40386  0.21563  0.88192  1.0000
  H   H1019     1.0  0.56957  0.21914  0.90164  1.0000
  C   C1049     1.0  0.50599  0.99874  0.62342  1.0000
  H   H1020     1.0  0.40227  0.16247  0.84726  1.0000
  H   H1021     1.0  0.56870  0.05651  0.67333  1.0000
  S   S346      1.0  0.36414  0.00048  0.96494  1.0000
  S   S347      1.0  0.48905  0.21835  0.85069  1.0000
  C   C1050     1.0  0.44092  0.19766  0.86599  1.0000
  C   C1051     1.0  0.34965  0.02437  0.95812  1.0000
  C   C1052     1.0  0.58285  0.99753  0.57103  1.0000
  C   C1053     1.0  0.39901  0.98835  0.77886  1.0000
  H   H1022     1.0  0.55661  0.20309  0.49665  1.0000
  H   H1023     1.0  0.66542  0.01179  0.61527  1.0000
  C   C1054     1.0  0.56354  0.99134  0.76456  1.0000
  H   H1024     1.0  0.48690  0.23494  0.94760  1.0000
  H   H1025     1.0  0.60517  0.99970  0.62311  1.0000
  C   C1055     1.0  0.56960  0.98996  0.72950  1.0000
  H   H1026     1.0  0.36974  0.18208  0.86318  1.0000
  H   H1027     1.0  0.39586  0.03112  0.95462  1.0000
  H   H1028     1.0  0.34540  0.04108  0.77167  1.0000
  H   H1029     1.0  0.49237  0.00363  0.63476  1.0000
  H   H1030     1.0  0.64372  0.98928  0.61469  1.0000
  H   H1031     1.0  0.63683  0.22984  0.94956  1.0000
  H   H1032     1.0  0.34206  0.06739  0.76113  1.0000
  C   C1056     1.0  0.37569  0.05621  0.96627  1.0000
  H   H1033     1.0  0.35595  0.08359  0.97305  1.0000
  H   H1034     1.0  0.60916  0.00132  0.59654  1.0000
  H   H1035     1.0  0.55361  0.99612  0.77783  1.0000
  C   C1057     1.0  0.60583  0.99132  0.61132  1.0000
  H   H1036     1.0  0.39919  0.98717  0.79442  1.0000
  H   H1037     1.0  0.34619  0.06079  0.91675  1.0000
  N   N85       1.0  0.52346  0.99006  0.63305  1.0000
  H   H1038     1.0  0.51784  0.23379  0.51141  1.0000
  H   H1039     1.0  0.56826  0.21274  0.93739  1.0000
  H   H1040     1.0  0.43031  0.99253  0.73290  1.0000
  C   C1058     1.0  0.39848  0.99080  0.73885  1.0000
  C   C1059     1.0  0.38053  0.98935  0.75340  1.0000
  H   H1041     1.0  0.56475  0.17793  0.49223  1.0000
  H   H1042     1.0  0.53986  0.19204  0.48846  1.0000
  H   H1043     1.0  0.36720  0.98667  0.78479  1.0000
  H   H1044     1.0  0.39834  0.99176  0.72332  1.0000
  C   C1060     1.0  0.33337  0.04868  0.81721  1.0000
  H   H1045     1.0  0.33574  0.03452  0.81257  1.0000
  Fe  Fe177     1.0  0.33433  0.10480  0.90874  1.0000
  H   H1046     1.0  0.49745  0.19857  0.97664  1.0000
  H   H1047     1.0  0.33588  0.40628  0.33487  1.0000
  C   C1061     1.0  0.35969  0.46232  0.21106  1.0000
  H   H1048     1.0  0.54743  0.31487  0.15347  1.0000
  S   S348      1.0  0.62420  0.25062  0.21739  1.0000
  H   H1049     1.0  0.61391  0.26423  0.47507  1.0000
  H   H1050     1.0  0.53744  0.24516  0.44762  1.0000
  H   H1051     1.0  0.53770  0.43129  0.08699  1.0000
  H   H1052     1.0  0.46606  0.27617  0.41126  1.0000
  Fe  Fe178     1.0  0.58320  0.34825  0.14899  1.0000
  S   S349      1.0  0.61234  0.33855  0.12797  1.0000
  S   S350      1.0  0.56952  0.32795  0.17665  1.0000
  Fe  Fe179     1.0  0.57600  0.39013  0.12428  1.0000
  S   S351      1.0  0.60433  0.38333  0.10116  1.0000
  S   S352      1.0  0.56093  0.42258  0.11900  1.0000
  Fe  Fe180     1.0  0.59465  0.35420  0.10395  1.0000
  S   S353      1.0  0.59900  0.33932  0.07748  1.0000
  Fe  Fe181     1.0  0.61902  0.36871  0.12727  1.0000
  S   S354      1.0  0.65004  0.37521  0.12602  1.0000
  S   S355      1.0  0.56494  0.36214  0.12505  1.0000
  S   S356      1.0  0.59119  0.37722  0.15030  1.0000
  S   S357      1.0  0.55050  0.28976  0.00561  1.0000
  S   S358      1.0  0.52688  0.33299  0.03935  1.0000
  N   N86       1.0  0.49437  0.38472  0.98845  1.0000
  H   H1053     1.0  0.52752  0.41487  0.07720  1.0000
  H   H1054     1.0  0.39897  0.29109  0.45722  1.0000
  C   C1062     1.0  0.41116  0.48066  0.08662  1.0000
  Fe  Fe182     1.0  0.38780  0.45951  0.01949  1.0000
  S   S359      1.0  0.38625  0.45772  0.05242  1.0000
  S   S360      1.0  0.38110  0.43573  0.00643  1.0000
  C   C1063     1.0  0.52588  0.42189  0.09024  1.0000
  C   C1064     1.0  0.62540  0.44774  0.14705  1.0000
  H   H1055     1.0  0.40820  0.48193  0.10214  1.0000
  H   H1056     1.0  0.59202  0.29547  0.24399  1.0000
  C   C1065     1.0  0.54025  0.31203  0.12627  1.0000
  S   S361      1.0  0.41580  0.46452  0.99593  1.0000
  H   H1057     1.0  0.59805  0.35082  0.19145  1.0000
  C   C1066     1.0  0.34541  0.42712  0.37355  1.0000
  C   C1067     1.0  0.36721  0.28942  0.43428  1.0000
  C   C1068     1.0  0.37746  0.30183  0.41825  1.0000
  C   C1069     1.0  0.39709  0.29426  0.40804  1.0000
  C   C1070     1.0  0.41441  0.28265  0.45704  1.0000
  C   C1071     1.0  0.57440  0.30454  0.13238  1.0000
  C   C1072     1.0  0.37647  0.26936  0.43978  1.0000
  H   H1058     1.0  0.37039  0.31731  0.41389  1.0000
  H   H1059     1.0  0.40510  0.30399  0.39582  1.0000
  H   H1060     1.0  0.36858  0.25969  0.45216  1.0000
  C   C1073     1.0  0.34227  0.41266  0.39088  1.0000
  C   C1074     1.0  0.60381  0.43338  0.13438  1.0000
  H   H1061     1.0  0.57300  0.43459  0.15138  1.0000
  C   C1075     1.0  0.64229  0.31733  0.19484  1.0000
  C   C1076     1.0  0.60411  0.29283  0.10754  1.0000
  C   C1077     1.0  0.43804  0.25467  0.47091  1.0000
  C   C1078     1.0  0.40263  0.46906  0.06011  1.0000
  C   C1079     1.0  0.50063  0.45212  0.08242  1.0000
  C   C1080     1.0  0.65479  0.27133  0.43718  1.0000
  C   C1081     1.0  0.47130  0.43858  0.11445  1.0000
  N   N87       1.0  0.58208  0.29971  0.11386  1.0000
  C   C1082     1.0  0.53614  0.43010  0.13227  1.0000
  C   C1083     1.0  0.52728  0.45047  0.12904  1.0000
  C   C1084     1.0  0.50704  0.45699  0.13825  1.0000
  C   C1085     1.0  0.49542  0.44317  0.15055  1.0000
  C   C1086     1.0  0.50447  0.42279  0.15428  1.0000
  C   C1087     1.0  0.52484  0.41622  0.14510  1.0000
  H   H1062     1.0  0.53604  0.46128  0.11927  1.0000
  N   N88       1.0  0.34014  0.47647  0.21209  1.0000
  H   H1063     1.0  0.53167  0.40046  0.14773  1.0000
  C   C1088     1.0  0.65221  0.38909  0.14306  1.0000
  H   H1064     1.0  0.49478  0.41304  0.12034  1.0000
  H   H1065     1.0  0.46445  0.29920  0.41940  1.0000
  H   H1066     1.0  0.33837  0.39033  0.99163  1.0000
  C   C1089     1.0  0.63922  0.40232  0.17369  1.0000
  C   C1090     1.0  0.63725  0.39115  0.16037  1.0000
  H   H1067     1.0  0.35840  0.42413  0.36152  1.0000
  C   C1091     1.0  0.62893  0.33407  0.18716  1.0000
  H   H1068     1.0  0.66515  0.40715  0.09557  1.0000
  H   H1069     1.0  0.62428  0.38394  0.16370  1.0000
  C   C1092     1.0  0.57883  0.33903  0.06628  1.0000
  C   C1093     1.0  0.58318  0.32923  0.05002  1.0000
  C   C1094     1.0  0.56744  0.32755  0.04145  1.0000
  C   C1095     1.0  0.54716  0.33556  0.04917  1.0000
  C   C1096     1.0  0.54279  0.34549  0.06538  1.0000
  C   C1097     1.0  0.55856  0.34730  0.07386  1.0000
  H   H1070     1.0  0.59881  0.32279  0.04406  1.0000
  H   H1071     1.0  0.57100  0.31988  0.02898  1.0000
  H   H1072     1.0  0.52713  0.35172  0.07143  1.0000
  H   H1073     1.0  0.55502  0.35480  0.08642  1.0000
  H   H1074     1.0  0.59982  0.47386  0.18164  1.0000
  S   S362      1.0  0.46932  0.45093  0.16021  1.0000
  C   C1098     1.0  0.48274  0.36185  0.01822  1.0000
  C   C1099     1.0  0.60816  0.27066  0.20512  1.0000
  C   C1100     1.0  0.61665  0.28207  0.18703  1.0000
  C   C1101     1.0  0.60480  0.29937  0.17785  1.0000
  C   C1102     1.0  0.58434  0.30534  0.18671  1.0000
  C   C1103     1.0  0.57567  0.29358  0.20448  1.0000
  C   C1104     1.0  0.58753  0.27625  0.21366  1.0000
  H   H1075     1.0  0.63261  0.27779  0.18037  1.0000
  H   H1076     1.0  0.61170  0.30832  0.16426  1.0000
  H   H1077     1.0  0.55981  0.29806  0.21138  1.0000
  H   H1078     1.0  0.58082  0.26748  0.22757  1.0000
  C   C1105     1.0  0.39600  0.26177  0.42948  1.0000
  H   H1079     1.0  0.57853  0.45124  0.17645  1.0000
  S   S363      1.0  0.54986  0.33674  0.98209  1.0000
  H   H1080     1.0  0.50050  0.47276  0.13590  1.0000
  C   C1106     1.0  0.46336  0.36626  0.01380  1.0000
  H   H1081     1.0  0.51324  0.36759  0.00878  1.0000
  H   H1082     1.0  0.47725  0.47817  0.07628  1.0000
  Fe  Fe183     1.0  0.36243  0.46120  0.98875  1.0000
  C   C1107     1.0  0.49815  0.37129  0.00532  1.0000
  H   H1083     1.0  0.36406  0.45789  0.22590  1.0000
  H   H1084     1.0  0.58449  0.30369  0.14226  1.0000
  C   C1108     1.0  0.63445  0.27284  0.44746  1.0000
  C   C1109     1.0  0.62275  0.43814  0.13281  1.0000
  C   C1110     1.0  0.58779  0.43825  0.15009  1.0000
  H   H1085     1.0  0.60881  0.29487  0.09098  1.0000
  H   H1086     1.0  0.40300  0.24633  0.43389  1.0000
  C   C1111     1.0  0.46628  0.45691  0.10199  1.0000
  H   H1087     1.0  0.60156  0.42579  0.12354  1.0000
  S   S364      1.0  0.66016  0.28242  0.41182  1.0000
  H   H1088     1.0  0.57531  0.29671  0.08687  1.0000
  H   H1089     1.0  0.60848  0.27678  0.11418  1.0000
  C   C1112     1.0  0.54819  0.30673  0.10755  1.0000
  H   H1090     1.0  0.62230  0.28078  0.43972  1.0000
  S   S365      1.0  0.43188  0.26582  0.40204  1.0000
  C   C1113     1.0  0.41783  0.47807  0.04626  1.0000
  Fe  Fe184     1.0  0.53372  0.32039  0.01091  1.0000
  H   H1091     1.0  0.45134  0.35887  0.02356  1.0000
  H   H1092     1.0  0.48154  0.27702  0.42817  1.0000
  N   N89       1.0  0.50541  0.43410  0.09467  1.0000
  Fe  Fe185     1.0  0.40745  0.44303  0.98158  1.0000
  H   H1093     1.0  0.52396  0.31709  0.13101  1.0000
  H   H1094     1.0  0.49557  0.41206  0.16396  1.0000
  N   N90       1.0  0.61536  0.30897  0.22273  1.0000
  H   H1095     1.0  0.44460  0.38373  0.99302  1.0000
  C   C1114     1.0  0.63522  0.30488  0.21278  1.0000
  C   C1115     1.0  0.39963  0.47006  0.08037  1.0000
  S   S366      1.0  0.34325  0.29860  0.44834  1.0000
  H   H1096     1.0  0.34606  0.42163  0.99623  1.0000
  C   C1116     1.0  0.59100  0.44773  0.16414  1.0000
  S   S367      1.0  0.33333  0.46326  0.97866  1.0000
  C   C1117     1.0  0.41824  0.26576  0.47174  1.0000
  C   C1118     1.0  0.43048  0.28807  0.44155  1.0000
  C   C1119     1.0  0.60839  0.29616  0.24183  1.0000
  C   C1120     1.0  0.40649  0.27427  0.41376  1.0000
  C   C1121     1.0  0.55340  0.31083  0.13884  1.0000
  C   C1122     1.0  0.56926  0.30045  0.10160  1.0000
  H   H1097     1.0  0.65795  0.31388  0.18683  1.0000
  C   C1123     1.0  0.49100  0.42720  0.11045  1.0000
  H   H1098     1.0  0.39738  0.47803  0.23141  1.0000
  H   H1099     1.0  0.46015  0.43347  0.12746  1.0000
  S   S368      1.0  0.60263  0.24159  0.27610  1.0000
  S   S369      1.0  0.51527  0.26154  0.99052  1.0000
  H   H1100     1.0  0.35282  0.39840  0.39243  1.0000
  S   S370      1.0  0.50725  0.31877  0.99837  1.0000
  N   N91       1.0  0.44988  0.27718  0.44093  1.0000
  H   H1101     1.0  0.64033  0.45090  0.14604  1.0000
  H   H1102     1.0  0.51196  0.40747  0.98148  1.0000
  H   H1103     1.0  0.64557  0.29168  0.21848  1.0000
  H   H1104     1.0  0.53818  0.30781  0.09750  1.0000
  H   H1105     1.0  0.37223  0.46917  0.20046  1.0000
  H   H1106     1.0  0.58637  0.32854  0.22307  1.0000
  H   H1107     1.0  0.48596  0.35094  0.03139  1.0000
  H   H1108     1.0  0.62762  0.40373  0.18712  1.0000
  H   H1109     1.0  0.61450  0.44997  0.19150  1.0000
  C   C1124     1.0  0.66568  0.25217  0.46750  1.0000
  H   H1110     1.0  0.52913  0.40984  0.10314  1.0000
  H   H1111     1.0  0.46902  0.25169  0.45457  1.0000
  C   C1125     1.0  0.60875  0.33817  0.19748  1.0000
  H   H1112     1.0  0.51406  0.25050  0.33246  1.0000
  N   N92       1.0  0.60961  0.45243  0.16244  1.0000
  C   C1126     1.0  0.48100  0.46377  0.08586  1.0000
  S   S371      1.0  0.35909  0.48387  0.25924  1.0000
  H   H1113     1.0  0.57617  0.24910  0.33425  1.0000
  Fe  Fe186     1.0  0.52580  0.28986  0.98991  1.0000
  H   H1114     1.0  0.38795  0.46307  0.09119  1.0000
  H   H1115     1.0  0.63543  0.43400  0.12092  1.0000
  H   H1116     1.0  0.61275  0.30187  0.11215  1.0000
  H   H1117     1.0  0.35857  0.44872  0.20619  1.0000
  C   C1127     1.0  0.60220  0.32544  0.21539  1.0000
  H   H1118     1.0  0.51205  0.45763  0.06996  1.0000
  C   C1128     1.0  0.62968  0.26360  0.46757  1.0000
  H   H1119     1.0  0.45109  0.46594  0.10498  1.0000
  C   C1129     1.0  0.61280  0.46156  0.17786  1.0000
  C   C1130     1.0  0.47533  0.38935  0.98414  1.0000
  H   H1120     1.0  0.42038  0.47736  0.03067  1.0000
  H   H1121     1.0  0.61694  0.28045  0.24237  1.0000
  C   C1131     1.0  0.45375  0.26060  0.45527  1.0000
  H   H1122     1.0  0.42722  0.30066  0.42968  1.0000
  C   C1132     1.0  0.46633  0.28266  0.42413  1.0000
  C   C1133     1.0  0.65593  0.41189  0.16961  1.0000
  H   H1123     1.0  0.55105  0.23857  0.36152  1.0000
  C   C1134     1.0  0.45958  0.38014  0.99669  1.0000
  H   H1124     1.0  0.61059  0.30196  0.25435  1.0000
  Fe  Fe187     1.0  0.45613  0.48274  0.14729  1.0000
  H   H1125     1.0  0.36847  0.47961  0.45140  1.0000
  C   C1135     1.0  0.52726  0.23910  0.46090  1.0000
  H   H1126     1.0  0.62691  0.46803  0.17291  1.0000
  S   S372      1.0  0.36632  0.48427  0.00417  1.0000
  S   S373      1.0  0.65691  0.42656  0.18638  1.0000
  H   H1127     1.0  0.37743  0.39183  0.97850  1.0000
  H   H1128     1.0  0.63415  0.34370  0.17313  1.0000
  S   S374      1.0  0.33596  0.35950  0.42617  1.0000
  C   C1136     1.0  0.33687  0.42227  0.98564  1.0000
  S   S375      1.0  0.54617  0.24011  0.29944  1.0000
  C   C1137     1.0  0.64527  0.25330  0.47764  1.0000
  H   H1129     1.0  0.33321  0.45618  0.35779  1.0000
  Fe  Fe188     1.0  0.58370  0.35185  0.66320  1.0000
  Fe  Fe189     1.0  0.58630  0.38392  0.62627  1.0000
  S   S376      1.0  0.61788  0.36977  0.61254  1.0000
  S   S377      1.0  0.57138  0.41426  0.61218  1.0000
  C   C1138     1.0  0.61414  0.28166  0.65484  1.0000
  C   C1139     1.0  0.55413  0.30051  0.64368  1.0000
  S   S378      1.0  0.57416  0.35536  0.63415  1.0000
  S   S379      1.0  0.59310  0.38174  0.65624  1.0000
  S   S380      1.0  0.50710  0.37092  0.86014  1.0000
  H   H1130     1.0  0.54921  0.30497  0.90342  1.0000
  H   H1131     1.0  0.61502  0.28393  0.66967  1.0000
  S   S381      1.0  0.47850  0.43515  0.65343  1.0000
  C   C1140     1.0  0.60374  0.44036  0.62795  1.0000
  C   C1141     1.0  0.59667  0.27653  0.90304  1.0000
  H   H1132     1.0  0.40385  0.40353  0.92508  1.0000
  C   C1142     1.0  0.61612  0.24530  0.86068  1.0000
  C   C1143     1.0  0.52979  0.24017  0.47978  1.0000
  N   N93       1.0  0.60577  0.31993  0.53154  1.0000
  Fe  Fe190     1.0  0.60636  0.34073  0.62299  1.0000
  C   C1144     1.0  0.48805  0.24374  0.83980  1.0000
  H   H1133     1.0  0.47082  0.41961  0.61881  1.0000
  Fe  Fe191     1.0  0.42082  0.41256  0.84915  1.0000
  S   S382      1.0  0.44879  0.42617  0.83932  1.0000
  S   S383      1.0  0.42222  0.37960  0.85933  1.0000
  Fe  Fe192     1.0  0.39249  0.45225  0.84172  1.0000
  S   S384      1.0  0.38831  0.46689  0.96311  1.0000
  H   H1134     1.0  0.48578  0.43544  0.81017  1.0000
  Fe  Fe193     1.0  0.43402  0.44435  0.81405  1.0000
  S   S385      1.0  0.45585  0.44614  0.78405  1.0000
  Fe  Fe194     1.0  0.43055  0.45010  0.85630  1.0000
  C   C1145     1.0  0.49245  0.28300  0.96261  1.0000
  S   S386      1.0  0.40715  0.42882  0.82282  1.0000
  S   S387      1.0  0.40412  0.43452  0.86881  1.0000
  H   H1135     1.0  0.59177  0.30142  0.84694  1.0000
  C   C1146     1.0  0.55043  0.33734  0.73121  1.0000
  S   S388      1.0  0.50730  0.35987  0.95168  1.0000
  H   H1136     1.0  0.47142  0.41506  0.74429  1.0000
  C   C1147     1.0  0.34096  0.40721  0.50104  1.0000
  C   C1148     1.0  0.56829  0.31525  0.58063  1.0000
  C   C1149     1.0  0.61801  0.28028  0.85565  1.0000
  S   S389      1.0  0.51337  0.35368  0.81173  1.0000
  S   S390      1.0  0.54316  0.31082  0.80454  1.0000
  S   S391      1.0  0.44094  0.46507  0.87579  1.0000
  Fe  Fe195     1.0  0.37334  0.45686  0.55290  1.0000
  S   S392      1.0  0.39254  0.44883  0.57666  1.0000
  H   H1137     1.0  0.53544  0.26544  0.82821  1.0000
  S   S393      1.0  0.38442  0.44950  0.52212  1.0000
  S   S394      1.0  0.61523  0.33498  0.65281  1.0000
  S   S395      1.0  0.34550  0.44325  0.55853  1.0000
  H   H1138     1.0  0.51154  0.42262  0.85279  1.0000
  S   S396      1.0  0.46534  0.26894  0.92417  1.0000
  H   H1139     1.0  0.35578  0.35687  0.94154  1.0000
  C   C1150     1.0  0.39660  0.35362  0.86485  1.0000
  H   H1140     1.0  0.41028  0.34228  0.86270  1.0000
  C   C1151     1.0  0.33971  0.48140  0.59761  1.0000
  H   H1141     1.0  0.43954  0.47742  0.91213  1.0000
  H   H1142     1.0  0.49149  0.43942  0.84181  1.0000
  H   H1143     1.0  0.54968  0.38918  0.69280  1.0000
  C   C1152     1.0  0.59420  0.28618  0.57402  1.0000
  H   H1144     1.0  0.45202  0.41041  0.59732  1.0000
  C   C1153     1.0  0.53065  0.25684  0.89063  1.0000
  H   H1145     1.0  0.63083  0.29074  0.92034  1.0000
  C   C1154     1.0  0.47890  0.26715  0.94276  1.0000
  C   C1155     1.0  0.48122  0.28451  0.94800  1.0000
  C   C1156     1.0  0.63677  0.46596  0.64442  1.0000
  S   S397      1.0  0.65428  0.37149  0.64520  1.0000
  C   C1157     1.0  0.51070  0.39469  0.97537  1.0000
  H   H1146     1.0  0.47427  0.29911  0.94086  1.0000
  H   H1147     1.0  0.59209  0.31032  0.51233  1.0000
  C   C1158     1.0  0.39813  0.37349  0.86351  1.0000
  C   C1159     1.0  0.38040  0.38815  0.86628  1.0000
  H   H1148     1.0  0.38147  0.40355  0.86520  1.0000
  S   S398      1.0  0.35879  0.46395  0.84937  1.0000
  C   C1160     1.0  0.48451  0.41092  0.73268  1.0000
  C   C1161     1.0  0.44677  0.47350  0.55764  1.0000
  C   C1162     1.0  0.43970  0.45159  0.90036  1.0000
  C   C1163     1.0  0.50003  0.42467  0.80882  1.0000
  C   C1164     1.0  0.43579  0.45177  0.93553  1.0000
  C   C1165     1.0  0.43491  0.43139  0.94026  1.0000
  C   C1166     1.0  0.43737  0.42085  0.92494  1.0000
  C   C1167     1.0  0.43929  0.43105  0.90498  1.0000
  C   C1168     1.0  0.49908  0.24690  0.96659  1.0000
  H   H1149     1.0  0.33597  0.45041  0.89085  1.0000
  H   H1150     1.0  0.43735  0.40494  0.92854  1.0000
  H   H1151     1.0  0.44066  0.42300  0.89320  1.0000
  H   H1152     1.0  0.57417  0.33294  0.53647  1.0000
  C   C1169     1.0  0.41387  0.47496  0.61090  1.0000
  C   C1170     1.0  0.40783  0.46100  0.60320  1.0000
  C   C1171     1.0  0.39858  0.46716  0.58657  1.0000
  C   C1172     1.0  0.48709  0.28430  0.82202  1.0000
  H   H1153     1.0  0.63615  0.28908  0.89414  1.0000
  H   H1154     1.0  0.42116  0.46999  0.62360  1.0000
  H   H1155     1.0  0.41051  0.44530  0.61009  1.0000
  C   C1173     1.0  0.46355  0.46376  0.58619  1.0000
  C   C1174     1.0  0.39352  0.39307  0.92880  1.0000
  C   C1175     1.0  0.48411  0.25078  0.82057  1.0000
  C   C1176     1.0  0.34361  0.38847  0.49569  1.0000
  S   S399      1.0  0.63954  0.24101  0.50263  1.0000
  C   C1177     1.0  0.44658  0.46171  0.76341  1.0000
  H   H1156     1.0  0.60558  0.26236  0.89947  1.0000
  C   C1178     1.0  0.63866  0.42334  0.61972  1.0000
  C   C1179     1.0  0.44932  0.43964  0.57818  1.0000
  Fe  Fe196     1.0  0.46685  0.23838  0.91793  1.0000
  H   H1157     1.0  0.66530  0.40820  0.71796  1.0000
  C   C1180     1.0  0.62725  0.28387  0.90923  1.0000
  H   H1158     1.0  0.58588  0.37188  0.73339  1.0000
  H   H1159     1.0  0.41748  0.47381  0.78041  1.0000
  H   H1160     1.0  0.37628  0.33303  0.86960  1.0000
  C   C1181     1.0  0.50722  0.36637  0.88570  1.0000
  C   C1182     1.0  0.49670  0.38152  0.89638  1.0000
  C   C1183     1.0  0.49673  0.37906  0.91662  1.0000
  C   C1184     1.0  0.50730  0.36142  0.92644  1.0000
  C   C1185     1.0  0.51756  0.34593  0.91595  1.0000
  C   C1186     1.0  0.51753  0.34841  0.89548  1.0000
  H   H1161     1.0  0.48852  0.39532  0.88900  1.0000
  H   H1162     1.0  0.48861  0.39098  0.92468  1.0000
  H   H1163     1.0  0.52546  0.33219  0.92362  1.0000
  H   H1164     1.0  0.52555  0.33664  0.88724  1.0000
  C   C1187     1.0  0.58041  0.32067  0.59115  1.0000
  N   N94       1.0  0.34170  0.46718  0.90999  1.0000
  H   H1165     1.0  0.57501  0.33402  0.59764  1.0000
  H   H1166     1.0  0.55362  0.32458  0.57900  1.0000
  C   C1188     1.0  0.54551  0.42007  0.62345  1.0000
  C   C1189     1.0  0.53479  0.40481  0.63386  1.0000
  C   C1190     1.0  0.51411  0.40957  0.64281  1.0000
  C   C1191     1.0  0.50421  0.42960  0.64171  1.0000
  C   C1192     1.0  0.51497  0.44491  0.63157  1.0000
  C   C1193     1.0  0.53555  0.44013  0.62222  1.0000
  H   H1167     1.0  0.54230  0.38934  0.63475  1.0000
  H   H1168     1.0  0.50582  0.39770  0.65067  1.0000
  H   H1169     1.0  0.50750  0.46043  0.63089  1.0000
  H   H1170     1.0  0.54382  0.45198  0.61424  1.0000
  H   H1171     1.0  0.62937  0.46476  0.66051  1.0000
  C   C1194     1.0  0.64467  0.43701  0.62768  1.0000
  N   N95       1.0  0.63049  0.45189  0.63572  1.0000
  C   C1195     1.0  0.34847  0.46579  0.61121  1.0000
  C   C1196     1.0  0.54657  0.24045  0.88827  1.0000
  N   N96       1.0  0.38290  0.38847  0.94796  1.0000
  H   H1172     1.0  0.35001  0.44165  0.82555  1.0000
  H   H1173     1.0  0.59110  0.34954  0.52130  1.0000
  H   H1174     1.0  0.64949  0.27455  0.52288  1.0000
  S   S400      1.0  0.64746  0.25257  0.87290  1.0000
  H   H1175     1.0  0.40582  0.26111  0.48354  1.0000
  C   C1197     1.0  0.61807  0.42508  0.61987  1.0000
  C   C1198     1.0  0.53620  0.39683  0.80495  1.0000
  H   H1176     1.0  0.35451  0.37599  0.50157  1.0000
  C   C1199     1.0  0.53583  0.25468  0.92374  1.0000
  H   H1177     1.0  0.44084  0.43564  0.56910  1.0000
  C   C1200     1.0  0.55944  0.30738  0.65837  1.0000
  C   C1201     1.0  0.48329  0.27112  0.81183  1.0000
  C   C1202     1.0  0.33783  0.39576  0.83409  1.0000
  H   H1178     1.0  0.47416  0.45280  0.74249  1.0000
  C   C1203     1.0  0.36231  0.46380  0.90273  1.0000
  H   H1179     1.0  0.36569  0.45815  0.63447  1.0000
  H   H1180     1.0  0.62101  0.28228  0.58606  1.0000
  H   H1181     1.0  0.55018  0.38565  0.80372  1.0000
  H   H1182     1.0  0.49464  0.25160  0.86494  1.0000
  N   N97       1.0  0.45314  0.45866  0.57455  1.0000
  N   N98       1.0  0.45574  0.30988  0.87337  1.0000
  C   C1204     1.0  0.46163  0.31765  0.88666  1.0000
  C   C1205     1.0  0.45514  0.32049  0.85445  1.0000
  C   C1206     1.0  0.46682  0.33666  0.88120  1.0000
  C   C1207     1.0  0.46026  0.33949  0.84851  1.0000
  C   C1208     1.0  0.46599  0.34765  0.86202  1.0000
  C   C1209     1.0  0.45049  0.28989  0.87947  1.0000
  H   H1183     1.0  0.46223  0.30917  0.90161  1.0000
  H   H1184     1.0  0.45079  0.31430  0.84375  1.0000
  H   H1185     1.0  0.47140  0.34294  0.89171  1.0000
  H   H1186     1.0  0.45955  0.34795  0.83357  1.0000
  H   H1187     1.0  0.46944  0.36262  0.85770  1.0000
  H   H1188     1.0  0.43882  0.28900  0.89363  1.0000
  H   H1189     1.0  0.44436  0.28601  0.86801  1.0000
  H   H1190     1.0  0.46427  0.27843  0.88200  1.0000
  C   C1210     1.0  0.57642  0.28213  0.90071  1.0000
  H   H1191     1.0  0.59945  0.27101  0.62821  1.0000
  H   H1192     1.0  0.62044  0.28176  0.50603  1.0000
  H   H1193     1.0  0.54850  0.31801  0.66667  1.0000
  H   H1194     1.0  0.65066  0.29711  0.54512  1.0000
  C   C1211     1.0  0.45903  0.46194  0.74429  1.0000
  H   H1195     1.0  0.63298  0.26576  0.95082  1.0000
  S   S401      1.0  0.66010  0.44164  0.68541  1.0000
  C   C1212     1.0  0.42716  0.47387  0.76570  1.0000
  H   H1196     1.0  0.55113  0.26678  0.80339  1.0000
  C   C1213     1.0  0.58922  0.33722  0.53444  1.0000
  N   N99       1.0  0.51800  0.40041  0.70291  1.0000
  C   C1214     1.0  0.50248  0.41581  0.69825  1.0000
  C   C1215     1.0  0.48555  0.42133  0.71303  1.0000
  C   C1216     1.0  0.53529  0.39433  0.68714  1.0000
  H   H1197     1.0  0.50308  0.42393  0.68303  1.0000
  H   H1198     1.0  0.47325  0.43352  0.70917  1.0000
  H   H1199     1.0  0.53252  0.38180  0.68160  1.0000
  H   H1200     1.0  0.53774  0.40695  0.67435  1.0000
  Fe  Fe197     1.0  0.52162  0.34714  0.84177  1.0000
  S   S402      1.0  0.42901  0.41971  0.96539  1.0000
  S   S403      1.0  0.43288  0.47865  0.66072  1.0000
  C   C1217     1.0  0.54158  0.25750  0.81541  1.0000
  H   H1201     1.0  0.60109  0.31678  0.91866  1.0000
  C   C1218     1.0  0.65579  0.39037  0.65729  1.0000
  H   H1202     1.0  0.58324  0.30646  0.67333  1.0000
  H   H1203     1.0  0.66068  0.43527  0.62785  1.0000
  H   H1204     1.0  0.50050  0.42377  0.77833  1.0000
  C   C1219     1.0  0.60510  0.30769  0.51928  1.0000
  H   H1205     1.0  0.56472  0.28201  0.62119  1.0000
  C   C1220     1.0  0.63848  0.40045  0.66874  1.0000
  S   S404      1.0  0.54860  0.24620  0.54106  1.0000
  Fe  Fe198     1.0  0.35493  0.43895  0.52659  1.0000
  S   S405      1.0  0.56170  0.34027  0.69072  1.0000
  C   C1221     1.0  0.56309  0.34527  0.71361  1.0000
  S   S406      1.0  0.33757  0.46891  0.51442  1.0000
  S   S407      1.0  0.61566  0.31523  0.60556  1.0000
  H   H1206     1.0  0.49958  0.38669  0.75244  1.0000
  C   C1222     1.0  0.57917  0.30080  0.66209  1.0000
  C   C1223     1.0  0.56337  0.35425  0.75042  1.0000
  C   C1224     1.0  0.59955  0.30891  0.59299  1.0000
  C   C1225     1.0  0.57592  0.35767  0.71444  1.0000
  H   H1207     1.0  0.53319  0.39862  0.77489  1.0000
  C   C1226     1.0  0.36117  0.38275  0.87104  1.0000
  C   C1227     1.0  0.51699  0.38996  0.72208  1.0000
  H   H1208     1.0  0.62665  0.42366  0.68634  1.0000
  C   C1228     1.0  0.57594  0.36226  0.73280  1.0000
  S   S408      1.0  0.56340  0.36052  0.77316  1.0000
  Fe  Fe199     1.0  0.62401  0.36542  0.64328  1.0000
  H   H1209     1.0  0.58582  0.36375  0.70096  1.0000
  H   H1210     1.0  0.56996  0.27258  0.89491  1.0000
  Fe  Fe200     1.0  0.54663  0.34261  0.80071  1.0000
  S   S409      1.0  0.55528  0.33822  0.83045  1.0000
  C   C1229     1.0  0.50031  0.39509  0.73727  1.0000
  H   H1211     1.0  0.52912  0.37753  0.72572  1.0000
  C   C1230     1.0  0.55060  0.34178  0.74959  1.0000
  C   C1231     1.0  0.37740  0.34839  0.86878  1.0000
  H   H1212     1.0  0.54072  0.33567  0.76308  1.0000
  H   H1213     1.0  0.48921  0.41371  0.85264  1.0000
  C   C1232     1.0  0.58775  0.27087  0.85170  1.0000
  N   N100      1.0  0.59319  0.28763  0.65154  1.0000
  C   C1233     1.0  0.45201  0.47402  0.72749  1.0000
  H   H1214     1.0  0.62385  0.39631  0.67084  1.0000
  C   C1234     1.0  0.35966  0.36288  0.87215  1.0000
  H   H1215     1.0  0.39126  0.47077  0.90258  1.0000
  S   S410      1.0  0.51557  0.31598  0.84955  1.0000
  Fe  Fe201     1.0  0.51061  0.32141  0.81842  1.0000
  C   C1235     1.0  0.34079  0.43012  0.83085  1.0000
  C   C1236     1.0  0.60626  0.29153  0.58462  1.0000
  C   C1237     1.0  0.57381  0.31289  0.91181  1.0000
  H   H1216     1.0  0.46652  0.47885  0.58340  1.0000
  C   C1238     1.0  0.57525  0.29817  0.57175  1.0000
  H   H1217     1.0  0.54041  0.32780  0.73064  1.0000
  H   H1218     1.0  0.62597  0.29171  0.85608  1.0000
  Fe  Fe202     1.0  0.54851  0.30731  0.83533  1.0000
  H   H1219     1.0  0.59976  0.27303  0.56727  1.0000
  C   C1239     1.0  0.59862  0.28577  0.85065  1.0000
  H   H1220     1.0  0.34821  0.45035  0.61114  1.0000
  N   N101      1.0  0.50959  0.41749  0.82462  1.0000
  S   S411      1.0  0.59514  0.24043  0.54901  1.0000
  S   S412      1.0  0.56050  0.29315  0.55689  1.0000
  H   H1221     1.0  0.50779  0.40019  0.95999  1.0000
  C   C1240     1.0  0.35833  0.47017  0.62425  1.0000
  H   H1222     1.0  0.53900  0.30579  0.64038  1.0000
  H   H1223     1.0  0.51283  0.27678  0.91045  1.0000
  S   S413      1.0  0.48669  0.30957  0.81071  1.0000
  H   H1224     1.0  0.49397  0.28723  0.84922  1.0000
  C   C1241     1.0  0.49129  0.27716  0.84114  1.0000
  S   S414      1.0  0.58194  0.26999  0.50855  1.0000
  Fe  Fe203     1.0  0.60587  0.24309  0.51585  1.0000
  C   C1242     1.0  0.46600  0.43044  0.60622  1.0000
  C   C1243     1.0  0.52524  0.26408  0.90844  1.0000
  C   C1244     1.0  0.37485  0.47376  0.90815  1.0000
  S   S415      1.0  0.41792  0.46965  0.83034  1.0000
  C   C1245     1.0  0.43855  0.46175  0.91560  1.0000
  S   S416      1.0  0.54090  0.30427  0.95968  1.0000
  C   C1246     1.0  0.59663  0.25071  0.85655  1.0000
  H   H1225     1.0  0.52267  0.26403  0.87858  1.0000
  C   C1247     1.0  0.37780  0.37106  0.91836  1.0000
  C   C1248     1.0  0.59426  0.30701  0.91352  1.0000
  N   N102      1.0  0.60541  0.28904  0.90910  1.0000
  H   H1226     1.0  0.34450  0.38053  0.83189  1.0000
  C   C1249     1.0  0.52738  0.40364  0.82290  1.0000
  H   H1227     1.0  0.59901  0.46548  0.64228  1.0000
  H   H1228     1.0  0.53175  0.26054  0.93745  1.0000
  S   S417      1.0  0.54976  0.25128  0.48122  1.0000
  H   H1229     1.0  0.58019  0.24946  0.81952  1.0000
  H   H1230     1.0  0.62014  0.26556  0.65418  1.0000
  C   C1250     1.0  0.58811  0.28082  0.63711  1.0000
  C   C1251     1.0  0.34945  0.41078  0.82715  1.0000
  H   H1231     1.0  0.46169  0.47397  0.71290  1.0000
  H   H1232     1.0  0.34753  0.39405  0.87342  1.0000
  C   C1252     1.0  0.50001  0.42369  0.84386  1.0000
  Fe  Fe204     1.0  0.56996  0.26597  0.54172  1.0000
  Fe  Fe205     1.0  0.36632  0.47986  0.51213  1.0000
  C   C1253     1.0  0.63805  0.30011  0.53757  1.0000
  C   C1254     1.0  0.39131  0.38430  0.91377  1.0000
  C   C1255     1.0  0.56492  0.30042  0.90518  1.0000
  H   H1233     1.0  0.48142  0.24058  0.81253  1.0000
  S   S418      1.0  0.56243  0.27639  0.84886  1.0000
  C   C1256     1.0  0.62095  0.29141  0.51581  1.0000
  Fe  Fe206     1.0  0.46666  0.46812  0.65219  1.0000
  H   H1234     1.0  0.43441  0.45986  0.94728  1.0000
  C   C1257     1.0  0.48812  0.24838  0.95190  1.0000
  H   H1235     1.0  0.62262  0.32610  0.55031  1.0000
  C   C1258     1.0  0.36673  0.36675  0.93783  1.0000
  C   C1259     1.0  0.64012  0.41594  0.67752  1.0000
  H   H1236     1.0  0.48002  0.27658  0.79703  1.0000
  C   C1260     1.0  0.62644  0.25996  0.86129  1.0000
  H   H1237     1.0  0.36905  0.45331  0.89272  1.0000
  C   C1261     1.0  0.57336  0.23621  0.82332  1.0000
  C   C1262     1.0  0.47018  0.44971  0.60212  1.0000
  C   C1263     1.0  0.49152  0.25697  0.85012  1.0000
  H   H1238     1.0  0.58767  0.44173  0.62809  1.0000
  C   C1264     1.0  0.58379  0.26016  0.96968  1.0000
  H   H1239     1.0  0.47840  0.45373  0.61138  1.0000
  H   H1240     1.0  0.40229  0.39463  0.96394  1.0000
  H   H1241     1.0  0.62413  0.29079  0.64312  1.0000
  S   S419      1.0  0.33581  0.35589  0.87747  1.0000
  C   C1265     1.0  0.60058  0.26971  0.96261  1.0000
  C   C1266     1.0  0.65900  0.42161  0.67474  1.0000
  C   C1267     1.0  0.45552  0.42531  0.59418  1.0000
  C   C1268     1.0  0.36964  0.37546  0.95258  1.0000
  S   S420      1.0  0.59725  0.29557  0.96172  1.0000
  H   H1242     1.0  0.56499  0.32707  0.91557  1.0000
  H   H1243     1.0  0.61319  0.41452  0.61384  1.0000
  C   C1269     1.0  0.62211  0.31652  0.54043  1.0000
  C   C1270     1.0  0.52658  0.40409  0.78876  1.0000
  C   C1271     1.0  0.56850  0.28707  0.63301  1.0000
  H   H1244     1.0  0.58826  0.23911  0.85770  1.0000
  H   H1245     1.0  0.36103  0.37182  0.96767  1.0000
  C   C1272     1.0  0.61981  0.25863  0.95577  1.0000
  H   H1246     1.0  0.36522  0.40737  0.81937  1.0000
  C   C1273     1.0  0.61025  0.45370  0.63590  1.0000
  H   H1247     1.0  0.37585  0.36413  0.90690  1.0000
  H   H1248     1.0  0.40005  0.38773  0.89867  1.0000
  H   H1249     1.0  0.52858  0.25629  0.80940  1.0000
  H   H1250     1.0  0.53461  0.39741  0.83562  1.0000
  H   H1251     1.0  0.63234  0.26736  0.91320  1.0000
  Fe  Fe207     1.0  0.56316  0.24772  0.50847  1.0000
  H   H1252     1.0  0.58885  0.34280  0.54808  1.0000
  S   S421      1.0  0.35464  0.40953  0.51831  1.0000
  C   C1274     1.0  0.38585  0.39771  0.96339  1.0000
  C   C1275     1.0  0.63739  0.28747  0.52519  1.0000
  H   H1253     1.0  0.64984  0.41112  0.61399  1.0000
  C   C1276     1.0  0.50836  0.41811  0.79067  1.0000
  H   H1254     1.0  0.38043  0.41421  0.96010  1.0000
  H   H1255     1.0  0.65353  0.46276  0.64357  1.0000
  H   H1256     1.0  0.33428  0.37114  0.47903  1.0000
  C   C1277     1.0  0.66202  0.43699  0.73836  1.0000
  Fe  Fe208     1.0  0.52459  0.33316  0.96921  1.0000
  N   N103      1.0  0.55359  0.23777  0.82191  1.0000
  C   C1278     1.0  0.50115  0.26412  0.97215  1.0000
  H   H1257     1.0  0.49409  0.29641  0.96670  1.0000
  H   H1258     1.0  0.47227  0.39993  0.97073  1.0000
  H   H1259     1.0  0.43397  0.46973  0.55315  1.0000
  Fe  Fe209     1.0  0.56453  0.30600  0.97565  1.0000
  H   H1260     1.0  0.65129  0.43998  0.72810  1.0000
  S   S422      1.0  0.47450  0.48482  0.67171  1.0000
  H   H1261     1.0  0.63246  0.48159  0.63651  1.0000
  H   H1262     1.0  0.45979  0.47421  0.54466  1.0000
  C   C1279     1.0  0.58619  0.23966  0.97009  1.0000
  H   H1263     1.0  0.65415  0.43134  0.75377  1.0000
  H   H1264     1.0  0.44122  0.24130  0.48207  1.0000
  N   N104      1.0  0.55111  0.23833  0.92145  1.0000
  H   H1265     1.0  0.52549  0.38391  0.97391  1.0000
  C   C1280     1.0  0.62203  0.23827  0.95521  1.0000
  H   H1266     1.0  0.56885  0.26850  0.97476  1.0000
  H   H1267     1.0  0.66606  0.45163  0.73780  1.0000
  H   H1268     1.0  0.57546  0.23633  0.93549  1.0000
  Fe  Fe210     1.0  0.46473  0.72299  0.41100  1.0000
  S   S423      1.0  0.49487  0.70760  0.39521  1.0000
  H   H1269     1.0  0.59713  0.62504  0.11494  1.0000
  H   H1270     1.0  0.44082  0.49579  0.04157  1.0000
  C   C1281     1.0  0.59767  0.64902  0.08949  1.0000
  C   C1282     1.0  0.52622  0.71303  0.33823  1.0000
  S   S424      1.0  0.64629  0.51408  0.19988  1.0000
  C   C1283     1.0  0.37463  0.53624  0.46137  1.0000
  Fe  Fe211     1.0  0.53582  0.60721  0.17177  1.0000
  S   S425      1.0  0.56076  0.60463  0.18831  1.0000
  S   S426      1.0  0.51079  0.58875  0.18217  1.0000
  Fe  Fe212     1.0  0.54927  0.64204  0.14027  1.0000
  S   S427      1.0  0.57530  0.64257  0.15369  1.0000
  S   S428      1.0  0.54207  0.66497  0.11338  1.0000
  Fe  Fe213     1.0  0.58059  0.60907  0.15743  1.0000
  S   S429      1.0  0.61253  0.59364  0.14576  1.0000
  Fe  Fe214     1.0  0.55367  0.63842  0.18342  1.0000
  S   S430      1.0  0.54814  0.65897  0.20586  1.0000
  S   S431      1.0  0.55635  0.60895  0.14144  1.0000
  S   S432      1.0  0.52696  0.64060  0.16955  1.0000
  Fe  Fe215     1.0  0.57923  0.66575  0.00426  1.0000
  S   S433      1.0  0.56780  0.64095  0.02818  1.0000
  H   H1271     1.0  0.60537  0.56529  0.23673  1.0000
  H   H1272     1.0  0.36310  0.62481  0.47416  1.0000
  H   H1273     1.0  0.63507  0.73526  0.42721  1.0000
  C   C1284     1.0  0.38144  0.60719  0.44291  1.0000
  S   S434      1.0  0.43846  0.50633  0.07897  1.0000
  C   C1285     1.0  0.39067  0.52713  0.05910  1.0000
  H   H1274     1.0  0.51406  0.72268  0.27137  1.0000
  H   H1275     1.0  0.36756  0.69824  0.38682  1.0000
  Fe  Fe216     1.0  0.41939  0.51599  0.15243  1.0000
  S   S435      1.0  0.43115  0.53536  0.12325  1.0000
  Fe  Fe217     1.0  0.43952  0.50702  0.11082  1.0000
  C   C1286     1.0  0.56490  0.71319  0.37298  1.0000
  Fe  Fe218     1.0  0.46132  0.52622  0.13283  1.0000
  S   S436      1.0  0.48394  0.54737  0.12421  1.0000
  S   S437      1.0  0.55930  0.69406  0.99221  1.0000
  S   S438      1.0  0.44896  0.50891  0.16302  1.0000
  C   C1287     1.0  0.37868  0.51067  0.28812  1.0000
  H   H1276     1.0  0.60874  0.64260  0.04132  1.0000
  S   S439      1.0  0.61553  0.72484  0.27271  1.0000
  H   H1277     1.0  0.34403  0.53014  0.35916  1.0000
  S   S440      1.0  0.60183  0.67820  0.25758  1.0000
  H   H1278     1.0  0.42334  0.68437  0.40526  1.0000
  S   S441      1.0  0.38812  0.52725  0.17012  1.0000
  H   H1279     1.0  0.55935  0.70201  0.38612  1.0000
  H   H1280     1.0  0.45681  0.59139  0.13451  1.0000
  C   C1288     1.0  0.50476  0.57558  0.16646  1.0000
  C   C1289     1.0  0.51561  0.57553  0.14680  1.0000
  C   C1290     1.0  0.50956  0.56604  0.13432  1.0000
  C   C1291     1.0  0.49268  0.55643  0.14135  1.0000
  C   C1292     1.0  0.48211  0.55606  0.16115  1.0000
  C   C1293     1.0  0.48813  0.56564  0.17362  1.0000
  H   H1281     1.0  0.52850  0.58297  0.14111  1.0000
  H   H1282     1.0  0.51777  0.56643  0.11901  1.0000
  H   H1283     1.0  0.46902  0.54881  0.16670  1.0000
  H   H1284     1.0  0.47968  0.56555  0.18882  1.0000
  C   C1294     1.0  0.54815  0.65795  0.08990  1.0000
  C   C1295     1.0  0.55169  0.63785  0.08806  1.0000
  C   C1296     1.0  0.55695  0.63275  0.06904  1.0000
  C   C1297     1.0  0.55922  0.64768  0.05182  1.0000
  C   C1298     1.0  0.55555  0.66776  0.05367  1.0000
  C   C1299     1.0  0.54977  0.67288  0.07267  1.0000
  H   H1285     1.0  0.55036  0.62625  0.10124  1.0000
  H   H1286     1.0  0.55981  0.61720  0.06763  1.0000
  H   H1287     1.0  0.55719  0.67938  0.04047  1.0000
  C   C1300     1.0  0.63546  0.53355  0.18271  1.0000
  C   C1301     1.0  0.64713  0.54031  0.16404  1.0000
  C   C1302     1.0  0.63956  0.55841  0.15222  1.0000
  C   C1303     1.0  0.62020  0.56946  0.15890  1.0000
  C   C1304     1.0  0.60799  0.56188  0.17686  1.0000
  C   C1305     1.0  0.61568  0.54402  0.18883  1.0000
  C   C1306     1.0  0.63327  0.59391  0.18764  1.0000
  H   H1288     1.0  0.64900  0.56417  0.13823  1.0000
  H   H1289     1.0  0.59295  0.57015  0.18196  1.0000
  H   H1290     1.0  0.60656  0.53869  0.20319  1.0000
  C   C1307     1.0  0.42584  0.49025  0.07260  1.0000
  C   C1308     1.0  0.58890  0.67391  0.24059  1.0000
  C   C1309     1.0  0.57391  0.68876  0.23279  1.0000
  C   C1310     1.0  0.56262  0.68432  0.22082  1.0000
  C   C1311     1.0  0.56607  0.66499  0.21659  1.0000
  C   C1312     1.0  0.46826  0.60037  0.12651  1.0000
  H   H1291     1.0  0.55066  0.69578  0.21535  1.0000
  H   H1292     1.0  0.38682  0.59149  0.45002  1.0000
  H   H1293     1.0  0.39559  0.50629  0.28488  1.0000
  S   S442      1.0  0.43515  0.72926  0.40077  1.0000
  H   H1294     1.0  0.37393  0.51515  0.30299  1.0000
  H   H1295     1.0  0.33451  0.55472  0.41607  1.0000
  H   H1296     1.0  0.36859  0.56474  0.44207  1.0000
  S   S443      1.0  0.42548  0.48836  0.13917  1.0000
  N   N105      1.0  0.49056  0.62196  0.12670  1.0000
  C   C1313     1.0  0.49925  0.62144  0.10704  1.0000
  C   C1314     1.0  0.38066  0.51538  0.19503  1.0000
  C   C1315     1.0  0.33540  0.54190  0.42816  1.0000
  H   H1297     1.0  0.61249  0.60721  0.05838  1.0000
  H   H1298     1.0  0.51155  0.62944  0.09937  1.0000
  C   C1316     1.0  0.47711  0.59963  0.10652  1.0000
  H   H1299     1.0  0.59482  0.59103  0.11135  1.0000
  H   H1300     1.0  0.37209  0.49741  0.28886  1.0000
  H   H1301     1.0  0.47242  0.59017  0.09898  1.0000
  C   C1317     1.0  0.37609  0.51632  0.05890  1.0000
  N   N106      1.0  0.60493  0.61406  0.08768  1.0000
  H   H1302     1.0  0.50957  0.62143  0.14608  1.0000
  H   H1303     1.0  0.35061  0.53385  0.19833  1.0000
  S   S444      1.0  0.39672  0.69838  0.44073  1.0000
  Fe  Fe219     1.0  0.36024  0.62463  0.39543  1.0000
  C   C1318     1.0  0.51998  0.68097  0.25201  1.0000
  H   H1304     1.0  0.36677  0.51002  0.07279  1.0000
  H   H1305     1.0  0.36453  0.67837  0.44255  1.0000
  H   H1306     1.0  0.50967  0.71258  0.98314  1.0000
  C   C1319     1.0  0.41556  0.63896  0.44852  1.0000
  C   C1320     1.0  0.40788  0.62580  0.44144  1.0000
  S   S445      1.0  0.60747  0.72475  0.33302  1.0000
  S   S446      1.0  0.57786  0.70507  0.30292  1.0000
  C   C1321     1.0  0.39384  0.49968  0.20444  1.0000
  Fe  Fe220     1.0  0.42219  0.71621  0.43236  1.0000
  H   H1307     1.0  0.54060  0.70591  0.33035  1.0000
  C   C1322     1.0  0.60717  0.59301  0.09782  1.0000
  H   H1308     1.0  0.49992  0.60948  0.08122  1.0000
  H   H1309     1.0  0.38829  0.53073  0.45115  1.0000
  H   H1310     1.0  0.46932  0.61097  0.15239  1.0000
  C   C1323     1.0  0.50117  0.71522  0.36921  1.0000
  N   N107      1.0  0.54133  0.67530  0.27577  1.0000
  C   C1324     1.0  0.53390  0.69442  0.27920  1.0000
  C   C1325     1.0  0.53429  0.66838  0.26265  1.0000
  H   H1311     1.0  0.34570  0.53960  0.29267  1.0000
  C   C1326     1.0  0.64668  0.73194  0.31671  1.0000
  C   C1327     1.0  0.36852  0.72262  0.40036  1.0000
  C   C1328     1.0  0.55628  0.66188  0.28683  1.0000
  C   C1329     1.0  0.33571  0.56232  0.35551  1.0000
  H   H1312     1.0  0.54029  0.65331  0.25973  1.0000
  Fe  Fe221     1.0  0.33514  0.59930  0.42931  1.0000
  N   N108      1.0  0.40327  0.53409  0.04172  1.0000
  C   C1330     1.0  0.37531  0.54316  0.23805  1.0000
  H   H1313     1.0  0.36292  0.52603  0.41238  1.0000
  H   H1314     1.0  0.39557  0.51682  0.24922  1.0000
  C   C1331     1.0  0.37073  0.49305  0.43954  1.0000
  H   H1315     1.0  0.60631  0.58301  0.08806  1.0000
  C   C1332     1.0  0.35412  0.51215  0.22524  1.0000
  C   C1333     1.0  0.61319  0.57360  0.22308  1.0000
  H   H1316     1.0  0.48622  0.63970  0.14877  1.0000
  C   C1334     1.0  0.63211  0.72948  0.99285  1.0000
  H   H1317     1.0  0.43002  0.64335  0.44084  1.0000
  H   H1318     1.0  0.52923  0.69354  0.36645  1.0000
  Fe  Fe222     1.0  0.59321  0.70679  0.27046  1.0000
  C   C1335     1.0  0.34559  0.56263  0.46911  1.0000
  H   H1319     1.0  0.36446  0.61023  0.44605  1.0000
  H   H1320     1.0  0.50661  0.64432  0.12777  1.0000
  S   S447      1.0  0.45228  0.70749  0.44200  1.0000
  C   C1336     1.0  0.36722  0.49639  0.23466  1.0000
  H   H1321     1.0  0.62069  0.73507  0.36409  1.0000
  C   C1337     1.0  0.37649  0.67477  0.42994  1.0000
  H   H1322     1.0  0.59871  0.66965  0.06132  1.0000
  C   C1338     1.0  0.37418  0.66179  0.41852  1.0000
  C   C1339     1.0  0.37425  0.71125  0.38527  1.0000
  C   C1340     1.0  0.34685  0.55582  0.26262  1.0000
  Fe  Fe223     1.0  0.34295  0.59110  0.38724  1.0000
  H   H1323     1.0  0.36050  0.65557  0.42235  1.0000
  H   H1324     1.0  0.50193  0.71068  0.24658  1.0000
  C   C1341     1.0  0.59986  0.62882  0.09878  1.0000
  C   C1342     1.0  0.36087  0.52170  0.20555  1.0000
  C   C1343     1.0  0.47540  0.61146  0.13652  1.0000
  Fe  Fe224     1.0  0.61796  0.67798  0.97816  1.0000
  H   H1325     1.0  0.41937  0.66127  0.38512  1.0000
  C   C1344     1.0  0.38214  0.52803  0.25318  1.0000
  H   H1326     1.0  0.57071  0.70358  0.23624  1.0000
  C   C1345     1.0  0.49864  0.63241  0.13781  1.0000
  H   H1327     1.0  0.63149  0.71016  0.45893  1.0000
  H   H1328     1.0  0.61777  0.72514  0.00111  1.0000
  H   H1329     1.0  0.57019  0.70550  0.35993  1.0000
  H   H1330     1.0  0.35178  0.56860  0.23118  1.0000
  H   H1331     1.0  0.38666  0.60888  0.42642  1.0000
  H   H1332     1.0  0.59270  0.66070  0.09841  1.0000
  H   H1333     1.0  0.58757  0.59801  0.22037  1.0000
  H   H1334     1.0  0.39248  0.52909  0.07335  1.0000
  N   N109      1.0  0.54880  0.73071  0.36924  1.0000
  H   H1335     1.0  0.58419  0.63531  0.22088  1.0000
  H   H1336     1.0  0.38648  0.51677  0.00903  1.0000
  C   C1346     1.0  0.38926  0.71627  0.36855  1.0000
  H   H1337     1.0  0.34895  0.49356  0.18297  1.0000
  H   H1338     1.0  0.51518  0.67564  0.24095  1.0000
  H   H1339     1.0  0.56629  0.67044  0.29018  1.0000
  S   S448      1.0  0.47065  0.49940  0.11792  1.0000
  N   N110      1.0  0.64287  0.57582  0.19665  1.0000
  C   C1347     1.0  0.63320  0.56577  0.21428  1.0000
  H   H1340     1.0  0.64068  0.55124  0.22122  1.0000
  C   C1348     1.0  0.51413  0.72927  0.32817  1.0000
  C   C1349     1.0  0.61329  0.60220  0.19607  1.0000
  S   S449      1.0  0.34847  0.56320  0.37403  1.0000
  C   C1350     1.0  0.66395  0.56755  0.18779  1.0000
  C   C1351     1.0  0.33875  0.50916  0.45904  1.0000
  C   C1352     1.0  0.53270  0.73546  0.38436  1.0000
  H   H1341     1.0  0.60555  0.61630  0.18859  1.0000
  H   H1342     1.0  0.53129  0.72599  0.39907  1.0000
  H   H1343     1.0  0.39421  0.70720  0.35703  1.0000
  C   C1353     1.0  0.38729  0.51988  0.02316  1.0000
  H   H1344     1.0  0.41922  0.55838  0.03078  1.0000
  H   H1345     1.0  0.41201  0.53566  0.01013  1.0000
  H   H1346     1.0  0.41748  0.54827  0.05701  1.0000
  C   C1354     1.0  0.60853  0.61884  0.06726  1.0000
  C   C1355     1.0  0.38966  0.65673  0.40239  1.0000
  C   C1356     1.0  0.35421  0.54059  0.27738  1.0000
  N   N111      1.0  0.37171  0.52704  0.27258  1.0000
  S   S450      1.0  0.36379  0.59142  0.40703  1.0000
  S   S451      1.0  0.60184  0.68127  0.00942  1.0000
  C   C1357     1.0  0.39423  0.68291  0.42531  1.0000
  H   H1347     1.0  0.53915  0.69983  0.28987  1.0000
  S   S452      1.0  0.38775  0.63968  0.38827  1.0000
  H   H1348     1.0  0.54695  0.68846  0.07401  1.0000
  C   C1358     1.0  0.60104  0.65404  0.06870  1.0000
  C   C1359     1.0  0.58159  0.65030  0.22376  1.0000
  H   H1349     1.0  0.62205  0.58812  0.10262  1.0000
  H   H1350     1.0  0.64515  0.72825  0.30315  1.0000
  C   C1360     1.0  0.36343  0.55551  0.45616  1.0000
  C   C1361     1.0  0.49267  0.61027  0.09666  1.0000
  C   C1362     1.0  0.40959  0.67819  0.40896  1.0000
  C   C1363     1.0  0.59296  0.65478  0.23568  1.0000
  H   H1351     1.0  0.41668  0.61994  0.42824  1.0000
  C   C1364     1.0  0.60664  0.63887  0.05748  1.0000
  C   C1365     1.0  0.40731  0.66509  0.39759  1.0000
  C   C1366     1.0  0.60320  0.59192  0.21388  1.0000
  H   H1352     1.0  0.60457  0.64320  0.24161  1.0000
  C   C1367     1.0  0.51970  0.70597  0.35867  1.0000
  H   H1353     1.0  0.34041  0.49680  0.47152  1.0000
  C   C1368     1.0  0.37788  0.62872  0.46692  1.0000
  H   H1354     1.0  0.56665  0.65100  0.27779  1.0000
  N   N112      1.0  0.35300  0.50943  0.44152  1.0000
  H   H1355     1.0  0.54834  0.65367  0.30101  1.0000
  C   C1369     1.0  0.41934  0.54434  0.04215  1.0000
  C   C1370     1.0  0.65025  0.71534  0.99328  1.0000
  N   N113      1.0  0.38915  0.62107  0.45049  1.0000
  C   C1371     1.0  0.40174  0.53058  0.02389  1.0000
  Fe  Fe225     1.0  0.59791  0.72568  0.30416  1.0000
  H   H1356     1.0  0.33870  0.51685  0.23294  1.0000
  H   H1357     1.0  0.64078  0.60176  0.17352  1.0000
  H   H1358     1.0  0.38347  0.54368  0.22263  1.0000
  C   C1372     1.0  0.63067  0.73112  0.33347  1.0000
  C   C1373     1.0  0.35749  0.55706  0.24283  1.0000
  C   C1374     1.0  0.40397  0.64720  0.46499  1.0000
  H   H1359     1.0  0.43447  0.53428  0.03921  1.0000
  H   H1360     1.0  0.57819  0.71798  0.37543  1.0000
  C   C1375     1.0  0.37450  0.51260  0.04082  1.0000
  Fe  Fe226     1.0  0.58351  0.70912  0.99467  1.0000
  C   C1376     1.0  0.39806  0.73276  0.36693  1.0000
  H   H1361     1.0  0.35745  0.71813  0.41371  1.0000
  S   S453      1.0  0.34224  0.62361  0.37309  1.0000
  C   C1377     1.0  0.35148  0.52554  0.42617  1.0000
  C   C1378     1.0  0.38505  0.64201  0.47433  1.0000
  C   C1379     1.0  0.33686  0.49150  0.19613  1.0000
  H   H1362     1.0  0.36391  0.50341  0.04063  1.0000
  S   S454      1.0  0.57079  0.73359  0.25962  1.0000
  H   H1363     1.0  0.38437  0.49797  0.44105  1.0000
  C   C1380     1.0  0.48875  0.73113  0.35909  1.0000
  C   C1381     1.0  0.60328  0.72726  0.47260  1.0000
  C   C1382     1.0  0.51961  0.70742  0.26880  1.0000
  Fe  Fe227     1.0  0.55689  0.73305  0.29210  1.0000
  C   C1383     1.0  0.33614  0.54366  0.35107  1.0000
  C   C1384     1.0  0.51272  0.70065  0.25503  1.0000
  H   H1364     1.0  0.40915  0.49472  0.19642  1.0000
  C   C1385     1.0  0.61990  0.72358  0.45700  1.0000
  H   H1365     1.0  0.64994  0.70009  0.00138  1.0000
  C   C1386     1.0  0.38714  0.49026  0.22425  1.0000
  C   C1387     1.0  0.63297  0.73574  0.35105  1.0000
  Fe  Fe228     1.0  0.39388  0.48767  0.97987  1.0000
  H   H1366     1.0  0.37374  0.48853  0.42483  1.0000
  C   C1388     1.0  0.42941  0.48855  0.05250  1.0000
  H   H1367     1.0  0.66240  0.53221  0.15923  1.0000
  H   H1368     1.0  0.40941  0.65807  0.47010  1.0000
  H   H1369     1.0  0.35223  0.52053  0.60858  1.0000
  C   C1389     1.0  0.36161  0.52720  0.95753  1.0000
  H   H1370     1.0  0.58419  0.57019  0.72629  1.0000
  H   H1371     1.0  0.44117  0.48858  0.56173  1.0000
  H   H1372     1.0  0.64028  0.70654  0.91714  1.0000
  C   C1390     1.0  0.53846  0.71568  0.84629  1.0000
  H   H1373     1.0  0.37556  0.49480  0.92585  1.0000
  C   C1391     1.0  0.62364  0.55264  0.72255  1.0000
  H   H1374     1.0  0.43361  0.54397  0.70031  1.0000
  C   C1392     1.0  0.65082  0.51974  0.67490  1.0000
  Fe  Fe229     1.0  0.57175  0.62558  0.65866  1.0000
  S   S455      1.0  0.54123  0.63490  0.67808  1.0000
  S   S456      1.0  0.58692  0.64537  0.63136  1.0000
  Fe  Fe230     1.0  0.57789  0.58337  0.68305  1.0000
  S   S457      1.0  0.54797  0.58962  0.70428  1.0000
  S   S458      1.0  0.59398  0.55132  0.68954  1.0000
  Fe  Fe231     1.0  0.53555  0.60476  0.67693  1.0000
  S   S459      1.0  0.50533  0.60009  0.67319  1.0000
  Fe  Fe232     1.0  0.55676  0.61874  0.70360  1.0000
  S   S460      1.0  0.55033  0.62912  0.73321  1.0000
  S   S461      1.0  0.56498  0.59667  0.65560  1.0000
  S   S462      1.0  0.58778  0.61133  0.68429  1.0000
  Fe  Fe233     1.0  0.59198  0.66380  0.84178  1.0000
  S   S463      1.0  0.59640  0.69458  0.84145  1.0000
  S   S464      1.0  0.58351  0.64465  0.87207  1.0000
  Fe  Fe234     1.0  0.60672  0.66750  0.79658  1.0000
  S   S465      1.0  0.61297  0.69850  0.79308  1.0000
  S   S466      1.0  0.61486  0.65457  0.76818  1.0000
  Fe  Fe235     1.0  0.58278  0.70339  0.81434  1.0000
  H   H1375     1.0  0.37865  0.55105  0.91863  1.0000
  S   S467      1.0  0.57552  0.67329  0.81622  1.0000
  H   H1376     1.0  0.37706  0.54239  0.86099  1.0000
  S   S468      1.0  0.56534  0.70100  0.93495  1.0000
  H   H1377     1.0  0.46486  0.56732  0.71714  1.0000
  C   C1393     1.0  0.35949  0.49001  0.62343  1.0000
  C   C1394     1.0  0.63504  0.66290  0.90740  1.0000
  S   S469      1.0  0.59681  0.66018  0.97390  1.0000
  H   H1378     1.0  0.62019  0.60235  0.71675  1.0000
  C   C1395     1.0  0.38445  0.54269  0.90658  1.0000
  C   C1396     1.0  0.51457  0.71785  0.96683  1.0000
  S   S470      1.0  0.33674  0.55518  0.85663  1.0000
  Fe  Fe236     1.0  0.47610  0.50997  0.64521  1.0000
  H   H1379     1.0  0.62081  0.51354  0.68881  1.0000
  H   H1380     1.0  0.55482  0.70693  0.89706  1.0000
  H   H1381     1.0  0.52233  0.69183  0.77761  1.0000
  H   H1382     1.0  0.47222  0.58531  0.66716  1.0000
  C   C1397     1.0  0.52778  0.66768  0.95184  1.0000
  C   C1398     1.0  0.41045  0.49529  0.60217  1.0000
  S   S471      1.0  0.50381  0.52439  0.63859  1.0000
  C   C1399     1.0  0.56689  0.67928  0.88641  1.0000
  C   C1400     1.0  0.64440  0.54700  0.71442  1.0000
  C   C1401     1.0  0.48560  0.55863  0.65459  1.0000
  H   H1383     1.0  0.66172  0.56629  0.65574  1.0000
  C   C1402     1.0  0.53762  0.69392  0.76987  1.0000
  C   C1403     1.0  0.37738  0.53466  0.96082  1.0000
  H   H1384     1.0  0.51052  0.69645  0.91113  1.0000
  C   C1404     1.0  0.62001  0.54527  0.67882  1.0000
  C   C1405     1.0  0.66249  0.53459  0.66602  1.0000
  H   H1385     1.0  0.39813  0.51725  0.57895  1.0000
  Fe  Fe237     1.0  0.44106  0.49764  0.67805  1.0000
  H   H1386     1.0  0.40743  0.52188  0.92089  1.0000
  C   C1406     1.0  0.35993  0.52302  0.84054  1.0000
  C   C1407     1.0  0.51129  0.70706  0.93725  1.0000
  H   H1387     1.0  0.50153  0.50773  0.68795  1.0000
  N   N114      1.0  0.34070  0.50084  0.59707  1.0000
  H   H1388     1.0  0.36956  0.53331  0.83130  1.0000
  C   C1408     1.0  0.52441  0.68271  0.96300  1.0000
  H   H1389     1.0  0.61423  0.54126  0.72774  1.0000
  H   H1390     1.0  0.63574  0.64721  0.91427  1.0000
  N   N115      1.0  0.51626  0.70210  0.95565  1.0000
  H   H1391     1.0  0.60748  0.69994  0.75159  1.0000
  C   C1409     1.0  0.35780  0.56844  0.95486  1.0000
  H   H1392     1.0  0.64252  0.70777  0.95296  1.0000
  H   H1393     1.0  0.54754  0.70135  0.84350  1.0000
  H   H1394     1.0  0.40356  0.51931  0.84475  1.0000
  N   N116      1.0  0.39963  0.52180  0.87528  1.0000
  C   C1410     1.0  0.34226  0.53007  0.85384  1.0000
  C   C1411     1.0  0.57724  0.65952  0.89043  1.0000
  C   C1412     1.0  0.57003  0.68466  0.91819  1.0000
  C   C1413     1.0  0.58002  0.66472  0.92253  1.0000
  C   C1414     1.0  0.58342  0.65207  0.90871  1.0000
  H   H1395     1.0  0.58507  0.65902  0.93647  1.0000
  H   H1396     1.0  0.59126  0.63668  0.91197  1.0000
  C   C1415     1.0  0.50503  0.57954  0.66274  1.0000
  C   C1416     1.0  0.48628  0.57551  0.66189  1.0000
  C   C1417     1.0  0.50373  0.54593  0.64766  1.0000
  C   C1418     1.0  0.52246  0.55024  0.64812  1.0000
  C   C1419     1.0  0.52311  0.56682  0.65583  1.0000
  H   H1397     1.0  0.54131  0.71005  0.79096  1.0000
  H   H1398     1.0  0.53654  0.54050  0.64277  1.0000
  H   H1399     1.0  0.53763  0.56960  0.65655  1.0000
  C   C1420     1.0  0.56899  0.63485  0.74306  1.0000
  C   C1421     1.0  0.58836  0.63691  0.73153  1.0000
  C   C1422     1.0  0.60245  0.64246  0.73963  1.0000
  C   C1423     1.0  0.59720  0.64623  0.75921  1.0000
  C   C1424     1.0  0.57792  0.64395  0.77080  1.0000
  C   C1425     1.0  0.56392  0.63819  0.76277  1.0000
  H   H1400     1.0  0.59232  0.63467  0.71625  1.0000
  H   H1401     1.0  0.61734  0.64424  0.73056  1.0000
  H   H1402     1.0  0.57375  0.64671  0.78592  1.0000
  H   H1403     1.0  0.54898  0.63656  0.77181  1.0000
  C   C1426     1.0  0.63149  0.56014  0.66914  1.0000
  H   H1404     1.0  0.54365  0.73285  0.61924  1.0000
  H   H1405     1.0  0.62410  0.57575  0.66706  1.0000
  C   C1427     1.0  0.54992  0.70029  0.59766  1.0000
  C   C1428     1.0  0.57109  0.69541  0.59132  1.0000
  C   C1429     1.0  0.58238  0.67890  0.60219  1.0000
  C   C1430     1.0  0.57259  0.66722  0.61940  1.0000
  C   C1431     1.0  0.55149  0.67247  0.62600  1.0000
  C   C1432     1.0  0.54022  0.68900  0.61518  1.0000
  H   H1406     1.0  0.57871  0.70407  0.57786  1.0000
  H   H1407     1.0  0.59872  0.67489  0.59703  1.0000
  H   H1408     1.0  0.54381  0.66362  0.63922  1.0000
  H   H1409     1.0  0.52384  0.69279  0.62020  1.0000
  Fe  Fe238     1.0  0.62606  0.68662  0.82064  1.0000
  C   C1433     1.0  0.62967  0.52508  0.68142  1.0000
  C   C1434     1.0  0.40801  0.51596  0.89188  1.0000
  C   C1435     1.0  0.40065  0.52639  0.90775  1.0000
  C   C1436     1.0  0.54828  0.70404  0.77741  1.0000
  H   H1410     1.0  0.50538  0.72249  0.93112  1.0000
  H   H1411     1.0  0.33803  0.50068  0.93890  1.0000
  C   C1437     1.0  0.34225  0.56114  0.95104  1.0000
  H   H1412     1.0  0.57389  0.68250  0.72960  1.0000
  C   C1438     1.0  0.56317  0.69177  0.90027  1.0000
  N   N117      1.0  0.53620  0.63664  0.60902  1.0000
  C   C1439     1.0  0.55699  0.63168  0.60357  1.0000
  C   C1440     1.0  0.52562  0.65299  0.59837  1.0000
  C   C1441     1.0  0.56768  0.64287  0.58675  1.0000
  C   C1442     1.0  0.53584  0.66457  0.58149  1.0000
  C   C1443     1.0  0.55700  0.65942  0.57566  1.0000
  C   C1444     1.0  0.52542  0.62523  0.62720  1.0000
  H   H1413     1.0  0.56553  0.61939  0.61259  1.0000
  H   H1414     1.0  0.50925  0.65744  0.60315  1.0000
  H   H1415     1.0  0.58422  0.63929  0.58296  1.0000
  H   H1416     1.0  0.52754  0.67794  0.57346  1.0000
  H   H1417     1.0  0.56517  0.66873  0.56307  1.0000
  H   H1418     1.0  0.52588  0.63100  0.64045  1.0000
  H   H1419     1.0  0.50919  0.62626  0.62680  1.0000
  H   H1420     1.0  0.53247  0.60903  0.62917  1.0000
  C   C1445     1.0  0.63070  0.65549  0.87646  1.0000
  H   H1421     1.0  0.62613  0.64150  0.88596  1.0000
  N   N118      1.0  0.61511  0.57232  0.72318  1.0000
  C   C1446     1.0  0.35067  0.50524  0.60955  1.0000
  C   C1447     1.0  0.63415  0.70293  0.88987  1.0000
  C   C1448     1.0  0.63092  0.68942  0.87975  1.0000
  C   C1449     1.0  0.56671  0.68882  0.74290  1.0000
  C   C1450     1.0  0.47279  0.55393  0.71123  1.0000
  C   C1451     1.0  0.47228  0.52451  0.70022  1.0000
  H   H1422     1.0  0.52220  0.70330  0.87521  1.0000
  C   C1452     1.0  0.50457  0.53341  0.69814  1.0000
  H   H1423     1.0  0.53880  0.67823  0.74651  1.0000
  C   C1453     1.0  0.49361  0.52045  0.69501  1.0000
  C   C1454     1.0  0.56816  0.70622  0.76750  1.0000
  H   H1424     1.0  0.37585  0.64856  0.48698  1.0000
  H   H1425     1.0  0.62819  0.69476  0.86476  1.0000
  H   H1426     1.0  0.50253  0.56076  0.70822  1.0000
  S   S472      1.0  0.47142  0.49185  0.62475  1.0000
  C   C1455     1.0  0.42029  0.48626  0.74889  1.0000
  Fe  Fe239     1.0  0.43791  0.50357  0.63442  1.0000
  S   S473      1.0  0.44294  0.52402  0.65258  1.0000
  H   H1427     1.0  0.43329  0.56013  0.71678  1.0000
  C   C1456     1.0  0.65480  0.71424  0.83307  1.0000
  S   S474      1.0  0.35743  0.48807  0.54249  1.0000
  C   C1457     1.0  0.36520  0.50266  0.83922  1.0000
  Fe  Fe240     1.0  0.57901  0.69013  0.96226  1.0000
  H   H1428     1.0  0.42055  0.50325  0.89280  1.0000
  H   H1429     1.0  0.63151  0.73058  0.81679  1.0000
  H   H1430     1.0  0.36784  0.49350  0.63295  1.0000
  H   H1431     1.0  0.56156  0.68487  0.87262  1.0000
  H   H1432     1.0  0.40530  0.49572  0.75073  1.0000
  H   H1433     1.0  0.36294  0.51125  0.95881  1.0000
  C   C1458     1.0  0.51245  0.73536  0.86808  1.0000
  C   C1459     1.0  0.62687  0.58676  0.71609  1.0000
  H   H1434     1.0  0.36295  0.56077  0.88877  1.0000
  C   C1460     1.0  0.63757  0.69623  0.90923  1.0000
  H   H1435     1.0  0.34502  0.52158  0.50667  1.0000
  H   H1436     1.0  0.52109  0.53083  0.69355  1.0000
  N   N119      1.0  0.46216  0.54118  0.70801  1.0000
  C   C1461     1.0  0.38368  0.53769  0.87412  1.0000
  H   H1437     1.0  0.59087  0.57306  0.74862  1.0000
  H   H1438     1.0  0.38794  0.49246  0.56507  1.0000
  C   C1462     1.0  0.52269  0.67261  0.93309  1.0000
  C   C1463     1.0  0.65275  0.55478  0.66277  1.0000
  C   C1464     1.0  0.37576  0.54828  0.88977  1.0000
  S   S475      1.0  0.62263  0.65509  0.82241  1.0000
  S   S476      1.0  0.39976  0.51854  0.96617  1.0000
  C   C1465     1.0  0.65869  0.70246  0.94911  1.0000
  H   H1439     1.0  0.43445  0.53355  0.72609  1.0000
  N   N120      1.0  0.57727  0.69826  0.75073  1.0000
  S   S477      1.0  0.60169  0.70752  0.96385  1.0000
  H   H1440     1.0  0.46378  0.51448  0.69772  1.0000
  H   H1441     1.0  0.58749  0.59409  0.72856  1.0000
  S   S478      1.0  0.42376  0.50223  0.70895  1.0000
  H   H1442     1.0  0.64572  0.65179  0.86636  1.0000
  S   S479      1.0  0.41784  0.51329  0.61137  1.0000
  C   C1466     1.0  0.43263  0.48627  0.72971  1.0000
  C   C1467     1.0  0.59338  0.57769  0.73212  1.0000
  C   C1468     1.0  0.52403  0.71680  0.86422  1.0000
  C   C1469     1.0  0.40711  0.51027  0.85914  1.0000
  C   C1470     1.0  0.54679  0.68641  0.75239  1.0000
  N   N121      1.0  0.63171  0.66964  0.88838  1.0000
  C   C1471     1.0  0.33930  0.55056  0.48760  1.0000
  S   S480      1.0  0.53492  0.71992  0.58384  1.0000
  C   C1472     1.0  0.40082  0.50153  0.58577  1.0000
  C   C1473     1.0  0.49414  0.55021  0.70640  1.0000
  C   C1474     1.0  0.64764  0.58167  0.70763  1.0000
  C   C1475     1.0  0.35033  0.53109  0.49270  1.0000
  H   H1443     1.0  0.47110  0.55553  0.65416  1.0000
  C   C1476     1.0  0.43980  0.54501  0.71311  1.0000
  S   S481      1.0  0.56353  0.73191  0.52635  1.0000
  H   H1444     1.0  0.35630  0.58437  0.95400  1.0000
  C   C1477     1.0  0.51423  0.69237  0.92581  1.0000
  H   H1445     1.0  0.61916  0.66216  0.86708  1.0000
  H   H1446     1.0  0.52582  0.66127  0.92397  1.0000
  H   H1447     1.0  0.34447  0.52047  0.56901  1.0000
  C   C1478     1.0  0.59813  0.70067  0.74059  1.0000
  H   H1448     1.0  0.37882  0.49731  0.82891  1.0000
  H   H1449     1.0  0.50327  0.73144  0.96238  1.0000
  H   H1450     1.0  0.63451  0.71834  0.88245  1.0000
  H   H1451     1.0  0.57629  0.71417  0.77347  1.0000
  C   C1479     1.0  0.37549  0.55527  0.95938  1.0000
  S   S482      1.0  0.65446  0.69059  0.82849  1.0000
  H   H1452     1.0  0.39995  0.49682  0.86300  1.0000
  C   C1480     1.0  0.36790  0.52387  0.47945  1.0000
  H   H1453     1.0  0.52902  0.67890  0.97726  1.0000
  H   H1454     1.0  0.60186  0.71678  0.48674  1.0000
  H   H1455     1.0  0.64064  0.67071  0.93321  1.0000
  C   C1481     1.0  0.63784  0.67612  0.91818  1.0000
  C   C1482     1.0  0.35241  0.48949  0.85064  1.0000
  C   C1483     1.0  0.34419  0.54050  0.95228  1.0000
  C   C1484     1.0  0.64190  0.73156  0.82560  1.0000
  S   S483      1.0  0.38065  0.49892  0.48418  1.0000
  H   H1456     1.0  0.60600  0.68824  0.73240  1.0000
  H   H1457     1.0  0.42397  0.50528  0.85669  1.0000
  H   H1458     1.0  0.52967  0.72219  0.96394  1.0000
  H   H1459     1.0  0.59792  0.71524  0.73004  1.0000
  H   H1460     1.0  0.53491  0.65248  0.95740  1.0000
  C   C1485     1.0  0.39495  0.48752  0.57794  1.0000
  H   H1461     1.0  0.65811  0.50415  0.67702  1.0000
  C   C1486     1.0  0.65641  0.56165  0.70676  1.0000
  H   H1462     1.0  0.38765  0.56106  0.96192  1.0000
  H   H1463     1.0  0.65683  0.59319  0.70159  1.0000
  H   H1464     1.0  0.65530  0.73102  0.48221  1.0000
  C   C1487     1.0  0.33431  0.49671  0.86328  1.0000
  C   C1488     1.0  0.54105  0.73304  0.83198  1.0000
  C   C1489     1.0  0.34503  0.49061  0.92844  1.0000
  S   S484      1.0  0.65171  0.66617  0.97194  1.0000
  H   H1465     1.0  0.65099  0.53148  0.71333  1.0000
  S   S485      1.0  0.55983  0.73185  0.81004  1.0000
  H   H1466     1.0  0.66459  0.73110  0.93246  1.0000
  C   C1490     1.0  0.36607  0.48723  0.92115  1.0000
  H   H1467     1.0  0.58516  0.73590  0.92201  1.0000
  H   H1468     1.0  0.44182  0.79904  0.40871  1.0000
  Fe  Fe241     1.0  0.59494  0.92879  0.21481  1.0000
  H   H1469     1.0  0.60704  0.95827  0.06583  1.0000
  S   S486      1.0  0.66329  0.92987  0.09115  1.0000
  Fe  Fe242     1.0  0.36578  0.93603  0.40009  1.0000
  C   C1491     1.0  0.35022  0.92791  0.34023  1.0000
  S   S487      1.0  0.36679  0.96583  0.37930  1.0000
  Fe  Fe243     1.0  0.38558  0.89282  0.41453  1.0000
  S   S488      1.0  0.41437  0.86922  0.41461  1.0000
  C   C1492     1.0  0.51655  0.76555  0.00027  1.0000
  H   H1470     1.0  0.38112  0.80042  0.46615  1.0000
  S   S489      1.0  0.37203  0.90787  0.38766  1.0000
  S   S490      1.0  0.38223  0.92163  0.42516  1.0000
  C   C1493     1.0  0.57854  0.91125  0.11162  1.0000
  H   H1471     1.0  0.52502  0.88549  0.26807  1.0000
  C   C1494     1.0  0.54098  0.97527  0.16132  1.0000
  H   H1472     1.0  0.65242  0.74530  0.36532  1.0000
  H   H1473     1.0  0.50398  0.75514  0.39262  1.0000
  S   S491      1.0  0.34983  0.94891  0.04840  1.0000
  C   C1495     1.0  0.62189  0.73763  0.43922  1.0000
  C   C1496     1.0  0.64839  0.89720  0.11354  1.0000
  C   C1497     1.0  0.62555  0.78236  0.45993  1.0000
  H   H1474     1.0  0.35454  0.75359  0.41981  1.0000
  H   H1475     1.0  0.37711  0.76425  0.41070  1.0000
  H   H1476     1.0  0.37627  0.97478  0.33488  1.0000
  S   S492      1.0  0.41458  0.74557  0.44284  1.0000
  Fe  Fe244     1.0  0.59166  0.75159  0.26419  1.0000
  C   C1498     1.0  0.63261  0.78290  0.31389  1.0000
  S   S493      1.0  0.60110  0.77800  0.24112  1.0000
  Fe  Fe245     1.0  0.34231  0.90288  0.40798  1.0000
  H   H1477     1.0  0.44328  0.83214  0.41490  1.0000
  C   C1499     1.0  0.51714  0.75199  0.38080  1.0000
  H   H1478     1.0  0.53714  0.90910  0.14973  1.0000
  C   C1500     1.0  0.65312  0.92610  0.18027  1.0000
  S   S494      1.0  0.57555  0.75359  0.29564  1.0000
  Fe  Fe246     1.0  0.58169  0.88932  0.23542  1.0000
  S   S495      1.0  0.56605  0.88926  0.21127  1.0000
  S   S496      1.0  0.57951  0.86460  0.26241  1.0000
  H   H1479     1.0  0.61475  0.77032  0.27880  1.0000
  S   S497      1.0  0.58060  0.93194  0.18877  1.0000
  Fe  Fe247     1.0  0.55446  0.92187  0.21197  1.0000
  S   S498      1.0  0.52276  0.93825  0.20958  1.0000
  Fe  Fe248     1.0  0.59362  0.89922  0.19041  1.0000
  S   S499      1.0  0.60758  0.88392  0.16430  1.0000
  S   S500      1.0  0.56761  0.92124  0.23812  1.0000
  S   S501      1.0  0.61049  0.89668  0.21451  1.0000
  H   H1480     1.0  0.60941  0.76651  0.42383  1.0000
  N   N122      1.0  0.37720  0.73878  0.39865  1.0000
  H   H1481     1.0  0.54903  0.95969  0.16018  1.0000
  H   H1482     1.0  0.50527  0.89785  0.21246  1.0000
  H   H1483     1.0  0.39681  0.79321  0.44318  1.0000
  C   C1501     1.0  0.65687  0.90878  0.17220  1.0000
  H   H1484     1.0  0.36939  0.94201  0.35009  1.0000
  C   C1502     1.0  0.42610  0.83541  0.46032  1.0000
  H   H1485     1.0  0.60508  0.77307  0.31445  1.0000
  C   C1503     1.0  0.55242  0.75021  0.99550  1.0000
  S   S502      1.0  0.40659  0.95492  0.04395  1.0000
  H   H1486     1.0  0.45467  0.78860  0.46907  1.0000
  H   H1487     1.0  0.56277  0.77507  0.44657  1.0000
  C   C1504     1.0  0.55935  0.91851  0.10684  1.0000
  Fe  Fe249     1.0  0.42943  0.75815  0.41182  1.0000
  H   H1488     1.0  0.37790  0.74067  0.42799  1.0000
  N   N123      1.0  0.66116  0.94251  0.16961  1.0000
  Fe  Fe250     1.0  0.34866  0.94341  0.01854  1.0000
  N   N124      1.0  0.64318  0.77948  0.27388  1.0000
  Fe  Fe251     1.0  0.49977  0.96466  0.11175  1.0000
  H   H1489     1.0  0.54375  0.91199  0.18169  1.0000
  C   C1505     1.0  0.53428  0.86169  0.25109  1.0000
  S   S503      1.0  0.33475  0.93208  0.41841  1.0000
  H   H1490     1.0  0.39882  0.75666  0.38088  1.0000
  S   S504      1.0  0.49685  0.97489  0.07979  1.0000
  H   H1491     1.0  0.50583  0.77608  0.35855  1.0000
  H   H1492     1.0  0.63355  0.94380  0.12492  1.0000
  C   C1506     1.0  0.59401  0.92236  0.10307  1.0000
  C   C1507     1.0  0.43303  0.96255  0.06328  1.0000
  H   H1493     1.0  0.44037  0.94706  0.06314  1.0000
  Fe  Fe252     1.0  0.44604  0.73822  0.44936  1.0000
  H   H1494     1.0  0.53982  0.79730  0.98336  1.0000
  S   S505      1.0  0.50755  0.93266  0.12674  1.0000
  S   S506      1.0  0.64417  0.98147  0.11194  1.0000
  S   S507      1.0  0.61177  0.95294  0.21383  1.0000
  H   H1495     1.0  0.61708  0.79662  0.45376  1.0000
  C   C1508     1.0  0.48926  0.75065  0.46347  1.0000
  C   C1509     1.0  0.40929  0.83019  0.45647  1.0000
  H   H1496     1.0  0.47443  0.73836  0.36718  1.0000
  H   H1497     1.0  0.55001  0.82606  0.24313  1.0000
  H   H1498     1.0  0.48717  0.74966  0.44907  1.0000
  C   C1510     1.0  0.37782  0.98277  0.38602  1.0000
  C   C1511     1.0  0.51778  0.93568  0.18723  1.0000
  H   H1499     1.0  0.35449  0.91334  0.34932  1.0000
  C   C1512     1.0  0.49785  0.94708  0.16146  1.0000
  C   C1513     1.0  0.51082  0.93302  0.15049  1.0000
  C   C1514     1.0  0.53486  0.75896  0.34646  1.0000
  C   C1515     1.0  0.53077  0.92160  0.17628  1.0000
  H   H1500     1.0  0.64368  0.92634  0.19509  1.0000
  H   H1501     1.0  0.56069  0.83895  0.21884  1.0000
  C   C1516     1.0  0.62291  0.89718  0.14435  1.0000
  C   C1517     1.0  0.63597  0.88700  0.12973  1.0000
  S   S508      1.0  0.57388  0.73806  0.00555  1.0000
  H   H1502     1.0  0.33751  0.87993  0.00205  1.0000
  H   H1503     1.0  0.60888  0.91647  0.10664  1.0000
  C   C1518     1.0  0.62209  0.91770  0.14263  1.0000
  H   H1504     1.0  0.63658  0.87114  0.13100  1.0000
  C   C1519     1.0  0.59498  0.97547  0.21790  1.0000
  H   H1505     1.0  0.50242  0.77085  0.01004  1.0000
  H   H1506     1.0  0.61198  0.92566  0.15382  1.0000
  C   C1520     1.0  0.42931  0.81153  0.40682  1.0000
  C   C1521     1.0  0.52367  0.86855  0.22021  1.0000
  C   C1522     1.0  0.50113  0.94819  0.17996  1.0000
  H   H1507     1.0  0.58144  0.89713  0.12193  1.0000
  C   C1523     1.0  0.59464  0.80204  0.24722  1.0000
  C   C1524     1.0  0.58465  0.80508  0.26648  1.0000
  C   C1525     1.0  0.58050  0.82426  0.27114  1.0000
  C   C1526     1.0  0.58589  0.84059  0.25646  1.0000
  C   C1527     1.0  0.59556  0.83767  0.23710  1.0000
  C   C1528     1.0  0.60009  0.81839  0.23256  1.0000
  H   H1508     1.0  0.58013  0.79274  0.27782  1.0000
  H   H1509     1.0  0.57288  0.82652  0.28609  1.0000
  H   H1510     1.0  0.59971  0.85023  0.22566  1.0000
  H   H1511     1.0  0.60780  0.81616  0.21761  1.0000
  H   H1512     1.0  0.42644  0.85107  0.45933  1.0000
  C   C1529     1.0  0.60732  0.75535  0.43742  1.0000
  H   H1513     1.0  0.51959  0.75705  0.45211  1.0000
  C   C1530     1.0  0.60660  0.95212  0.08196  1.0000
  C   C1531     1.0  0.44257  0.82040  0.46482  1.0000
  C   C1532     1.0  0.64765  0.91768  0.11177  1.0000
  C   C1533     1.0  0.44203  0.80044  0.46544  1.0000
  C   C1534     1.0  0.65651  0.96077  0.17801  1.0000
  C   C1535     1.0  0.57153  0.94774  0.08591  1.0000
  C   C1536     1.0  0.55577  0.93689  0.09396  1.0000
  S   S509      1.0  0.41075  0.78574  0.39654  1.0000
  C   C1537     1.0  0.41538  0.97036  0.05532  1.0000
  C   C1538     1.0  0.58895  0.74506  0.47023  1.0000
  C   C1539     1.0  0.51344  0.89370  0.24092  1.0000
  C   C1540     1.0  0.54614  0.83655  0.22947  1.0000
  H   H1514     1.0  0.45501  0.96843  0.07725  1.0000
  C   C1541     1.0  0.63435  0.92799  0.12623  1.0000
  S   S510      1.0  0.34106  0.91746  0.47481  1.0000
  H   H1515     1.0  0.54719  0.91003  0.11323  1.0000
  S   S511      1.0  0.52280  0.73924  0.30290  1.0000
  N   N125      1.0  0.59129  0.75900  0.45296  1.0000
  H   H1516     1.0  0.42488  0.78025  0.46163  1.0000
  C   C1542     1.0  0.36116  0.97972  0.33058  1.0000
  C   C1543     1.0  0.66474  0.73751  0.31752  1.0000
  C   C1544     1.0  0.39077  0.97627  0.39963  1.0000
  H   H1517     1.0  0.54277  0.85185  0.26184  1.0000
  C   C1545     1.0  0.53439  0.75794  0.00784  1.0000
  Fe  Fe253     1.0  0.35164  0.91532  0.44244  1.0000
  H   H1518     1.0  0.39498  0.96047  0.40547  1.0000
  Fe  Fe254     1.0  0.66300  0.96218  0.09008  1.0000
  C   C1546     1.0  0.62496  0.77523  0.28526  1.0000
  S   S512      1.0  0.37761  0.95462  0.00343  1.0000
  N   N126      1.0  0.40919  0.81064  0.45649  1.0000
  S   S513      1.0  0.35621  0.88543  0.43390  1.0000
  C   C1547     1.0  0.51311  0.88760  0.22355  1.0000
  H   H1519     1.0  0.56803  0.96245  0.22655  1.0000
  C   C1548     1.0  0.41242  0.80910  0.40068  1.0000
  C   C1549     1.0  0.39634  0.82546  0.39813  1.0000
  C   C1550     1.0  0.39691  0.84405  0.40214  1.0000
  C   C1551     1.0  0.41382  0.84651  0.40821  1.0000
  C   C1552     1.0  0.43014  0.83028  0.41026  1.0000
  H   H1520     1.0  0.48573  0.75058  0.33078  1.0000
  H   H1521     1.0  0.38326  0.82369  0.39333  1.0000
  H   H1522     1.0  0.38427  0.85649  0.40050  1.0000
  H   H1523     1.0  0.49312  0.97647  0.21369  1.0000
  H   H1524     1.0  0.53766  0.82912  0.22278  1.0000
  C   C1553     1.0  0.44139  0.97465  0.07125  1.0000
  S   S514      1.0  0.46041  0.75328  0.41896  1.0000
  H   H1525     1.0  0.40989  0.73672  0.35409  1.0000
  S   S515      1.0  0.64906  0.78359  0.42255  1.0000
  S   S516      1.0  0.65739  0.98499  0.06279  1.0000
  C   C1554     1.0  0.39167  0.80540  0.45204  1.0000
  H   H1526     1.0  0.53555  0.76760  0.33139  1.0000
  C   C1555     1.0  0.42511  0.79580  0.46123  1.0000
  N   N127      1.0  0.53403  0.85586  0.23394  1.0000
  H   H1527     1.0  0.45575  0.82423  0.46776  1.0000
  C   C1556     1.0  0.33587  0.93070  0.32849  1.0000
  H   H1528     1.0  0.65393  0.95723  0.19459  1.0000
  H   H1529     1.0  0.48510  0.95694  0.15581  1.0000
  C   C1557     1.0  0.51818  0.76369  0.36167  1.0000
  H   H1530     1.0  0.64251  0.97069  0.17372  1.0000
  H   H1531     1.0  0.65013  0.89594  0.18052  1.0000
  C   C1558     1.0  0.61935  0.77693  0.30539  1.0000
  H   H1532     1.0  0.57072  0.78300  0.46541  1.0000
  S   S517      1.0  0.34339  0.91359  0.01522  1.0000
  C   C1559     1.0  0.65405  0.75465  0.45620  1.0000
  C   C1560     1.0  0.52707  0.92002  0.15810  1.0000
  C   C1561     1.0  0.64294  0.77291  0.44801  1.0000
  H   H1533     1.0  0.50586  0.90868  0.24337  1.0000
  H   H1534     1.0  0.49094  0.95902  0.18836  1.0000
  N   N128      1.0  0.35275  0.96269  0.32957  1.0000
  C   C1562     1.0  0.52412  0.88071  0.25478  1.0000
  C   C1563     1.0  0.35848  0.94420  0.34068  1.0000
  H   H1535     1.0  0.56855  0.96210  0.07608  1.0000
  C   C1564     1.0  0.57396  0.97599  0.22383  1.0000
  C   C1565     1.0  0.33836  0.96564  0.31836  1.0000
  H   H1536     1.0  0.54076  0.94277  0.09044  1.0000
  H   H1537     1.0  0.38496  0.91883  0.98073  1.0000
  C   C1566     1.0  0.49518  0.73805  0.33853  1.0000
  H   H1538     1.0  0.62194  0.94290  0.08313  1.0000
  C   C1567     1.0  0.50762  0.75484  0.46524  1.0000
  H   H1539     1.0  0.64306  0.76532  0.25023  1.0000
  Fe  Fe255     1.0  0.35726  0.98457  0.99699  1.0000
  C   C1568     1.0  0.65119  0.78721  0.30218  1.0000
  H   H1540     1.0  0.39674  0.84205  0.45262  1.0000
  N   N129      1.0  0.59043  0.94031  0.09033  1.0000
  H   H1541     1.0  0.65856  0.88919  0.10233  1.0000
  H   H1542     1.0  0.64045  0.79217  0.24401  1.0000
  C   C1569     1.0  0.64826  0.77830  0.25264  1.0000
  H   H1543     1.0  0.53396  0.75721  0.02345  1.0000
  H   H1544     1.0  0.38329  0.81837  0.44283  1.0000
  Fe  Fe256     1.0  0.37704  0.96319  0.03244  1.0000
  H   H1545     1.0  0.60388  0.96474  0.08996  1.0000
  H   H1546     1.0  0.52396  0.86421  0.20633  1.0000
  H   H1547     1.0  0.62877  0.78365  0.32964  1.0000
  C   C1570     1.0  0.57618  0.77766  0.45096  1.0000
  H   H1548     1.0  0.58273  0.78984  0.43983  1.0000
  C   C1571     1.0  0.37140  0.74990  0.41507  1.0000
  C   C1572     1.0  0.39174  0.74398  0.38217  1.0000
  N   N130      1.0  0.63238  0.74847  0.98200  1.0000
  C   C1573     1.0  0.65618  0.78560  0.28202  1.0000
  H   H1549     1.0  0.35158  0.97861  0.44856  1.0000
  C   C1574     1.0  0.61313  0.76288  0.98167  1.0000
  H   H1550     1.0  0.66183  0.79135  0.30882  1.0000
  H   H1551     1.0  0.60375  0.76269  0.99704  1.0000
  C   C1575     1.0  0.55024  0.74244  0.35061  1.0000
  H   H1552     1.0  0.56142  0.97940  0.18700  1.0000
  S   S518      1.0  0.52374  0.98224  0.10893  1.0000
  H   H1553     1.0  0.66496  0.77635  0.24656  1.0000
  C   C1576     1.0  0.65095  0.74150  0.35180  1.0000
  C   C1577     1.0  0.64706  0.74543  0.47604  1.0000
  H   H1554     1.0  0.56302  0.73862  0.33870  1.0000
  H   H1555     1.0  0.53056  0.98035  0.15063  1.0000
  C   C1578     1.0  0.51686  0.76596  0.98024  1.0000
  H   H1556     1.0  0.53117  0.97530  0.17648  1.0000
  H   H1557     1.0  0.46048  0.97194  0.02632  1.0000
  H   H1558     1.0  0.49839  0.97481  0.01750  1.0000
  H   H1559     1.0  0.38655  0.88376  0.97844  1.0000
  H   H1560     1.0  0.40848  0.98524  0.41610  1.0000
  H   H1561     1.0  0.33336  0.98041  0.31003  1.0000
  C   C1579     1.0  0.58799  0.88973  0.54206  1.0000
  Fe  Fe257     1.0  0.54372  0.76024  0.51393  1.0000
  C   C1580     1.0  0.35842  0.92697  0.94406  1.0000
  Fe  Fe258     1.0  0.55242  0.78397  0.54172  1.0000
  S   S519      1.0  0.54439  0.81481  0.54986  1.0000
  C   C1581     1.0  0.58975  0.97980  0.73011  1.0000
  S   S520      1.0  0.49558  0.73684  0.89124  1.0000
  S   S521      1.0  0.56663  0.77955  0.51040  1.0000
  Fe  Fe259     1.0  0.58827  0.87035  0.60861  1.0000
  S   S522      1.0  0.56841  0.89803  0.59502  1.0000
  S   S523      1.0  0.59729  0.84072  0.59786  1.0000
  Fe  Fe260     1.0  0.59599  0.89134  0.63891  1.0000
  S   S524      1.0  0.57711  0.92042  0.62750  1.0000
  S   S525      1.0  0.60774  0.89142  0.66596  1.0000
  Fe  Fe261     1.0  0.55517  0.90184  0.62680  1.0000
  S   S526      1.0  0.52250  0.91413  0.63925  1.0000
  Fe  Fe262     1.0  0.59224  0.91387  0.59721  1.0000
  S   S527      1.0  0.60491  0.93813  0.57383  1.0000
  S   S528      1.0  0.57297  0.87279  0.64036  1.0000
  S   S529      1.0  0.61331  0.88612  0.60847  1.0000
  Fe  Fe263     1.0  0.49625  0.76435  0.90196  1.0000
  C   C1582     1.0  0.55284  0.75086  0.97539  1.0000
  H   H1562     1.0  0.59986  0.97539  0.71678  1.0000
  H   H1563     1.0  0.48119  0.93536  0.78594  1.0000
  C   C1583     1.0  0.61269  0.89610  0.71427  1.0000
  H   H1564     1.0  0.61567  0.77844  0.97546  1.0000
  N   N131      1.0  0.62194  0.97339  0.61225  1.0000
  S   S530      1.0  0.64114  0.98122  0.69265  1.0000
  H   H1565     1.0  0.57426  0.80603  0.97512  1.0000
  S   S531      1.0  0.52747  0.76730  0.54410  1.0000
  C   C1584     1.0  0.47332  0.92454  0.75608  1.0000
  H   H1566     1.0  0.65044  0.76855  0.96166  1.0000
  C   C1585     1.0  0.59234  0.89535  0.71568  1.0000
  C   C1586     1.0  0.65685  0.95841  0.61359  1.0000
  C   C1587     1.0  0.54341  0.79802  0.61125  1.0000
  Fe  Fe264     1.0  0.65026  0.78416  0.91156  1.0000
  S   S532      1.0  0.36104  0.81956  0.93867  1.0000
  H   H1567     1.0  0.56986  0.94422  0.75259  1.0000
  Fe  Fe265     1.0  0.54912  0.74024  0.55635  1.0000
  S   S533      1.0  0.49865  0.79396  0.88172  1.0000
  Fe  Fe266     1.0  0.49680  0.77996  0.93840  1.0000
  S   S534      1.0  0.49913  0.81091  0.92112  1.0000
  H   H1568     1.0  0.38542  0.83179  0.87644  1.0000
  Fe  Fe267     1.0  0.47557  0.80692  0.90629  1.0000
  S   S535      1.0  0.45055  0.83233  0.89753  1.0000
  Fe  Fe268     1.0  0.52184  0.79482  0.89855  1.0000
  S   S536      1.0  0.55120  0.80448  0.88222  1.0000
  S   S537      1.0  0.47132  0.77701  0.92546  1.0000
  H   H1569     1.0  0.45581  0.76929  0.89232  1.0000
  C   C1588     1.0  0.59836  0.90124  0.54825  1.0000
  C   C1589     1.0  0.44852  0.93078  0.73546  1.0000
  H   H1570     1.0  0.51820  0.96017  0.63868  1.0000
  Fe  Fe269     1.0  0.50416  0.96065  0.72703  1.0000
  C   C1590     1.0  0.43951  0.94115  0.76738  1.0000
  H   H1571     1.0  0.58804  0.86054  0.53721  1.0000
  H   H1572     1.0  0.60532  0.78065  0.48868  1.0000
  S   S538      1.0  0.62142  0.96201  0.74977  1.0000
  H   H1573     1.0  0.39044  0.78282  0.90961  1.0000
  H   H1574     1.0  0.59211  0.91701  0.54854  1.0000
  H   H1575     1.0  0.62481  0.88584  0.70653  1.0000
  C   C1591     1.0  0.64088  0.97504  0.61361  1.0000
  C   C1592     1.0  0.55459  0.97418  0.65411  1.0000
  C   C1593     1.0  0.33628  0.94700  0.49571  1.0000
  C   C1594     1.0  0.66088  0.91125  0.65283  1.0000
  C   C1595     1.0  0.57047  0.82404  0.94632  1.0000
  H   H1576     1.0  0.47976  0.91570  0.72744  1.0000
  S   S539      1.0  0.65847  0.77564  0.84294  1.0000
  C   C1596     1.0  0.37033  0.87078  0.95435  1.0000
  C   C1597     1.0  0.59626  0.86942  0.54192  1.0000
  H   H1577     1.0  0.62456  0.90107  0.55971  1.0000
  H   H1578     1.0  0.48878  0.91850  0.75828  1.0000
  H   H1579     1.0  0.65031  0.88688  0.64717  1.0000
  C   C1598     1.0  0.38562  0.82482  0.92878  1.0000
  C   C1599     1.0  0.38908  0.84102  0.91317  1.0000
  C   C1600     1.0  0.40909  0.84366  0.90412  1.0000
  C   C1601     1.0  0.42569  0.83014  0.91068  1.0000
  C   C1602     1.0  0.42217  0.81448  0.92685  1.0000
  C   C1603     1.0  0.40218  0.81179  0.93584  1.0000
  H   H1580     1.0  0.37645  0.85105  0.90751  1.0000
  H   H1581     1.0  0.41174  0.85587  0.89166  1.0000
  H   H1582     1.0  0.43481  0.80436  0.93238  1.0000
  H   H1583     1.0  0.39958  0.79936  0.94807  1.0000
  C   C1604     1.0  0.60054  0.79099  0.91859  1.0000
  C   C1605     1.0  0.60392  0.80077  0.89867  1.0000
  C   C1606     1.0  0.58874  0.80461  0.88759  1.0000
  C   C1607     1.0  0.57008  0.79860  0.89636  1.0000
  C   C1608     1.0  0.56664  0.78858  0.91627  1.0000
  C   C1609     1.0  0.58191  0.78473  0.92738  1.0000
  H   H1584     1.0  0.61809  0.80578  0.89176  1.0000
  H   H1585     1.0  0.59148  0.81235  0.87219  1.0000
  H   H1586     1.0  0.55219  0.78400  0.92316  1.0000
  H   H1587     1.0  0.57925  0.77699  0.94276  1.0000
  S   S540      1.0  0.61949  0.78681  0.93246  1.0000
  H   H1588     1.0  0.53081  0.76494  0.82438  1.0000
  H   H1589     1.0  0.55355  0.76787  0.86181  1.0000
  H   H1590     1.0  0.58863  0.88448  0.70908  1.0000
  H   H1591     1.0  0.54911  0.80928  0.61547  1.0000
  H   H1592     1.0  0.56124  0.73730  0.90077  1.0000
  S   S541      1.0  0.52019  0.92919  0.72468  1.0000
  H   H1593     1.0  0.51713  0.81017  0.95898  1.0000
  C   C1610     1.0  0.46827  0.92284  0.73860  1.0000
  C   C1611     1.0  0.56429  0.75320  0.86196  1.0000
  C   C1612     1.0  0.52071  0.91695  0.66374  1.0000
  C   C1613     1.0  0.50487  0.93094  0.67234  1.0000
  C   C1614     1.0  0.50477  0.93489  0.69097  1.0000
  C   C1615     1.0  0.52001  0.92425  0.70144  1.0000
  C   C1616     1.0  0.53536  0.90970  0.69319  1.0000
  C   C1617     1.0  0.53591  0.90634  0.67423  1.0000
  H   H1594     1.0  0.49307  0.93922  0.66429  1.0000
  H   H1595     1.0  0.49282  0.94610  0.69719  1.0000
  H   H1596     1.0  0.54713  0.90126  0.70114  1.0000
  H   H1597     1.0  0.54817  0.89552  0.66778  1.0000
  C   C1618     1.0  0.62565  0.90683  0.66224  1.0000
  C   C1619     1.0  0.62026  0.92415  0.67065  1.0000
  C   C1620     1.0  0.52742  0.80378  0.60105  1.0000
  Fe  Fe270     1.0  0.58553  0.75171  0.52450  1.0000
  H   H1598     1.0  0.38433  0.86553  0.94360  1.0000
  C   C1621     1.0  0.56489  0.84340  0.91355  1.0000
  H   H1599     1.0  0.60460  0.92895  0.67788  1.0000
  H   H1600     1.0  0.34661  0.93639  0.50423  1.0000
  H   H1601     1.0  0.45655  0.95007  0.79297  1.0000
  H   H1602     1.0  0.55537  0.74097  0.86777  1.0000
  C   C1622     1.0  0.58828  0.96124  0.57549  1.0000
  C   C1623     1.0  0.56770  0.96186  0.58465  1.0000
  H   H1603     1.0  0.49710  0.75442  0.51515  1.0000
  H   H1604     1.0  0.56174  0.94813  0.58997  1.0000
  C   C1624     1.0  0.65339  0.94013  0.61178  1.0000
  H   H1605     1.0  0.63102  0.94821  0.67683  1.0000
  C   C1625     1.0  0.59603  0.76011  0.86615  1.0000
  H   H1606     1.0  0.35679  0.86907  0.94952  1.0000
  C   C1626     1.0  0.55259  0.77776  0.61516  1.0000
  H   H1607     1.0  0.34988  0.93899  0.93482  1.0000
  H   H1608     1.0  0.61625  0.75076  0.90744  1.0000
  H   H1609     1.0  0.37240  0.81491  0.89577  1.0000
  H   H1610     1.0  0.42815  0.94829  0.77860  1.0000
  C   C1627     1.0  0.53892  0.82629  0.93734  1.0000
  H   H1611     1.0  0.56520  0.73790  0.59951  1.0000
  C   C1628     1.0  0.55943  0.82189  0.56294  1.0000
  C   C1629     1.0  0.55336  0.84071  0.56867  1.0000
  C   C1630     1.0  0.56455  0.84651  0.57980  1.0000
  C   C1631     1.0  0.58196  0.83356  0.58516  1.0000
  C   C1632     1.0  0.58794  0.81470  0.57954  1.0000
  C   C1633     1.0  0.57679  0.80891  0.56840  1.0000
  H   H1612     1.0  0.53986  0.85078  0.56460  1.0000
  H   H1613     1.0  0.55976  0.86105  0.58411  1.0000
  H   H1614     1.0  0.60141  0.80459  0.58365  1.0000
  H   H1615     1.0  0.58158  0.79439  0.56409  1.0000
  H   H1616     1.0  0.56534  0.77350  0.62266  1.0000
  S   S542      1.0  0.52140  0.76404  0.91689  1.0000
  N   N132      1.0  0.45911  0.93398  0.77000  1.0000
  C   C1634     1.0  0.62334  0.83975  0.54708  1.0000
  H   H1617     1.0  0.45475  0.80071  0.86690  1.0000
  S   S543      1.0  0.44980  0.74412  0.47837  1.0000
  C   C1635     1.0  0.46458  0.93560  0.78828  1.0000
  H   H1618     1.0  0.44456  0.92996  0.72174  1.0000
  H   H1619     1.0  0.52521  0.75814  0.59401  1.0000
  C   C1636     1.0  0.53210  0.81416  0.95557  1.0000
  C   C1637     1.0  0.65560  0.92844  0.66138  1.0000
  C   C1638     1.0  0.60601  0.75071  0.89804  1.0000
  C   C1639     1.0  0.64317  0.75033  0.82870  1.0000
  C   C1640     1.0  0.59583  0.97909  0.56856  1.0000
  H   H1620     1.0  0.63377  0.76379  0.82218  1.0000
  H   H1621     1.0  0.57213  0.75181  0.84634  1.0000
  H   H1622     1.0  0.42153  0.82222  0.86239  1.0000
  N   N133      1.0  0.40403  0.80351  0.88540  1.0000
  C   C1641     1.0  0.40450  0.78655  0.89988  1.0000
  C   C1642     1.0  0.42180  0.80854  0.87354  1.0000
  C   C1643     1.0  0.42310  0.77403  0.90265  1.0000
  C   C1644     1.0  0.44066  0.79638  0.87594  1.0000
  C   C1645     1.0  0.44126  0.77891  0.89043  1.0000
  C   C1646     1.0  0.38436  0.81571  0.88179  1.0000
  S   S544      1.0  0.33674  0.87405  0.91432  1.0000
  C   C1647     1.0  0.52729  0.96996  0.64069  1.0000
  C   C1648     1.0  0.58854  0.74246  0.90624  1.0000
  H   H1623     1.0  0.59887  0.76749  0.85059  1.0000
  H   H1624     1.0  0.52905  0.83173  0.92663  1.0000
  C   C1649     1.0  0.61866  0.77318  0.47968  1.0000
  H   H1625     1.0  0.52069  0.81952  0.59722  1.0000
  H   H1626     1.0  0.61176  0.97865  0.56150  1.0000
  N   N134      1.0  0.58151  0.92320  0.73282  1.0000
  C   C1650     1.0  0.60145  0.92417  0.73132  1.0000
  C   C1651     1.0  0.57686  0.90915  0.72498  1.0000
  H   H1627     1.0  0.63749  0.83875  0.53532  1.0000
  C   C1652     1.0  0.64596  0.90049  0.65324  1.0000
  H   H1628     1.0  0.42348  0.76074  0.91430  1.0000
  C   C1653     1.0  0.56500  0.93802  0.74175  1.0000
  C   C1654     1.0  0.55543  0.74243  0.61348  1.0000
  H   H1629     1.0  0.56109  0.90864  0.72579  1.0000
  C   C1655     1.0  0.59665  0.97523  0.74806  1.0000
  C   C1656     1.0  0.53516  0.75912  0.96767  1.0000
  C   C1657     1.0  0.60983  0.75959  0.87788  1.0000
  H   H1630     1.0  0.55151  0.93119  0.74991  1.0000
  H   H1631     1.0  0.58178  0.83992  0.90866  1.0000
  H   H1632     1.0  0.56020  0.95055  0.72985  1.0000
  H   H1633     1.0  0.61271  0.83186  0.54377  1.0000
  H   H1634     1.0  0.57357  0.89645  0.53756  1.0000
  H   H1635     1.0  0.60330  0.95399  0.61000  1.0000
  C   C1658     1.0  0.35942  0.90696  0.94317  1.0000
  C   C1659     1.0  0.53026  0.76922  0.59911  1.0000
  H   H1636     1.0  0.58571  0.82740  0.94264  1.0000
  H   H1637     1.0  0.54587  0.94579  0.65734  1.0000
  H   H1638     1.0  0.55999  0.85946  0.91471  1.0000
  H   H1639     1.0  0.37045  0.86082  0.96920  1.0000
  Fe  Fe271     1.0  0.64660  0.96937  0.72360  1.0000
  C   C1660     1.0  0.54484  0.80690  0.96927  1.0000
  N   N135      1.0  0.61425  0.86081  0.54800  1.0000
  C   C1661     1.0  0.58335  0.98065  0.76532  1.0000
  S   S545      1.0  0.65919  0.75676  0.89789  1.0000
  N   N136      1.0  0.57900  0.75181  0.87428  1.0000
  C   C1662     1.0  0.62429  0.87190  0.55446  1.0000
  H   H1640     1.0  0.62303  0.76663  0.87150  1.0000
  C   C1663     1.0  0.43397  0.93989  0.74999  1.0000
  S   S546      1.0  0.53378  0.76198  0.48508  1.0000
  C   C1664     1.0  0.55463  0.98033  0.58658  1.0000
  C   C1665     1.0  0.61658  0.89229  0.55457  1.0000
  S   S547      1.0  0.57299  0.75740  0.55589  1.0000
  C   C1666     1.0  0.37883  0.89582  0.96853  1.0000
  S   S548      1.0  0.47317  0.97479  0.72060  1.0000
  H   H1641     1.0  0.46039  0.92305  0.80050  1.0000
  Fe  Fe272     1.0  0.33507  0.84188  0.92754  1.0000
  C   C1667     1.0  0.57503  0.74330  0.89411  1.0000
  H   H1642     1.0  0.66567  0.92714  0.61168  1.0000
  H   H1643     1.0  0.50548  0.76693  0.85609  1.0000
  H   H1644     1.0  0.62708  0.83168  0.56172  1.0000
  C   C1668     1.0  0.61830  0.95539  0.61098  1.0000
  H   H1645     1.0  0.56674  0.74481  0.96581  1.0000
  H   H1646     1.0  0.63312  0.91168  0.72063  1.0000
  H   H1647     1.0  0.63828  0.86496  0.55973  1.0000
  C   C1669     1.0  0.47650  0.74942  0.49893  1.0000
  H   H1648     1.0  0.57625  0.74792  0.48250  1.0000
  C   C1670     1.0  0.51059  0.75617  0.48386  1.0000
  S   S549      1.0  0.61892  0.74144  0.51146  1.0000
  C   C1671     1.0  0.52091  0.78935  0.59477  1.0000
  S   S550      1.0  0.49408  0.77453  0.97151  1.0000
  C   C1672     1.0  0.63522  0.93492  0.67027  1.0000
  H   H1649     1.0  0.60521  0.93546  0.73722  1.0000
  H   H1650     1.0  0.53864  0.98075  0.59321  1.0000
  C   C1673     1.0  0.61733  0.91065  0.72207  1.0000
  C   C1674     1.0  0.63397  0.93851  0.61066  1.0000
  H   H1651     1.0  0.35161  0.90374  0.93304  1.0000
  H   H1652     1.0  0.41855  0.94622  0.74772  1.0000
  H   H1653     1.0  0.60438  0.75896  0.97233  1.0000
  C   C1675     1.0  0.51479  0.75266  0.85357  1.0000
  H   H1654     1.0  0.50913  0.79384  0.58601  1.0000
  N   N137      1.0  0.55802  0.83078  0.93279  1.0000
  C   C1676     1.0  0.52895  0.75149  0.83549  1.0000
  H   H1655     1.0  0.37938  0.81039  0.87048  1.0000
  C   C1677     1.0  0.37814  0.91565  0.96980  1.0000
  H   H1656     1.0  0.55852  0.84063  0.90161  1.0000
  C   C1678     1.0  0.56413  0.81188  0.96469  1.0000
  H   H1657     1.0  0.36663  0.94675  0.95882  1.0000
  C   C1679     1.0  0.54295  0.96172  0.65124  1.0000
  C   C1680     1.0  0.62899  0.75442  0.48764  1.0000
  S   S551      1.0  0.51948  0.98568  0.70847  1.0000
  C   C1681     1.0  0.49500  0.75334  0.50075  1.0000
  S   S552      1.0  0.49821  0.97163  0.75570  1.0000
  H   H1658     1.0  0.53559  0.75947  0.95220  1.0000
  N   N138      1.0  0.36932  0.89169  0.95551  1.0000
  N   N139      1.0  0.54573  0.76363  0.60939  1.0000
  H   H1659     1.0  0.46440  0.74749  0.51200  1.0000
  H   H1660     1.0  0.63102  0.92430  0.60954  1.0000
  H   H1661     1.0  0.56654  0.96796  0.66257  1.0000
  C   C1682     1.0  0.65679  0.75181  0.83987  1.0000
  S   S553      1.0  0.65939  0.80502  0.88281  1.0000
  C   C1683     1.0  0.36778  0.93131  0.95753  1.0000
  H   H1662     1.0  0.56500  0.73928  0.62480  1.0000
  H   H1663     1.0  0.58855  0.97701  0.77925  1.0000
  C   C1684     1.0  0.65034  0.75376  0.97095  1.0000
  H   H1664     1.0  0.33799  0.96340  0.73198  1.0000
  C   C1685     1.0  0.47359  0.74802  0.48031  1.0000
  H   H1665     1.0  0.87952  0.01169  0.43394  1.0000
  H   H1666     1.0  0.97462  0.08719  0.16262  1.0000
  H   H1667     1.0  0.95005  0.99745  0.20135  1.0000
  H   H1668     1.0  0.81171  0.05638  0.42594  1.0000
  C   C1686     1.0  0.98738  0.05975  0.15123  1.0000
  H   H1669     1.0  0.69229  0.21671  0.42333  1.0000
  S   S554      1.0  0.73697  0.20248  0.40682  1.0000
  H   H1670     1.0  0.89341  0.02870  0.06972  1.0000
  H   H1671     1.0  0.89345  0.04797  0.00935  1.0000
  H   H1672     1.0  0.92869  0.04322  0.24809  1.0000
  Fe  Fe273     1.0  0.76376  0.05258  0.41249  1.0000
  S   S555      1.0  0.79112  0.05785  0.38827  1.0000
  S   S556      1.0  0.76687  0.02192  0.43205  1.0000
  Fe  Fe274     1.0  0.74171  0.09599  0.40370  1.0000
  S   S557      1.0  0.76741  0.10463  0.37896  1.0000
  S   S558      1.0  0.71360  0.11984  0.40897  1.0000
  Fe  Fe275     1.0  0.76817  0.07575  0.37011  1.0000
  S   S559      1.0  0.76865  0.07685  0.33795  1.0000
  Fe  Fe276     1.0  0.78754  0.08596  0.39959  1.0000
  S   S560      1.0  0.81443  0.09632  0.40312  1.0000
  S   S561      1.0  0.74090  0.06822  0.39338  1.0000
  S   S562      1.0  0.76185  0.07966  0.42534  1.0000
  C   C1687     1.0  0.67955  0.02337  0.15711  1.0000
  H   H1673     1.0  0.70253  0.17103  0.32922  1.0000
  H   H1674     1.0  0.94530  0.04917  0.17476  1.0000
  H   H1675     1.0  0.82645  0.02047  0.33533  1.0000
  H   H1676     1.0  0.97287  0.04032  0.19377  1.0000
  C   C1688     1.0  0.90226  0.00644  0.22967  1.0000
  C   C1689     1.0  0.82284  0.08298  0.42489  1.0000
  C   C1690     1.0  0.81949  0.06345  0.43310  1.0000
  C   C1691     1.0  0.71278  0.17618  0.33549  1.0000
  S   S563      1.0  0.66846  0.01725  0.08393  1.0000
  H   H1677     1.0  0.80172  0.99063  0.42781  1.0000
  H   H1678     1.0  0.88092  0.00624  0.05519  1.0000
  C   C1692     1.0  0.92767  0.99850  0.25015  1.0000
  C   C1693     1.0  0.93246  0.04520  0.23191  1.0000
  C   C1694     1.0  0.73369  0.00004  0.04379  1.0000
  C   C1695     1.0  0.73491  0.17033  0.35805  1.0000
  C   C1696     1.0  0.95273  0.99714  0.04167  1.0000
  S   S564      1.0  0.82789  0.99889  0.00394  1.0000
  H   H1679     1.0  0.98528  0.20810  0.35740  1.0000
  C   C1697     1.0  0.75151  0.00033  0.02887  1.0000
  S   S565      1.0  0.86678  0.03801  0.98784  1.0000
  S   S566      1.0  0.88002  0.02469  0.36246  1.0000
  S   S567      1.0  0.94368  0.03062  0.13727  1.0000
  C   C1698     1.0  0.76165  0.01794  0.33126  1.0000
  C   C1699     1.0  0.80221  0.04374  0.29723  1.0000
  S   S568      1.0  0.91097  0.01070  0.18902  1.0000
  H   H1680     1.0  0.70401  0.14319  0.36825  1.0000
  C   C1700     1.0  0.92128  0.05214  0.20074  1.0000
  C   C1701     1.0  0.95709  0.04326  0.20167  1.0000
  C   C1702     1.0  0.71587  0.19593  0.32878  1.0000
  H   H1681     1.0  0.90194  0.01242  0.00553  1.0000
  H   H1682     1.0  0.67639  0.04691  0.17323  1.0000
  C   C1703     1.0  0.66895  0.04023  0.16534  1.0000
  C   C1704     1.0  0.83590  0.06240  0.46021  1.0000
  H   H1683     1.0  0.70565  0.19257  0.47224  1.0000
  H   H1684     1.0  0.85792  0.98979  0.38560  1.0000
  H   H1685     1.0  0.75450  0.99422  0.08425  1.0000
  N   N140      1.0  0.95235  0.04123  0.22204  1.0000
  H   H1686     1.0  0.99729  0.13416  0.14189  1.0000
  H   H1687     1.0  0.83932  0.01007  0.42166  1.0000
  C   C1705     1.0  0.82635  0.05303  0.45058  1.0000
  C   C1706     1.0  0.75372  0.99597  0.06877  1.0000
  H   H1688     1.0  0.83701  0.01326  0.09624  1.0000
  Fe  Fe277     1.0  0.67318  0.99174  0.10936  1.0000
  H   H1689     1.0  0.80021  0.10206  0.33430  1.0000
  C   C1707     1.0  0.77046  0.99824  0.03393  1.0000
  H   H1690     1.0  0.85814  0.02389  0.11411  1.0000
  C   C1708     1.0  0.91463  0.00510  0.08368  1.0000
  H   H1691     1.0  0.70837  0.20584  0.31728  1.0000
  C   C1709     1.0  0.92591  0.00450  0.02234  1.0000
  C   C1710     1.0  0.96865  0.03518  0.23340  1.0000
  H   H1692     1.0  0.84699  0.06264  0.37879  1.0000
  H   H1693     1.0  0.82868  0.98893  0.08360  1.0000
  H   H1694     1.0  0.83534  0.10723  0.42798  1.0000
  C   C1711     1.0  0.93808  0.99888  0.21441  1.0000
  Fe  Fe278     1.0  0.72247  0.23170  0.39004  1.0000
  S   S569      1.0  0.86034  0.98935  0.34170  1.0000
  H   H1695     1.0  0.73056  0.21841  0.33237  1.0000
  S   S570      1.0  0.68425  0.99442  0.13561  1.0000
  C   C1712     1.0  0.78677  0.05854  0.32664  1.0000
  C   C1713     1.0  0.78755  0.05798  0.30675  1.0000
  C   C1714     1.0  0.80071  0.04485  0.33698  1.0000
  H   H1696     1.0  0.77677  0.06855  0.29871  1.0000
  H   H1697     1.0  0.80018  0.04512  0.35230  1.0000
  H   H1698     1.0  0.76729  0.02359  0.31514  1.0000
  C   C1715     1.0  0.85282  0.06723  0.33393  1.0000
  C   C1716     1.0  0.88717  0.01016  0.38454  1.0000
  C   C1717     1.0  0.71856  0.14311  0.35697  1.0000
  H   H1699     1.0  0.86743  0.05713  0.33386  1.0000
  H   H1700     1.0  0.76911  0.07225  0.46650  1.0000
  C   C1718     1.0  0.73002  0.17985  0.40707  1.0000
  C   C1719     1.0  0.71111  0.17933  0.40347  1.0000
  C   C1720     1.0  0.70583  0.16080  0.40466  1.0000
  C   C1721     1.0  0.71969  0.14285  0.40880  1.0000
  C   C1722     1.0  0.73865  0.14345  0.41213  1.0000
  C   C1723     1.0  0.74364  0.16189  0.41158  1.0000
  H   H1701     1.0  0.70056  0.19311  0.39983  1.0000
  H   H1702     1.0  0.69118  0.16036  0.40199  1.0000
  H   H1703     1.0  0.74941  0.12968  0.41535  1.0000
  H   H1704     1.0  0.75826  0.16222  0.41442  1.0000
  C   C1724     1.0  0.73791  0.19016  0.35206  1.0000
  H   H1705     1.0  0.78049  0.99697  0.47080  1.0000
  C   C1725     1.0  0.81640  0.03032  0.30744  1.0000
  C   C1726     1.0  0.81569  0.03092  0.32730  1.0000
  H   H1706     1.0  0.69512  0.01709  0.15869  1.0000
  H   H1707     1.0  0.81787  0.09716  0.36211  1.0000
  H   H1708     1.0  0.98543  0.16658  0.12041  1.0000
  H   H1709     1.0  0.71768  0.13639  0.34448  1.0000
  C   C1727     1.0  0.67028  0.01500  0.14640  1.0000
  H   H1710     1.0  0.85147  0.08800  0.37201  1.0000
  H   H1711     1.0  0.95438  0.00155  0.05530  1.0000
  C   C1728     1.0  0.82519  0.08958  0.34965  1.0000
  C   C1729     1.0  0.74342  0.00997  0.41229  1.0000
  C   C1730     1.0  0.75626  0.00422  0.42598  1.0000
  Fe  Fe279     1.0  0.97614  0.01427  0.13632  1.0000
  S   S571      1.0  0.96812  0.99011  0.16255  1.0000
  C   C1731     1.0  0.84859  0.00216  0.10283  1.0000
  H   H1712     1.0  0.73943  0.02556  0.40560  1.0000
  C   C1732     1.0  0.88072  0.01784  0.40223  1.0000
  H   H1713     1.0  0.73088  0.13311  0.36419  1.0000
  C   C1733     1.0  0.79286  0.99209  0.32729  1.0000
  H   H1714     1.0  0.97325  0.05850  0.14804  1.0000
  C   C1734     1.0  0.91663  0.05065  0.22143  1.0000
  C   C1735     1.0  0.94162  0.04851  0.19076  1.0000
  C   C1736     1.0  0.73481  0.99813  0.06371  1.0000
  H   H1715     1.0  0.71438  0.20713  0.44832  1.0000
  H   H1716     1.0  0.83835  0.02098  0.39587  1.0000
  C   C1737     1.0  0.89944  0.01275  0.07239  1.0000
  H   H1717     1.0  0.90085  0.05272  0.22940  1.0000
  C   C1738     1.0  0.85369  0.07387  0.36643  1.0000
  N   N141      1.0  0.72247  0.16358  0.34978  1.0000
  N   N142      1.0  0.82959  0.99241  0.40656  1.0000
  C   C1739     1.0  0.82437  0.08269  0.31792  1.0000
  N   N143      1.0  0.84386  0.07721  0.34942  1.0000
  H   H1718     1.0  0.87040  0.06825  0.36234  1.0000
  H   H1719     1.0  0.81657  0.08454  0.30583  1.0000
  H   H1720     1.0  0.87242  0.03309  0.40202  1.0000
  C   C1740     1.0  0.84322  0.06980  0.31797  1.0000
  C   C1741     1.0  0.77161  0.99580  0.05394  1.0000
  H   H1721     1.0  0.74238  0.16047  0.36957  1.0000
  S   S572      1.0  0.88351  0.02101  0.30618  1.0000
  H   H1722     1.0  0.85014  0.06154  0.30592  1.0000
  C   C1742     1.0  0.81520  0.09255  0.33391  1.0000
  H   H1723     1.0  0.97283  0.04867  0.23583  1.0000
  C   C1743     1.0  0.91041  0.01768  0.01368  1.0000
  C   C1744     1.0  0.72839  0.20298  0.33724  1.0000
  H   H1724     1.0  0.80268  0.04323  0.28187  1.0000
  H   H1725     1.0  0.82357  0.03806  0.45693  1.0000
  N   N144      1.0  0.68320  0.20449  0.45411  1.0000
  C   C1745     1.0  0.83897  0.08199  0.45208  1.0000
  C   C1746     1.0  0.83280  0.09212  0.43427  1.0000
  C   C1747     1.0  0.91641  0.04430  0.02655  1.0000
  H   H1726     1.0  0.97644  0.22553  0.01993  1.0000
  C   C1748     1.0  0.67122  0.22828  0.33779  1.0000
  H   H1727     1.0  0.89524  0.00563  0.26142  1.0000
  C   C1749     1.0  0.88456  0.00567  0.42035  1.0000
  C   C1750     1.0  0.86040  0.00827  0.11300  1.0000
  Fe  Fe280     1.0  0.85456  0.01081  0.00609  1.0000
  C   C1751     1.0  0.90562  0.03768  0.01586  1.0000
  H   H1728     1.0  0.95890  0.99203  0.23445  1.0000
  H   H1729     1.0  0.75859  0.03081  0.33904  1.0000
  H   H1730     1.0  0.84627  0.08933  0.45947  1.0000
  S   S573      1.0  0.92479  0.02198  0.09174  1.0000
  H   H1731     1.0  0.76045  0.00234  0.36957  1.0000
  H   H1732     1.0  0.81512  0.02092  0.41437  1.0000
  S   S574      1.0  0.93423  0.99734  0.27299  1.0000
  C   C1752     1.0  0.73530  0.99551  0.40754  1.0000
  H   H1733     1.0  0.74740  0.19558  0.35904  1.0000
  H   H1734     1.0  0.91265  0.05978  0.02853  1.0000
  Fe  Fe281     1.0  0.94214  0.01059  0.11696  1.0000
  Fe  Fe282     1.0  0.88448  0.00703  0.33822  1.0000
  Fe  Fe283     1.0  0.90745  0.99430  0.29883  1.0000
  H   H1735     1.0  0.88643  0.01072  0.22836  1.0000
  S   S575      1.0  0.83415  0.01225  0.29550  1.0000
  H   H1736     1.0  0.96739  0.99693  0.03061  1.0000
  H   H1737     1.0  0.74714  0.01281  0.33303  1.0000
  C   C1753     1.0  0.83064  0.01206  0.40979  1.0000
  C   C1754     1.0  0.98825  0.07606  0.15931  1.0000
  C   C1755     1.0  0.67960  0.21451  0.43580  1.0000
  Fe  Fe284     1.0  0.82373  0.98923  0.03722  1.0000
  S   S576      1.0  0.71039  0.00068  0.03755  1.0000
  N   N145      1.0  0.93627  0.01107  0.03299  1.0000
  H   H1738     1.0  0.90914  0.05529  0.19255  1.0000
  H   H1739     1.0  0.72508  0.00001  0.39720  1.0000
  S   S577      1.0  0.84679  0.99857  0.46676  1.0000
  C   C1756     1.0  0.76764  0.04073  0.47374  1.0000
  C   C1757     1.0  0.90723  0.00349  0.24842  1.0000
  Fe  Fe285     1.0  0.86171  0.00083  0.30912  1.0000
  H   H1740     1.0  0.75737  0.04239  0.46382  1.0000
  C   C1758     1.0  0.82862  0.05484  0.98019  1.0000
  C   C1759     1.0  0.77411  0.05772  0.47526  1.0000
  Fe  Fe286     1.0  0.68550  0.99479  0.06462  1.0000
  S   S578      1.0  0.84804  0.00444  0.03947  1.0000
  H   H1741     1.0  0.96366  0.02564  0.24814  1.0000
  H   H1742     1.0  0.93985  0.03588  0.04371  1.0000
  H   H1743     1.0  0.98243  0.02607  0.22544  1.0000
  C   C1760     1.0  0.89229  1.00000  0.06415  1.0000
  H   H1744     1.0  0.67520  0.22593  0.35217  1.0000
  Fe  Fe287     1.0  0.93571  0.00509  0.16206  1.0000
  H   H1745     1.0  0.82317  0.04284  0.99154  1.0000
  C   C1761     1.0  0.93186  0.03073  0.03499  1.0000
  C   C1762     1.0  0.91766  0.00439  0.21257  1.0000
  S   S579      1.0  0.97550  0.99667  0.11348  1.0000
  C   C1763     1.0  0.70430  0.19618  0.45635  1.0000
  C   C1764     1.0  0.77354  0.99510  0.35985  1.0000
  S   S580      1.0  0.95737  0.22779  0.98743  1.0000
  H   H1746     1.0  0.92920  0.98886  0.02095  1.0000
  C   C1765     1.0  0.89805  0.99050  0.38494  1.0000
  H   H1747     1.0  0.78418  0.99812  0.02242  1.0000
  H   H1748     1.0  0.88510  0.99879  0.12883  1.0000
  H   H1749     1.0  0.71008  0.18237  0.44983  1.0000
  C   C1766     1.0  0.94308  0.99594  0.23316  1.0000
  S   S581      1.0  0.79519  0.99106  0.06116  1.0000
  H   H1750     1.0  0.75386  0.00822  0.47648  1.0000
  H   H1751     1.0  0.75068  0.00186  0.01344  1.0000
  H   H1752     1.0  0.72111  0.99826  0.07528  1.0000
  N   N146      1.0  0.77655  0.00146  0.33961  1.0000
  C   C1767     1.0  0.87548  0.99416  0.12135  1.0000
  H   H1753     1.0  0.79532  0.99704  0.31121  1.0000
  C   C1768     1.0  0.66728  0.20177  0.47000  1.0000
  S   S582      1.0  0.93172  0.98643  0.14195  1.0000
  C   C1769     1.0  0.98278  0.23616  0.00741  1.0000
  C   C1770     1.0  0.79429  0.03691  0.49857  1.0000
  C   C1771     1.0  0.73797  0.17958  0.87382  1.0000
  S   S583      1.0  0.77969  0.16924  0.86602  1.0000
  S   S584      1.0  0.80842  0.99472  0.75893  1.0000
  C   C1772     1.0  0.75498  0.16449  0.87692  1.0000
  C   C1773     1.0  0.71813  0.17620  0.88286  1.0000
  S   S585      1.0  0.74878  0.02004  0.76395  1.0000
  C   C1774     1.0  0.71530  0.15755  0.89463  1.0000
  S   S586      1.0  0.94187  0.22703  0.90510  1.0000
  C   C1775     1.0  0.77550  0.03755  0.71625  1.0000
  S   S587      1.0  0.85226  0.11025  0.89552  1.0000
  C   C1776     1.0  0.88742  0.16510  0.93031  1.0000
  C   C1777     1.0  0.82035  0.12353  0.81916  1.0000
  Fe  Fe288     1.0  0.77973  0.01438  0.77185  1.0000
  C   C1778     1.0  0.86458  0.21544  0.91063  1.0000
  H   H1754     1.0  0.76022  0.18704  0.92949  1.0000
  Fe  Fe289     1.0  0.80062  0.02775  0.79904  1.0000
  S   S588      1.0  0.83111  0.00926  0.78810  1.0000
  S   S589      1.0  0.79156  0.04509  0.82437  1.0000
  Fe  Fe290     1.0  0.82367  0.02019  0.75756  1.0000
  S   S590      1.0  0.84457  0.03370  0.72998  1.0000
  S   S591      1.0  0.81696  0.15080  0.90336  1.0000
  S   S592      1.0  0.79446  0.04071  0.76833  1.0000
  H   H1755     1.0  0.79897  0.06819  0.97344  1.0000
  Fe  Fe291     1.0  0.84857  0.14373  0.88477  1.0000
  Fe  Fe292     1.0  0.83819  0.10995  0.87003  1.0000
  S   S593      1.0  0.85068  0.08657  0.85033  1.0000
  S   S594      1.0  0.83714  0.14279  0.85776  1.0000
  Fe  Fe293     1.0  0.93871  0.00880  0.60558  1.0000
  C   C1779     1.0  0.82218  0.10962  0.80722  1.0000
  S   S595      1.0  0.92660  0.02230  0.57708  1.0000
  Fe  Fe294     1.0  0.96734  0.01011  0.63248  1.0000
  H   H1756     1.0  0.86480  0.99636  0.96126  1.0000
  H   H1757     1.0  0.94491  0.05764  0.68703  1.0000
  H   H1758     1.0  0.82414  0.01129  0.70816  1.0000
  H   H1759     1.0  0.85502  0.99035  0.73429  1.0000
  C   C1780     1.0  0.80116  0.13064  0.83023  1.0000
  S   S596      1.0  0.97283  0.00168  0.60246  1.0000
  S   S597      1.0  0.93333  0.02045  0.63438  1.0000
  S   S598      1.0  0.91214  0.18394  0.94160  1.0000
  C   C1781     1.0  0.75611  0.98802  0.74479  1.0000
  H   H1760     1.0  0.80749  0.99189  0.69364  1.0000
  H   H1761     1.0  0.77054  0.00230  0.69353  1.0000
  H   H1762     1.0  0.79318  0.00558  0.50485  1.0000
  C   C1782     1.0  0.98851  0.07897  0.63868  1.0000
  C   C1783     1.0  0.98441  0.06066  0.63707  1.0000
  C   C1784     1.0  0.99457  0.23376  0.86317  1.0000
  H   H1763     1.0  0.97902  0.09294  0.63332  1.0000
  H   H1764     1.0  0.97184  0.06058  0.63051  1.0000
  C   C1785     1.0  0.89055  0.99285  0.69054  1.0000
  H   H1765     1.0  0.79989  0.14131  0.83964  1.0000
  H   H1766     1.0  0.85162  0.22616  0.95090  1.0000
  H   H1767     1.0  0.74012  0.19401  0.86467  1.0000
  H   H1768     1.0  0.76259  0.14730  0.84215  1.0000
  H   H1769     1.0  0.67230  0.01217  0.64792  1.0000
  H   H1770     1.0  0.83382  0.12832  0.82027  1.0000
  H   H1771     1.0  0.90487  0.18416  0.87369  1.0000
  H   H1772     1.0  0.92039  0.19297  0.89794  1.0000
  C   C1786     1.0  0.86187  0.01775  0.71482  1.0000
  H   H1773     1.0  0.77199  0.17363  0.90914  1.0000
  H   H1774     1.0  0.80350  0.04058  0.72276  1.0000
  C   C1787     1.0  0.86768  0.02511  0.94226  1.0000
  C   C1788     1.0  0.88815  0.01370  0.68476  1.0000
  C   C1789     1.0  0.87380  0.02611  0.69688  1.0000
  Fe  Fe295     1.0  0.85151  0.01705  0.48654  1.0000
  N   N147      1.0  0.78428  0.12405  0.82943  1.0000
  H   H1775     1.0  0.89749  0.02023  0.67111  1.0000
  H   H1776     1.0  0.87206  0.04223  0.69243  1.0000
  C   C1790     1.0  0.80867  0.05516  0.83226  1.0000
  C   C1791     1.0  0.82937  0.05309  0.82312  1.0000
  C   C1792     1.0  0.84222  0.06233  0.82920  1.0000
  C   C1793     1.0  0.83444  0.07388  0.84425  1.0000
  C   C1794     1.0  0.81382  0.07561  0.85360  1.0000
  C   C1795     1.0  0.80104  0.06618  0.84771  1.0000
  H   H1777     1.0  0.83541  0.04462  0.81121  1.0000
  H   H1778     1.0  0.85818  0.06089  0.82194  1.0000
  H   H1779     1.0  0.80765  0.08433  0.86524  1.0000
  H   H1780     1.0  0.78504  0.06780  0.85487  1.0000
  H   H1781     1.0  0.87990  0.04688  0.57392  1.0000
  C   C1796     1.0  0.74485  0.03361  0.70709  1.0000
  H   H1782     1.0  0.88232  0.04839  0.49651  1.0000
  H   H1783     1.0  0.87201  0.07322  0.95808  1.0000
  S   S599      1.0  0.80607  0.11444  0.88736  1.0000
  C   C1797     1.0  0.75053  0.12770  0.94791  1.0000
  S   S600      1.0  0.96254  0.20126  0.94314  1.0000
  C   C1798     1.0  0.88457  0.16725  0.89615  1.0000
  C   C1799     1.0  0.85788  0.04184  0.93050  1.0000
  C   C1800     1.0  0.78753  0.05574  0.48776  1.0000
  H   H1784     1.0  0.89145  0.06651  0.50445  1.0000
  S   S601      1.0  0.69097  0.15308  0.90745  1.0000
  H   H1785     1.0  0.86446  0.21459  0.88022  1.0000
  C   C1801     1.0  0.82187  0.08488  0.95529  1.0000
  Fe  Fe296     1.0  0.80591  0.14725  0.87730  1.0000
  C   C1802     1.0  0.87816  0.05918  0.50690  1.0000
  H   H1786     1.0  0.76349  0.12246  0.85732  1.0000
  H   H1787     1.0  0.88255  0.15969  0.94614  1.0000
  S   S602      1.0  0.91985  0.23268  0.95147  1.0000
  C   C1803     1.0  0.87841  0.16029  0.91662  1.0000
  C   C1804     1.0  0.91499  0.00755  0.56760  1.0000
  H   H1788     1.0  0.83709  0.10352  0.79909  1.0000
  H   H1789     1.0  0.86590  0.05407  0.92310  1.0000
  H   H1790     1.0  0.70003  0.99773  0.73835  1.0000
  H   H1791     1.0  0.70090  0.14969  0.94809  1.0000
  C   C1805     1.0  0.93948  0.99193  0.70172  1.0000
  C   C1806     1.0  0.71737  0.14807  0.94549  1.0000
  C   C1807     1.0  0.90246  0.17706  0.92370  1.0000
  C   C1808     1.0  0.89997  0.17880  0.88952  1.0000
  H   H1792     1.0  0.70505  0.18802  0.88078  1.0000
  H   H1793     1.0  0.76631  0.99347  0.49619  1.0000
  N   N148      1.0  0.74764  0.16189  0.93040  1.0000
  H   H1794     1.0  0.79320  0.06867  0.48859  1.0000
  N   N149      1.0  0.76647  0.02694  0.70808  1.0000
  C   C1809     1.0  0.75208  0.14588  0.88869  1.0000
  H   H1795     1.0  0.80507  0.03522  0.50797  1.0000
  S   S603      1.0  0.87274  0.16296  0.87838  1.0000
  Fe  Fe297     1.0  0.93124  0.98851  0.64907  1.0000
  Fe  Fe298     1.0  0.81970  0.11738  0.91197  1.0000
  C   C1810     1.0  0.84921  0.05624  0.97588  1.0000
  C   C1811     1.0  0.76839  0.00441  0.48188  1.0000
  H   H1796     1.0  0.84786  0.09847  0.93984  1.0000
  H   H1797     1.0  0.96778  0.03953  0.68164  1.0000
  H   H1798     1.0  0.75158  0.12949  0.83594  1.0000
  H   H1799     1.0  0.76501  0.13418  0.89123  1.0000
  S   S604      1.0  0.80473  0.10210  0.94198  1.0000
  C   C1812     1.0  0.76451  0.13112  0.84181  1.0000
  H   H1800     1.0  0.76005  0.11352  0.95292  1.0000
  N   N150      1.0  0.83826  0.04305  0.92883  1.0000
  C   C1813     1.0  0.82813  0.02767  0.93829  1.0000
  C   C1814     1.0  0.72681  0.16415  0.93476  1.0000
  Fe  Fe299     1.0  0.93207  0.20735  0.93459  1.0000
  C   C1815     1.0  0.86625  0.21694  0.94461  1.0000
  C   C1816     1.0  0.75948  0.14406  0.93709  1.0000
  H   H1801     1.0  0.99685  0.20378  0.96655  1.0000
  H   H1802     1.0  0.90424  0.00417  0.52371  1.0000
  H   H1803     1.0  0.77598  0.14228  0.93388  1.0000
  H   H1804     1.0  0.71736  0.17816  0.92928  1.0000
  H   H1805     1.0  0.83474  0.07395  0.91492  1.0000
  C   C1817     1.0  0.71566  0.99500  0.74005  1.0000
  H   H1806     1.0  0.81179  0.06439  0.92248  1.0000
  C   C1818     1.0  0.72934  0.12972  0.95201  1.0000
  C   C1819     1.0  0.82837  0.06046  0.91607  1.0000
  H   H1807     1.0  0.74319  0.04521  0.69350  1.0000
  H   H1808     1.0  0.85873  0.02065  0.58197  1.0000
  C   C1820     1.0  0.85743  0.00940  0.95202  1.0000
  C   C1821     1.0  0.79636  0.03214  0.71628  1.0000
  S   S605      1.0  0.99166  0.01895  0.64355  1.0000
  C   C1822     1.0  0.72163  0.00711  0.75000  1.0000
  H   H1809     1.0  0.82956  0.99840  0.95761  1.0000
  H   H1810     1.0  0.88871  0.06473  0.53910  1.0000
  C   C1823     1.0  0.90440  0.00092  0.53948  1.0000
  C   C1824     1.0  0.81493  0.06925  0.97000  1.0000
  H   H1811     1.0  0.73790  0.02090  0.70678  1.0000
  Fe  Fe300     1.0  0.95127  0.22853  0.95716  1.0000
  H   H1812     1.0  0.85585  0.20356  0.91677  1.0000
  N   N151      1.0  0.87272  0.04883  0.52763  1.0000
  C   C1825     1.0  0.86072  0.03471  0.53202  1.0000
  C   C1826     1.0  0.87913  0.05361  0.54250  1.0000
  C   C1827     1.0  0.85535  0.02449  0.55163  1.0000
  C   C1828     1.0  0.87398  0.04373  0.56230  1.0000
  C   C1829     1.0  0.86213  0.02900  0.56683  1.0000
  C   C1830     1.0  0.85609  0.07205  0.96138  1.0000
  H   H1813     1.0  0.85563  0.03101  0.52023  1.0000
  C   C1831     1.0  0.94895  0.00784  0.69055  1.0000
  C   C1832     1.0  0.75732  0.17886  0.91910  1.0000
  H   H1814     1.0  0.92232  0.02319  0.53719  1.0000
  C   C1833     1.0  0.86409  0.99693  0.72045  1.0000
  H   H1815     1.0  0.88292  0.02454  0.94422  1.0000
  H   H1816     1.0  0.76651  0.05012  0.72306  1.0000
  H   H1817     1.0  0.86492  0.07069  0.50282  1.0000
  C   C1834     1.0  0.90879  0.18382  0.90322  1.0000
  C   C1835     1.0  0.84247  0.08626  0.95096  1.0000
  H   H1818     1.0  0.73600  0.03995  0.72050  1.0000
  Fe  Fe301     1.0  0.97147  0.22316  0.91506  1.0000
  H   H1819     1.0  0.87845  0.21810  0.95181  1.0000
  H   H1820     1.0  0.84664  0.01262  0.55487  1.0000
  C   C1836     1.0  0.80796  0.01568  0.70805  1.0000
  S   S606      1.0  0.88398  0.00194  0.48722  1.0000
  H   H1821     1.0  0.73014  0.12788  0.90638  1.0000
  C   C1837     1.0  0.77774  0.01081  0.69988  1.0000
  C   C1838     1.0  0.79882  0.99447  0.86182  1.0000
  H   H1822     1.0  0.72220  0.11706  0.96005  1.0000
  C   C1839     1.0  0.95119  0.04330  0.68155  1.0000
  C   C1840     1.0  0.78601  0.11010  0.81805  1.0000
  C   C1841     1.0  0.80492  0.10286  0.80661  1.0000
  H   H1823     1.0  0.77283  0.10416  0.81807  1.0000
  H   H1824     1.0  0.80631  0.09144  0.79799  1.0000
  C   C1842     1.0  0.99655  0.04255  0.64408  1.0000
  C   C1843     1.0  0.73230  0.14232  0.89725  1.0000
  C   C1844     1.0  0.79861  0.00484  0.69989  1.0000
  H   H1825     1.0  0.86666  0.15131  0.92189  1.0000
  H   H1826     1.0  0.78735  0.00815  0.86185  1.0000
  H   H1827     1.0  0.71053  0.01927  0.75581  1.0000
  N   N152      1.0  0.94110  0.02694  0.69385  1.0000
  C   C1845     1.0  0.92370  0.03080  0.70799  1.0000
  C   C1846     1.0  0.74186  0.00376  0.75230  1.0000
  C   C1847     1.0  0.91396  0.01520  0.71958  1.0000
  N   N153      1.0  0.87157  0.22355  0.92291  1.0000
  C   C1848     1.0  0.91472  0.01160  0.54712  1.0000
  C   C1849     1.0  0.83756  0.01061  0.94999  1.0000
  H   H1828     1.0  0.91711  0.04600  0.71028  1.0000
  C   C1850     1.0  0.78760  0.02023  0.49663  1.0000
  H   H1829     1.0  0.89990  0.01832  0.73048  1.0000
  S   S607      1.0  0.78324  0.00311  0.80355  1.0000
  H   H1830     1.0  0.74760  0.18939  0.90916  1.0000
  C   C1851     1.0  0.92197  0.99566  0.71641  1.0000
  C   C1852     1.0  0.86937  0.22169  0.88990  1.0000
  H   H1831     1.0  0.81261  0.02859  0.93691  1.0000
  S   S608      1.0  0.84301  0.05048  0.48304  1.0000
  N   N154      1.0  0.77435  0.02228  0.48441  1.0000
  H   H1832     1.0  0.81494  0.00440  0.83204  1.0000
  S   S609      1.0  0.83805  0.99819  0.51496  1.0000
  H   H1833     1.0  0.83065  0.05742  0.90079  1.0000
  H   H1834     1.0  0.94938  0.04564  0.66588  1.0000
  H   H1835     1.0  0.86499  0.20085  0.94850  1.0000
  H   H1836     1.0  0.99798  0.22048  0.94304  1.0000
  H   H1837     1.0  0.96251  0.00488  0.67908  1.0000
  C   C1853     1.0  0.90513  0.99253  0.58027  1.0000
  H   H1838     1.0  0.90474  0.98955  0.59610  1.0000
  H   H1839     1.0  0.67005  0.19408  0.48462  1.0000
  C   C1854     1.0  0.81435  0.99238  0.84499  1.0000
  H   H1840     1.0  0.70039  0.40008  0.03723  1.0000
  Fe  Fe302     1.0  0.80917  0.34534  0.41759  1.0000
  S   S610      1.0  0.83933  0.33447  0.39842  1.0000
  S   S611      1.0  0.78236  0.32921  0.42499  1.0000
  Fe  Fe303     1.0  0.82500  0.37905  0.42707  1.0000
  S   S612      1.0  0.85622  0.37041  0.40878  1.0000
  S   S613      1.0  0.81780  0.40831  0.43832  1.0000
  Fe  Fe304     1.0  0.83984  0.36712  0.38638  1.0000
  S   S614      1.0  0.85291  0.37971  0.35445  1.0000
  Fe  Fe305     1.0  0.85296  0.33877  0.42250  1.0000
  S   S615      1.0  0.87788  0.31496  0.43407  1.0000
  S   S616      1.0  0.80858  0.37792  0.40366  1.0000
  S   S617      1.0  0.82282  0.34744  0.44285  1.0000
  H   H1841     1.0  0.70575  0.31255  0.44656  1.0000
  Fe  Fe306     1.0  0.70588  0.25442  0.35341  1.0000
  C   C1855     1.0  0.91274  0.29587  0.38303  1.0000
  C   C1856     1.0  0.67044  0.26099  0.44721  1.0000
  Fe  Fe307     1.0  0.73161  0.27334  0.37150  1.0000
  S   S618      1.0  0.75369  0.29496  0.36283  1.0000
  S   S619      1.0  0.70101  0.28396  0.36291  1.0000
  H   H1842     1.0  0.91207  0.28118  0.39236  1.0000
  C   C1857     1.0  0.89446  0.30926  0.38077  1.0000
  C   C1858     1.0  0.81127  0.42568  0.00778  1.0000
  C   C1859     1.0  0.84313  0.44683  0.35245  1.0000
  H   H1843     1.0  0.87991  0.30499  0.38838  1.0000
  H   H1844     1.0  0.80315  0.42860  0.39827  1.0000
  S   S620      1.0  0.67665  0.46133  0.20716  1.0000
  C   C1860     1.0  0.72359  0.33575  0.39933  1.0000
  C   C1861     1.0  0.84778  0.46093  0.98595  1.0000
  H   H1845     1.0  0.78147  0.47177  0.24423  1.0000
  S   S621      1.0  0.76950  0.41674  0.99384  1.0000
  H   H1846     1.0  0.70440  0.34918  0.36372  1.0000
  H   H1847     1.0  0.81250  0.45533  0.01043  1.0000
  H   H1848     1.0  0.85415  0.45153  0.33916  1.0000
  S   S622      1.0  0.69916  0.25365  0.32370  1.0000
  H   H1849     1.0  0.95146  0.35342  0.43699  1.0000
  H   H1850     1.0  0.67224  0.39169  0.06572  1.0000
  S   S623      1.0  0.76419  0.46209  0.01882  1.0000
  S   S624      1.0  0.72999  0.46561  0.99206  1.0000
  Fe  Fe308     1.0  0.99136  0.48304  0.19795  1.0000
  H   H1851     1.0  0.78443  0.47333  0.36235  1.0000
  H   H1852     1.0  0.94811  0.27587  0.39038  1.0000
  H   H1853     1.0  0.81774  0.46759  0.34239  1.0000
  H   H1854     1.0  0.68542  0.30123  0.42809  1.0000
  H   H1855     1.0  0.91567  0.37150  0.43879  1.0000
  C   C1862     1.0  0.89508  0.32831  0.36903  1.0000
  H   H1856     1.0  0.86504  0.42330  0.36564  1.0000
  C   C1863     1.0  0.70744  0.31746  0.43053  1.0000
  S   S625      1.0  0.71225  0.44561  0.17111  1.0000
  C   C1864     1.0  0.77691  0.31796  0.40738  1.0000
  C   C1865     1.0  0.78225  0.32509  0.38684  1.0000
  C   C1866     1.0  0.77553  0.31744  0.37334  1.0000
  C   C1867     1.0  0.76353  0.30254  0.38022  1.0000
  C   C1868     1.0  0.75874  0.29494  0.40071  1.0000
  C   C1869     1.0  0.76539  0.30265  0.41422  1.0000
  H   H1857     1.0  0.79111  0.33687  0.38138  1.0000
  H   H1858     1.0  0.77942  0.32332  0.35750  1.0000
  H   H1859     1.0  0.74963  0.28339  0.40620  1.0000
  H   H1860     1.0  0.76128  0.29698  0.43008  1.0000
  C   C1870     1.0  0.83534  0.39883  0.34322  1.0000
  C   C1871     1.0  0.81442  0.40041  0.35110  1.0000
  C   C1872     1.0  0.80057  0.41677  0.34344  1.0000
  C   C1873     1.0  0.78668  0.45823  0.37202  1.0000
  C   C1874     1.0  0.82840  0.42969  0.31921  1.0000
  C   C1875     1.0  0.84229  0.41318  0.32686  1.0000
  H   H1861     1.0  0.80888  0.38892  0.36301  1.0000
  H   H1862     1.0  0.94650  0.32441  0.35541  1.0000
  H   H1863     1.0  0.85845  0.41187  0.32052  1.0000
  C   C1876     1.0  0.90342  0.31704  0.42366  1.0000
  C   C1877     1.0  0.90864  0.33475  0.41146  1.0000
  C   C1878     1.0  0.92925  0.33634  0.40446  1.0000
  C   C1879     1.0  0.94469  0.32014  0.40942  1.0000
  C   C1880     1.0  0.93944  0.30234  0.42134  1.0000
  C   C1881     1.0  0.91886  0.30081  0.42844  1.0000
  H   H1864     1.0  0.89687  0.34733  0.40762  1.0000
  H   H1865     1.0  0.93324  0.35017  0.39527  1.0000
  H   H1866     1.0  0.95115  0.29000  0.42576  1.0000
  H   H1867     1.0  0.91489  0.28711  0.43801  1.0000
  C   C1882     1.0  0.93898  0.34615  0.44590  1.0000
  C   C1883     1.0  0.76054  0.46275  0.23136  1.0000
  H   H1868     1.0  0.81367  0.39659  0.00114  1.0000
  C   C1884     1.0  0.82885  0.41042  0.45763  1.0000
  H   H1869     1.0  0.72030  0.47730  0.27242  1.0000
  C   C1885     1.0  0.67499  0.24429  0.30300  1.0000
  Fe  Fe309     1.0  0.76208  0.44983  0.99299  1.0000
  C   C1886     1.0  0.67746  0.41078  0.08310  1.0000
  C   C1887     1.0  0.83688  0.43165  0.47650  1.0000
  H   H1870     1.0  0.71173  0.45019  0.26081  1.0000
  H   H1871     1.0  0.71468  0.43851  0.06831  1.0000
  C   C1888     1.0  0.72108  0.33010  0.42009  1.0000
  H   H1872     1.0  0.95566  0.27896  0.36355  1.0000
  Fe  Fe310     1.0  0.71006  0.46145  0.19614  1.0000
  C   C1889     1.0  0.80757  0.43168  0.32785  1.0000
  H   H1873     1.0  0.76831  0.47334  0.28641  1.0000
  S   S626      1.0  0.73380  0.45094  0.21556  1.0000
  Fe  Fe311     1.0  0.67811  0.44858  0.18028  1.0000
  N   N155      1.0  0.74606  0.45861  0.28331  1.0000
  H   H1874     1.0  0.72210  0.42475  0.01976  1.0000
  C   C1890     1.0  0.95021  0.29660  0.98714  1.0000
  H   H1875     1.0  0.75197  0.46676  0.15374  1.0000
  C   C1891     1.0  0.74339  0.46893  0.22252  1.0000
  C   C1892     1.0  0.84924  0.43099  0.36727  1.0000
  H   H1876     1.0  0.68393  0.41713  0.14912  1.0000
  C   C1893     1.0  0.82250  0.45588  0.35440  1.0000
  C   C1894     1.0  0.83786  0.39345  0.46968  1.0000
  C   C1895     1.0  0.90681  0.32709  0.46665  1.0000
  Fe  Fe312     1.0  0.70529  0.47675  0.15337  1.0000
  C   C1896     1.0  0.72437  0.44702  0.26839  1.0000
  H   H1877     1.0  0.77902  0.45985  0.38760  1.0000
  S   S627      1.0  0.97032  0.32289  0.40139  1.0000
  H   H1878     1.0  0.91450  0.34858  0.35073  1.0000
  C   C1897     1.0  0.69895  0.31707  0.39944  1.0000
  C   C1898     1.0  0.77142  0.46409  0.17423  1.0000
  C   C1899     1.0  0.70532  0.42833  0.06760  1.0000
  C   C1900     1.0  0.88181  0.35710  0.45739  1.0000
  C   C1901     1.0  0.82042  0.44247  0.00359  1.0000
  Fe  Fe313     1.0  0.68882  0.26761  0.39340  1.0000
  H   H1879     1.0  0.73977  0.41292  0.03605  1.0000
  C   C1902     1.0  0.81429  0.43399  0.38540  1.0000
  N   N156      1.0  0.80840  0.44943  0.37074  1.0000
  S   S628      1.0  0.73775  0.24502  0.35926  1.0000
  H   H1880     1.0  0.68668  0.43071  0.09689  1.0000
  C   C1903     1.0  0.72581  0.42443  0.03432  1.0000
  H   H1881     1.0  0.77924  0.44847  0.36693  1.0000
  H   H1882     1.0  0.95730  0.32618  0.98068  1.0000
  S   S629      1.0  0.98627  0.26389  0.41088  1.0000
  N   N157      1.0  0.93115  0.30140  0.37408  1.0000
  C   C1904     1.0  0.72099  0.48332  0.10201  1.0000
  C   C1905     1.0  0.83987  0.40986  0.98548  1.0000
  H   H1883     1.0  0.78444  0.41803  0.34988  1.0000
  S   S630      1.0  0.79009  0.45332  0.32064  1.0000
  H   H1884     1.0  0.87632  0.35341  0.44541  1.0000
  H   H1885     1.0  0.68112  0.39634  0.12611  1.0000
  H   H1886     1.0  0.94010  0.26902  0.99046  1.0000
  C   C1906     1.0  0.72937  0.46231  0.27489  1.0000
  C   C1907     1.0  0.73649  0.42790  0.27065  1.0000
  H   H1887     1.0  0.72916  0.43940  0.03355  1.0000
  H   H1888     1.0  0.77314  0.44790  0.17842  1.0000
  S   S631      1.0  0.97899  0.46165  0.22491  1.0000
  C   C1908     1.0  0.69733  0.40691  0.05026  1.0000
  C   C1909     1.0  0.99440  0.43480  0.16853  1.0000
  H   H1889     1.0  0.84484  0.46796  0.99926  1.0000
  H   H1890     1.0  0.77073  0.43682  0.29317  1.0000
  C   C1910     1.0  0.95019  0.28708  0.37627  1.0000
  H   H1891     1.0  0.83930  0.41238  0.39556  1.0000
  H   H1892     1.0  0.73033  0.33487  0.42787  1.0000
  C   C1911     1.0  0.68142  0.40212  0.06627  1.0000
  C   C1912     1.0  0.70246  0.47853  0.10187  1.0000
  C   C1913     1.0  0.82830  0.42951  0.46115  1.0000
  H   H1893     1.0  0.95869  0.31809  0.45438  1.0000
  C   C1914     1.0  0.82103  0.40935  0.99858  1.0000
  H   H1894     1.0  0.89430  0.31924  0.47396  1.0000
  C   C1915     1.0  0.75936  0.47467  0.16054  1.0000
  C   C1916     1.0  0.69617  0.31100  0.42019  1.0000
  C   C1917     1.0  0.75314  0.42414  0.27977  1.0000
  H   H1895     1.0  0.88101  0.33892  0.36721  1.0000
  C   C1918     1.0  0.93766  0.28493  0.98427  1.0000
  H   H1896     1.0  0.83388  0.44106  0.30700  1.0000
  C   C1919     1.0  0.68949  0.42395  0.08384  1.0000
  S   S632      1.0  0.69113  0.23883  0.38333  1.0000
  H   H1897     1.0  0.79644  0.42547  0.01768  1.0000
  H   H1898     1.0  0.73313  0.41615  0.26500  1.0000
  H   H1899     1.0  0.87164  0.35245  0.47192  1.0000
  C   C1920     1.0  0.75767  0.43975  0.28618  1.0000
  N   N158      1.0  0.71282  0.32897  0.38925  1.0000
  C   C1921     1.0  0.67090  0.40995  0.15225  1.0000
  C   C1922     1.0  0.78071  0.47456  0.18295  1.0000
  C   C1923     1.0  0.93191  0.32001  0.36244  1.0000
  H   H1900     1.0  0.76267  0.40932  0.28161  1.0000
  H   H1901     1.0  0.69005  0.31201  0.39157  1.0000
  H   H1902     1.0  0.73480  0.34497  0.39128  1.0000
  C   C1924     1.0  0.71548  0.33525  0.36752  1.0000
  C   C1925     1.0  0.91391  0.33375  0.35978  1.0000
  C   C1926     1.0  0.91871  0.35621  0.44686  1.0000
  H   H1903     1.0  0.88035  0.37364  0.45500  1.0000
  N   N159      1.0  0.70886  0.42006  0.05099  1.0000
  C   C1927     1.0  0.83478  0.42466  0.38395  1.0000
  H   H1904     1.0  0.73130  0.33772  0.36064  1.0000
  H   H1905     1.0  0.76787  0.44711  0.23349  1.0000
  H   H1906     1.0  0.71336  0.32331  0.36067  1.0000
  H   H1907     1.0  0.68619  0.25985  0.43941  1.0000
  S   S633      1.0  0.71885  0.25924  0.40279  1.0000
  S   S634      1.0  0.81216  0.47640  0.26552  1.0000
  C   C1928     1.0  0.66919  0.39829  0.13918  1.0000
  C   C1929     1.0  0.73110  0.48520  0.06599  1.0000
  Fe  Fe314     1.0  0.99420  0.29447  0.40097  1.0000
  H   H1908     1.0  0.98548  0.44803  0.17415  1.0000
  H   H1909     1.0  0.96227  0.29487  0.37685  1.0000
  Fe  Fe315     1.0  0.73288  0.47967  0.01649  1.0000
  S   S635      1.0  0.99617  0.24324  0.36246  1.0000
  Fe  Fe316     1.0  0.80359  0.47780  0.29807  1.0000
  H   H1910     1.0  0.91014  0.26673  0.98073  1.0000
  S   S636      1.0  0.67128  0.47857  0.16041  1.0000
  H   H1911     1.0  0.74571  0.47408  0.30596  1.0000
  C   C1930     1.0  0.92689  0.31664  0.46616  1.0000
  H   H1912     1.0  0.96225  0.28974  0.99542  1.0000
  H   H1913     1.0  0.82130  0.44270  0.45191  1.0000
  H   H1914     1.0  0.83794  0.37870  0.46732  1.0000
  N   N160      1.0  0.90296  0.34671  0.45732  1.0000
  C   C1931     1.0  0.97622  0.24001  0.98933  1.0000
  C   C1932     1.0  0.94305  0.32626  0.45567  1.0000
  N   N161      1.0  0.83899  0.44279  0.99085  1.0000
  C   C1933     1.0  0.76821  0.47668  0.23753  1.0000
  C   C1934     1.0  0.84872  0.42677  0.98181  1.0000
  S   S637      1.0  0.72669  0.48556  0.12428  1.0000
  C   C1935     1.0  0.75147  0.47479  0.28965  1.0000
  H   H1915     1.0  0.68372  0.47396  0.08361  1.0000
  H   H1916     1.0  0.68196  0.25444  0.29041  1.0000
  H   H1917     1.0  0.78995  0.46618  0.19368  1.0000
  C   C1936     1.0  0.94741  0.31703  0.97892  1.0000
  H   H1918     1.0  0.69135  0.47605  0.11565  1.0000
  H   H1919     1.0  0.67779  0.24417  0.47523  1.0000
  S   S638      1.0  0.70695  0.47867  0.04339  1.0000
  H   H1920     1.0  0.98762  0.41537  0.19718  1.0000
  C   C1937     1.0  0.71249  0.48070  0.06579  1.0000
  C   C1938     1.0  0.69818  0.47735  0.08375  1.0000
  C   C1939     1.0  0.99534  0.41628  0.18161  1.0000
  H   H1921     1.0  0.98818  0.46485  0.13790  1.0000
  C   C1940     1.0  0.68016  0.24158  0.32165  1.0000
  H   H1922     1.0  0.92989  0.30095  0.47315  1.0000
  C   C1941     1.0  0.99756  0.24597  0.00941  1.0000
  H   H1923     1.0  0.86454  0.45771  0.98016  1.0000
  H   H1924     1.0  0.84734  0.39741  0.97789  1.0000
  H   H1925     1.0  0.92682  0.47863  0.86908  1.0000
  C   C1942     1.0  0.79677  0.41666  0.87638  1.0000
  S   S639      1.0  0.84704  0.44920  0.54761  1.0000
  H   H1926     1.0  0.89486  0.28874  0.96893  1.0000
  C   C1943     1.0  0.85283  0.47422  0.80822  1.0000
  Fe  Fe317     1.0  0.85705  0.44639  0.51538  1.0000
  Fe  Fe318     1.0  0.68878  0.45458  0.67923  1.0000
  C   C1944     1.0  0.93800  0.46702  0.52443  1.0000
  Fe  Fe319     1.0  0.83065  0.47985  0.53633  1.0000
  Fe  Fe320     1.0  0.71991  0.46279  0.69955  1.0000
  H   H1927     1.0  0.75522  0.44135  0.58472  1.0000
  S   S640      1.0  0.73236  0.45294  0.72793  1.0000
  C   C1945     1.0  0.77561  0.44498  0.55579  1.0000
  C   C1946     1.0  0.79914  0.46242  0.58470  1.0000
  Fe  Fe321     1.0  0.73163  0.45925  0.65566  1.0000
  C   C1947     1.0  0.87361  0.47657  0.92791  1.0000
  C   C1948     1.0  0.78903  0.48381  0.63756  1.0000
  S   S641      1.0  0.71998  0.43841  0.68364  1.0000
  C   C1949     1.0  0.75005  0.47413  0.92560  1.0000
  H   H1928     1.0  0.72894  0.38407  0.71607  1.0000
  C   C1950     1.0  0.95241  0.45874  0.53645  1.0000
  C   C1951     1.0  0.84200  0.47030  0.60797  1.0000
  C   C1952     1.0  0.99883  0.26395  0.97540  1.0000
  S   S642      1.0  0.76338  0.46308  0.86926  1.0000
  H   H1929     1.0  0.92981  0.34140  0.96141  1.0000
  H   H1930     1.0  0.88230  0.31814  0.91229  1.0000
  H   H1931     1.0  0.99380  0.46821  0.69143  1.0000
  C   C1953     1.0  0.84329  0.42578  0.82446  1.0000
  H   H1932     1.0  0.89694  0.25662  0.88837  1.0000
  S   S643      1.0  0.83888  0.47629  0.50414  1.0000
  C   C1954     1.0  0.99271  0.48359  0.69281  1.0000
  H   H1933     1.0  0.86377  0.40593  0.84238  1.0000
  H   H1934     1.0  0.76218  0.44833  0.91142  1.0000
  H   H1935     1.0  0.79725  0.46432  0.52286  1.0000
  Fe  Fe322     1.0  0.85352  0.40210  0.90793  1.0000
  S   S644      1.0  0.86809  0.39959  0.93359  1.0000
  S   S645      1.0  0.82409  0.39157  0.91388  1.0000
  Fe  Fe323     1.0  0.88571  0.42251  0.87789  1.0000
  S   S646      1.0  0.90316  0.42164  0.90105  1.0000
  S   S647      1.0  0.89788  0.43609  0.84618  1.0000
  Fe  Fe324     1.0  0.89726  0.39016  0.91236  1.0000
  S   S648      1.0  0.92149  0.36399  0.92166  1.0000
  Fe  Fe325     1.0  0.87231  0.43106  0.91969  1.0000
  S   S649      1.0  0.86076  0.45634  0.93664  1.0000
  S   S650      1.0  0.88226  0.39033  0.88750  1.0000
  S   S651      1.0  0.85530  0.43423  0.89567  1.0000
  H   H1936     1.0  0.79025  0.44493  0.51420  1.0000
  C   C1955     1.0  0.91301  0.30324  0.91469  1.0000
  C   C1956     1.0  0.89696  0.31984  0.91393  1.0000
  C   C1957     1.0  0.89962  0.33862  0.91558  1.0000
  C   C1958     1.0  0.91845  0.34099  0.91781  1.0000
  C   C1959     1.0  0.93463  0.32444  0.91829  1.0000
  C   C1960     1.0  0.93189  0.30558  0.91685  1.0000
  C   C1961     1.0  0.83249  0.41022  0.85878  1.0000
  H   H1937     1.0  0.88695  0.35117  0.91552  1.0000
  H   H1938     1.0  0.94924  0.32619  0.91999  1.0000
  H   H1939     1.0  0.94443  0.29295  0.91721  1.0000
  N   N162      1.0  0.80701  0.48397  0.62114  1.0000
  H   H1940     1.0  0.79702  0.42637  0.88669  1.0000
  H   H1941     1.0  0.79907  0.40078  0.88430  1.0000
  C   C1962     1.0  0.69810  0.42229  0.73759  1.0000
  S   S652      1.0  0.96177  0.25017  0.92964  1.0000
  C   C1963     1.0  0.75485  0.47515  0.88994  1.0000
  C   C1964     1.0  0.78779  0.47946  0.57483  1.0000
  H   H1942     1.0  0.85525  0.42846  0.81132  1.0000
  S   S653      1.0  0.90871  0.27974  0.91348  1.0000
  S   S654      1.0  0.70028  0.47350  0.64983  1.0000
  H   H1943     1.0  0.94623  0.47251  0.59107  1.0000
  C   C1965     1.0  0.79901  0.42151  0.95954  1.0000
  C   C1966     1.0  0.78197  0.41792  0.58328  1.0000
  H   H1944     1.0  0.95271  0.44369  0.54521  1.0000
  C   C1967     1.0  0.77011  0.45924  0.61245  1.0000
  H   H1945     1.0  0.79250  0.44046  0.84131  1.0000
  C   C1968     1.0  0.82321  0.43567  0.82426  1.0000
  H   H1946     1.0  0.90208  0.45931  0.91494  1.0000
  C   C1969     1.0  0.69688  0.39441  0.71594  1.0000
  H   H1947     1.0  0.77753  0.41061  0.59871  1.0000
  C   C1970     1.0  0.81148  0.41556  0.94205  1.0000
  H   H1948     1.0  0.82347  0.42354  0.93360  1.0000
  H   H1949     1.0  0.82498  0.45901  0.63684  1.0000
  C   C1971     1.0  0.98433  0.25393  0.97332  1.0000
  C   C1972     1.0  0.88642  0.45465  0.81119  1.0000
  C   C1973     1.0  0.88009  0.45040  0.83196  1.0000
  C   C1974     1.0  0.86023  0.45848  0.84093  1.0000
  H   H1950     1.0  0.81047  0.39718  0.57741  1.0000
  H   H1951     1.0  0.75495  0.47223  0.78027  1.0000
  H   H1952     1.0  0.90185  0.44865  0.80420  1.0000
  H   H1953     1.0  0.85533  0.45563  0.85692  1.0000
  H   H1954     1.0  0.68819  0.38807  0.64599  1.0000
  C   C1975     1.0  0.84628  0.39557  0.48514  1.0000
  C   C1976     1.0  0.84806  0.41314  0.84188  1.0000
  H   H1955     1.0  0.92348  0.45040  0.58954  1.0000
  N   N163      1.0  0.81274  0.41965  0.85834  1.0000
  C   C1977     1.0  0.79956  0.44788  0.52358  1.0000
  H   H1956     1.0  0.75128  0.44816  0.76110  1.0000
  C   C1978     1.0  0.96557  0.47041  0.53799  1.0000
  C   C1979     1.0  0.80804  0.43251  0.84149  1.0000
  C   C1980     1.0  0.73514  0.47064  0.74086  1.0000
  H   H1957     1.0  0.82053  0.41465  0.54257  1.0000
  C   C1981     1.0  0.82451  0.47021  0.62328  1.0000
  H   H1958     1.0  0.91975  0.48406  0.49365  1.0000
  H   H1959     1.0  0.74328  0.48214  0.60996  1.0000
  S   S655      1.0  0.99229  0.47297  0.59685  1.0000
  H   H1960     1.0  0.97924  0.25725  0.95942  1.0000
  H   H1961     1.0  0.79078  0.37606  0.94189  1.0000
  C   C1982     1.0  0.90744  0.47242  0.56889  1.0000
  C   C1983     1.0  0.71519  0.39456  0.72092  1.0000
  H   H1962     1.0  0.78133  0.42038  0.87283  1.0000
  S   S656      1.0  0.77621  0.47324  0.96974  1.0000
  H   H1963     1.0  0.80154  0.43401  0.96451  1.0000
  C   C1984     1.0  0.84152  0.48465  0.59049  1.0000
  C   C1985     1.0  0.93195  0.32559  0.96822  1.0000
  N   N164      1.0  0.81372  0.48493  0.90145  1.0000
  H   H1964     1.0  0.83631  0.40039  0.87226  1.0000
  H   H1965     1.0  0.81955  0.44609  0.81096  1.0000
  S   S657      1.0  0.88572  0.45803  0.51176  1.0000
  C   C1986     1.0  0.88274  0.23840  0.91509  1.0000
  C   C1987     1.0  0.67474  0.39584  0.65481  1.0000
  C   C1988     1.0  0.78118  0.39420  0.96466  1.0000
  S   S658      1.0  0.85633  0.41655  0.50841  1.0000
  C   C1989     1.0  0.79311  0.38873  0.94678  1.0000
  H   H1966     1.0  0.99130  0.41828  0.65315  1.0000
  C   C1990     1.0  0.80843  0.39924  0.93559  1.0000
  C   C1991     1.0  0.92189  0.46558  0.58111  1.0000
  C   C1992     1.0  0.67945  0.40836  0.72196  1.0000
  C   C1993     1.0  0.74727  0.47756  0.76787  1.0000
  C   C1994     1.0  0.78402  0.41066  0.97100  1.0000
  H   H1967     1.0  0.76607  0.45878  0.54998  1.0000
  H   H1968     1.0  0.73000  0.40907  0.73562  1.0000
  C   C1995     1.0  0.74514  0.46395  0.75699  1.0000
  H   H1969     1.0  0.88528  0.24124  0.86571  1.0000
  C   C1996     1.0  0.75627  0.46431  0.90919  1.0000
  N   N165      1.0  0.79378  0.43763  0.54426  1.0000
  H   H1970     1.0  0.90089  0.47879  0.82987  1.0000
  H   H1971     1.0  0.84072  0.47202  0.97427  1.0000
  C   C1997     1.0  0.80047  0.41051  0.57140  1.0000
  H   H1972     1.0  0.83654  0.44642  0.47894  1.0000
  C   C1998     1.0  0.76937  0.43518  0.57541  1.0000
  S   S659      1.0  0.89305  0.45565  0.56646  1.0000
  C   C1999     1.0  0.91958  0.31349  0.96582  1.0000
  H   H1973     1.0  0.81589  0.44264  0.51710  1.0000
  N   N166      1.0  0.68035  0.42236  0.73224  1.0000
  H   H1974     1.0  0.90782  0.32019  0.95720  1.0000
  C   C2000     1.0  0.88781  0.24501  0.89443  1.0000
  S   S660      1.0  0.75934  0.44509  0.63509  1.0000
  C   C2001     1.0  0.91526  0.47531  0.86246  1.0000
  H   H1975     1.0  0.85589  0.45933  0.60953  1.0000
  H   H1976     1.0  0.81911  0.46177  0.92658  1.0000
  Fe  Fe326     1.0  0.93138  0.25211  0.92255  1.0000
  H   H1977     1.0  0.69880  0.43324  0.74594  1.0000
  H   H1978     1.0  0.92340  0.46440  0.85250  1.0000
  H   H1979     1.0  0.92723  0.45813  0.52402  1.0000
  C   C2002     1.0  0.80831  0.46737  0.91624  1.0000
  H   H1980     1.0  0.75108  0.46569  0.94044  1.0000
  H   H1981     1.0  0.69097  0.41570  0.66124  1.0000
  H   H1982     1.0  0.85300  0.38237  0.49459  1.0000
  Fe  Fe327     1.0  0.87384  0.46400  0.54291  1.0000
  C   C2003     1.0  0.71580  0.40849  0.73193  1.0000
  C   C2004     1.0  0.67635  0.41147  0.66342  1.0000
  C   C2005     1.0  0.93479  0.47808  0.58201  1.0000
  C   C2006     1.0  0.80612  0.42053  0.55174  1.0000
  H   H1983     1.0  0.87775  0.46953  0.78327  1.0000
  H   H1984     1.0  0.90410  0.46794  0.87456  1.0000
  H   H1985     1.0  0.81467  0.45692  0.57801  1.0000
  H   H1986     1.0  0.79911  0.43892  0.61073  1.0000
  C   C2007     1.0  0.87283  0.46653  0.79936  1.0000
  H   H1987     1.0  0.85500  0.48481  0.57855  1.0000
  C   C2008     1.0  0.84659  0.47034  0.82905  1.0000
  S   S661      1.0  0.98215  0.46018  0.65491  1.0000
  C   C2009     1.0  0.89389  0.47402  0.91745  1.0000
  C   C2010     1.0  0.79031  0.45231  0.60338  1.0000
  H   H1988     1.0  0.79281  0.47104  0.92555  1.0000
  H   H1989     1.0  0.80844  0.45516  0.90856  1.0000
  H   H1990     1.0  0.69621  0.38378  0.70723  1.0000
  H   H1991     1.0  0.83121  0.47614  0.83602  1.0000
  H   H1992     1.0  0.78715  0.46818  0.64471  1.0000
  H   H1993     1.0  0.98733  0.24636  0.83416  1.0000
  H   H1994     1.0  0.76965  0.38574  0.97351  1.0000
  C   C2011     1.0  0.84586  0.41466  0.48859  1.0000
  H   H1995     1.0  0.97621  0.46452  0.54795  1.0000
  H   H1996     1.0  0.84540  0.47663  0.90213  1.0000
  S   S662      1.0  0.77995  0.47841  0.80987  1.0000
  Fe  Fe328     1.0  0.98876  0.48183  0.62627  1.0000
  S   S663      1.0  0.73362  0.48254  0.67183  1.0000
  H   H1997     1.0  0.91796  0.27659  0.95448  1.0000
  N   N167      1.0  0.92265  0.29341  0.97364  1.0000
  S   S664      1.0  0.68754  0.47714  0.69780  1.0000
  H   H1998     1.0  0.88794  0.24514  0.92479  1.0000
  H   H1999     1.0  0.86327  0.42711  0.97144  1.0000
  Fe  Fe329     1.0  0.76839  0.48560  0.84073  1.0000
  C   C2012     1.0  0.91079  0.28073  0.96931  1.0000
  C   C2013     1.0  0.75888  0.47666  0.60299  1.0000
  C   C2014     1.0  0.99939  0.23941  0.84229  1.0000
  H   H2000     1.0  0.97885  0.23639  0.87110  1.0000
  C   C2015     1.0  0.88118  0.23649  0.88177  1.0000
  H   H2001     1.0  0.89718  0.52842  0.24740  1.0000
  H   H2002     1.0  0.89476  0.68457  0.36066  1.0000
  Fe  Fe330     1.0  0.84212  0.60248  0.40685  1.0000
  S   S665      1.0  0.87267  0.59052  0.38911  1.0000
  S   S666      1.0  0.82911  0.58815  0.43832  1.0000
  Fe  Fe331     1.0  0.83108  0.63505  0.37228  1.0000
  S   S667      1.0  0.86067  0.62510  0.35177  1.0000
  S   S668      1.0  0.81073  0.66253  0.35845  1.0000
  Fe  Fe332     1.0  0.85561  0.59377  0.36489  1.0000
  S   S669      1.0  0.86402  0.56752  0.34869  1.0000
  Fe  Fe333     1.0  0.87498  0.62291  0.37772  1.0000
  S   S670      1.0  0.90388  0.63574  0.36954  1.0000
  S   S671      1.0  0.82476  0.60376  0.38333  1.0000
  S   S672      1.0  0.84568  0.63481  0.39744  1.0000
  C   C2016     1.0  0.87692  0.54400  0.45057  1.0000
  H   H2003     1.0  0.98196  0.54050  0.10905  1.0000
  C   C2017     1.0  0.99072  0.55879  0.18102  1.0000
  N   N168      1.0  0.97386  0.62709  0.42403  1.0000
  Fe  Fe334     1.0  0.80815  0.52120  0.29133  1.0000
  S   S673      1.0  0.78146  0.50689  0.29421  1.0000
  S   S674      1.0  0.80254  0.54857  0.30528  1.0000
  C   C2018     1.0  0.84712  0.53677  0.47573  1.0000
  H   H2004     1.0  0.70739  0.71279  0.36300  1.0000
  Fe  Fe335     1.0  0.79158  0.50638  0.26150  1.0000
  S   S675      1.0  0.76808  0.51502  0.24193  1.0000
  H   H2005     1.0  0.86957  0.50164  0.43985  1.0000
  S   S676      1.0  0.81626  0.52369  0.25800  1.0000
  C   C2019     1.0  0.97432  0.57483  0.15277  1.0000
  C   C2020     1.0  0.91352  0.54103  0.27170  1.0000
  H   H2006     1.0  0.87578  0.48964  0.28131  1.0000
  C   C2021     1.0  0.81533  0.55048  0.42316  1.0000
  H   H2007     1.0  0.96973  0.56056  0.15298  1.0000
  H   H2008     1.0  0.94762  0.63491  0.46993  1.0000
  C   C2022     1.0  0.88618  0.53823  0.25653  1.0000
  H   H2009     1.0  0.87929  0.54073  0.38250  1.0000
  N   N169      1.0  0.83660  0.54002  0.41888  1.0000
  H   H2010     1.0  0.97409  0.63697  0.39312  1.0000
  C   C2023     1.0  0.72129  0.70237  0.35839  1.0000
  H   H2011     1.0  0.91844  0.55374  0.27488  1.0000
  H   H2012     1.0  0.90157  0.65315  0.43405  1.0000
  C   C2024     1.0  0.84482  0.68516  0.37958  1.0000
  C   C2025     1.0  0.87896  0.69157  0.38934  1.0000
  H   H2013     1.0  0.98096  0.61010  0.40102  1.0000
  S   S677      1.0  0.82970  0.49199  0.29804  1.0000
  C   C2026     1.0  0.86039  0.69319  0.40305  1.0000
  C   C2027     1.0  0.87682  0.51987  0.41062  1.0000
  C   C2028     1.0  0.95781  0.62903  0.43992  1.0000
  H   H2014     1.0  0.90818  0.49189  0.28941  1.0000
  H   H2015     1.0  0.72077  0.49407  0.21310  1.0000
  C   C2029     1.0  0.73216  0.70617  0.33869  1.0000
  C   C2030     1.0  0.85773  0.56328  0.27963  1.0000
  H   H2016     1.0  0.84342  0.55809  0.38996  1.0000
  H   H2017     1.0  0.94256  0.62856  0.43873  1.0000
  S   S678      1.0  0.88246  0.50834  0.47647  1.0000
  C   C2031     1.0  0.86384  0.51379  0.42864  1.0000
  H   H2018     1.0  0.92405  0.53669  0.25794  1.0000
  S   S679      1.0  0.93403  0.67495  0.42683  1.0000
  Fe  Fe336     1.0  0.98772  0.71622  0.42095  1.0000
  C   C2032     1.0  0.78828  0.53622  0.97801  1.0000
  C   C2033     1.0  0.74176  0.50308  0.22587  1.0000
  C   C2034     1.0  0.88957  0.48957  0.26986  1.0000
  N   N170      1.0  0.86325  0.68301  0.36647  1.0000
  S   S680      1.0  0.98497  0.68436  0.43532  1.0000
  C   C2035     1.0  0.86564  0.54194  0.25530  1.0000
  H   H2019     1.0  0.73442  0.51872  0.22371  1.0000
  H   H2020     1.0  0.81364  0.56634  0.41514  1.0000
  H   H2021     1.0  0.75876  0.69577  0.31733  1.0000
  C   C2036     1.0  0.74548  0.67262  0.36560  1.0000
  C   C2037     1.0  0.87825  0.55860  0.28108  1.0000
  C   C2038     1.0  0.84907  0.54571  0.40096  1.0000
  H   H2022     1.0  0.99359  0.68801  0.01746  1.0000
  H   H2023     1.0  0.82860  0.69124  0.40866  1.0000
  H   H2024     1.0  0.85943  0.69672  0.41749  1.0000
  N   N171      1.0  0.89222  0.54639  0.26943  1.0000
  C   C2039     1.0  0.78243  0.69622  0.36513  1.0000
  H   H2025     1.0  0.97025  0.51110  0.13266  1.0000
  N   N172      1.0  0.77764  0.49506  0.17850  1.0000
  C   C2040     1.0  0.85134  0.55458  0.26695  1.0000
  C   C2041     1.0  0.99294  0.62834  0.42543  1.0000
  S   S681      1.0  0.70506  0.49241  0.17789  1.0000
  C   C2042     1.0  0.84604  0.56162  0.33814  1.0000
  C   C2043     1.0  0.85065  0.54362  0.33092  1.0000
  C   C2044     1.0  0.83708  0.53898  0.32149  1.0000
  C   C2045     1.0  0.81893  0.55249  0.31902  1.0000
  C   C2046     1.0  0.81418  0.57028  0.32659  1.0000
  C   C2047     1.0  0.82764  0.57482  0.33618  1.0000
  H   H2026     1.0  0.86488  0.53335  0.33239  1.0000
  H   H2027     1.0  0.84093  0.52529  0.31562  1.0000
  H   H2028     1.0  0.80018  0.58080  0.32468  1.0000
  H   H2029     1.0  0.82399  0.58875  0.34162  1.0000
  C   C2048     1.0  0.91214  0.64599  0.38602  1.0000
  C   C2049     1.0  0.90237  0.64498  0.40611  1.0000
  C   C2050     1.0  0.92858  0.65610  0.37844  1.0000
  H   H2030     1.0  0.88961  0.63731  0.41207  1.0000
  H   H2031     1.0  0.93611  0.65706  0.36287  1.0000
  H   H2032     1.0  0.75868  0.72205  0.36951  1.0000
  H   H2033     1.0  0.72674  0.71943  0.32836  1.0000
  C   C2051     1.0  0.98231  0.51707  0.13515  1.0000
  C   C2052     1.0  0.84445  0.56692  0.44993  1.0000
  C   C2053     1.0  0.86525  0.56168  0.44186  1.0000
  C   C2054     1.0  0.78739  0.50598  0.18769  1.0000
  C   C2055     1.0  0.88917  0.48835  0.25042  1.0000
  C   C2056     1.0  0.75876  0.49689  0.23489  1.0000
  H   H2034     1.0  0.87242  0.57128  0.42899  1.0000
  H   H2035     1.0  0.81943  0.55869  0.47354  1.0000
  C   C2057     1.0  0.78494  0.66973  0.39405  1.0000
  C   C2058     1.0  0.79170  0.67713  0.37378  1.0000
  H   H2036     1.0  0.79205  0.65503  0.40087  1.0000
  S   S682      1.0  0.98714  0.67722  0.38971  1.0000
  H   H2037     1.0  0.89296  0.53994  0.44409  1.0000
  H   H2038     1.0  0.86088  0.53475  0.24561  1.0000
  C   C2059     1.0  0.86939  0.53585  0.39661  1.0000
  S   S683      1.0  0.98604  0.50848  0.21385  1.0000
  C   C2060     1.0  0.75002  0.69288  0.33250  1.0000
  C   C2061     1.0  0.76592  0.70756  0.37645  1.0000
  H   H2039     1.0  0.76355  0.52178  0.16137  1.0000
  C   C2062     1.0  0.76844  0.68113  0.40540  1.0000
  H   H2040     1.0  0.70801  0.69618  0.39717  1.0000
  C   C2063     1.0  0.97998  0.63383  0.45926  1.0000
  Fe  Fe337     1.0  0.83619  0.49354  0.26477  1.0000
  H   H2041     1.0  0.77604  0.51840  0.19384  1.0000
  C   C2064     1.0  0.90789  0.49090  0.27440  1.0000
  C   C2065     1.0  0.71647  0.68198  0.39217  1.0000
  H   H2042     1.0  0.95476  0.62266  0.40622  1.0000
  H   H2043     1.0  0.70551  0.67227  0.39324  1.0000
  C   C2066     1.0  0.75665  0.49553  0.15577  1.0000
  C   C2067     1.0  0.86498  0.67763  0.34714  1.0000
  C   C2068     1.0  0.98140  0.71956  0.01322  1.0000
  H   H2044     1.0  0.89253  0.69377  0.39307  1.0000
  H   H2045     1.0  0.85140  0.67194  0.34667  1.0000
  H   H2046     1.0  0.81010  0.55115  0.43931  1.0000
  H   H2047     1.0  0.83137  0.68271  0.37592  1.0000
  H   H2048     1.0  0.77083  0.66569  0.34150  1.0000
  H   H2049     1.0  0.91534  0.52799  0.28413  1.0000
  H   H2050     1.0  0.98229  0.63690  0.47284  1.0000
  H   H2051     1.0  0.80537  0.54281  0.41863  1.0000
  N   N173      1.0  0.99173  0.57073  0.16249  1.0000
  C   C2069     1.0  0.84363  0.52406  0.43252  1.0000
  H   H2052     1.0  0.83527  0.55741  0.26644  1.0000
  S   S684      1.0  0.74408  0.50628  0.99534  1.0000
  H   H2053     1.0  0.83380  0.51957  0.44678  1.0000
  H   H2054     1.0  0.84669  0.57301  0.28885  1.0000
  H   H2055     1.0  0.97138  0.71880  0.00385  1.0000
  C   C2070     1.0  0.86783  0.53137  0.46732  1.0000
  H   H2056     1.0  0.88284  0.56463  0.29178  1.0000
  S   S685      1.0  0.73683  0.71294  0.41073  1.0000
  C   C2071     1.0  0.75670  0.67592  0.34598  1.0000
  C   C2072     1.0  0.88013  0.68640  0.37102  1.0000
  C   C2073     1.0  0.92558  0.66415  0.41086  1.0000
  C   C2074     1.0  0.83548  0.55460  0.46709  1.0000
  H   H2057     1.0  0.94759  0.67334  0.38459  1.0000
  Fe  Fe338     1.0  0.98932  0.70966  0.37957  1.0000
  C   C2075     1.0  0.96058  0.63260  0.45768  1.0000
  N   N174      1.0  0.72817  0.68593  0.37164  1.0000
  S   S686      1.0  0.98169  0.48837  0.16888  1.0000
  C   C2076     1.0  0.75868  0.69994  0.39656  1.0000
  C   C2077     1.0  0.90914  0.65401  0.41851  1.0000
  C   C2078     1.0  0.97076  0.62400  0.40521  1.0000
  C   C2079     1.0  0.98894  0.53367  0.12181  1.0000
  C   C2080     1.0  0.93517  0.66528  0.39075  1.0000
  H   H2058     1.0  0.96124  0.58478  0.16055  1.0000
  H   H2059     1.0  0.75108  0.65967  0.37612  1.0000
  H   H2060     1.0  0.79991  0.51223  0.17649  1.0000
  H   H2061     1.0  0.86664  0.69089  0.33499  1.0000
  H   H2062     1.0  0.77359  0.53331  0.98665  1.0000
  H   H2063     1.0  0.76298  0.67519  0.42100  1.0000
  C   C2081     1.0  0.84315  0.69007  0.39813  1.0000
  H   H2064     1.0  0.79386  0.49620  0.20043  1.0000
  Fe  Fe339     1.0  0.96306  0.68768  0.41514  1.0000
  H   H2065     1.0  0.72678  0.67463  0.40276  1.0000
  H   H2066     1.0  0.87846  0.66546  0.34430  1.0000
  S   S687      1.0  0.96344  0.72046  0.40335  1.0000
  H   H2067     1.0  0.93897  0.48999  0.22855  1.0000
  H   H2068     1.0  0.78770  0.70207  0.34948  1.0000
  H   H2069     1.0  0.89264  0.51233  0.40761  1.0000
  S   S688      1.0  0.80417  0.49761  0.99431  1.0000
  H   H2070     1.0  0.97817  0.58211  0.13680  1.0000
  H   H2071     1.0  0.74538  0.48981  0.28143  1.0000
  S   S689      1.0  0.99533  0.72550  0.34773  1.0000
  C   C2082     1.0  0.99085  0.50854  0.15195  1.0000
  C   C2083     1.0  0.73407  0.48916  0.21974  1.0000
  Fe  Fe340     1.0  0.67175  0.49111  0.18676  1.0000
  C   C2084     1.0  0.90712  0.48821  0.23568  1.0000
  H   H2072     1.0  0.66670  0.57138  0.17121  1.0000
  H   H2073     1.0  0.67474  0.57354  0.19309  1.0000
  C   C2085     1.0  0.66871  0.72079  0.98254  1.0000
  H   H2074     1.0  0.74724  0.50381  0.14512  1.0000
  C   C2086     1.0  0.92579  0.49104  0.25951  1.0000
  C   C2087     1.0  0.76589  0.50556  0.16501  1.0000
  S   S690      1.0  0.94821  0.49442  0.26483  1.0000
  H   H2075     1.0  0.97739  0.55213  0.18824  1.0000
  H   H2076     1.0  0.66716  0.55088  0.19181  1.0000
  H   H2077     1.0  0.68282  0.70978  0.98221  1.0000
  C   C2088     1.0  0.92535  0.48963  0.24018  1.0000
  C   C2089     1.0  0.99413  0.70218  0.02087  1.0000
  H   H2078     1.0  0.74961  0.49037  0.08410  1.0000
  C   C2090     1.0  0.99632  0.63156  0.44310  1.0000
  S   S691      1.0  0.86645  0.48803  0.24357  1.0000
  H   H2079     1.0  0.88421  0.66768  0.98116  1.0000
  C   C2091     1.0  0.80585  0.52156  0.97967  1.0000
  Fe  Fe341     1.0  0.77532  0.48734  0.99544  1.0000
  H   H2080     1.0  0.74217  0.48788  0.05221  1.0000
  H   H2081     1.0  0.90688  0.48730  0.22062  1.0000
  C   C2092     1.0  0.73528  0.48662  0.08406  1.0000
  Fe  Fe342     1.0  0.97624  0.48630  0.24136  1.0000
  S   S692      1.0  0.83602  0.48799  0.79274  1.0000
  H   H2082     1.0  0.76834  0.57661  0.77593  1.0000
  C   C2093     1.0  0.90384  0.49048  0.91082  1.0000
  C   C2094     1.0  0.76770  0.48668  0.58413  1.0000
  C   C2095     1.0  0.94958  0.49795  0.51569  1.0000
  C   C2096     1.0  0.77960  0.55651  0.91603  1.0000
  S   S693      1.0  0.96901  0.51188  0.61865  1.0000
  S   S694      1.0  0.95077  0.51287  0.56923  1.0000
  C   C2097     1.0  0.70099  0.68956  0.94020  1.0000
  Fe  Fe343     1.0  0.76026  0.50794  0.79994  1.0000
  S   S695      1.0  0.74082  0.51558  0.77650  1.0000
  C   C2098     1.0  0.77674  0.52675  0.94027  1.0000
  S   S696      1.0  0.79344  0.50148  0.83893  1.0000
  C   C2099     1.0  0.88247  0.52786  0.83180  1.0000
  Fe  Fe344     1.0  0.77261  0.52898  0.82739  1.0000
  S   S697      1.0  0.76892  0.55527  0.84211  1.0000
  S   S698      1.0  0.74647  0.51356  0.83120  1.0000
  H   H2083     1.0  0.67821  0.70233  0.85032  1.0000
  H   H2084     1.0  0.73762  0.55079  0.92754  1.0000
  C   C2100     1.0  0.73920  0.49798  0.76282  1.0000
  H   H2085     1.0  0.71477  0.55049  0.79080  1.0000
  S   S699      1.0  0.73463  0.50767  0.94279  1.0000
  Fe  Fe345     1.0  0.94508  0.69052  0.92687  1.0000
  S   S700      1.0  0.93033  0.71851  0.90870  1.0000
  S   S701      1.0  0.93957  0.65898  0.93095  1.0000
  H   H2086     1.0  0.90616  0.51214  0.87100  1.0000
  H   H2087     1.0  0.75885  0.49996  0.57666  1.0000
  S   S702      1.0  0.93947  0.70379  0.95425  1.0000
  Fe  Fe346     1.0  0.83969  0.58111  0.91365  1.0000
  S   S703      1.0  0.86950  0.58196  0.92070  1.0000
  S   S704      1.0  0.80968  0.58072  0.93560  1.0000
  Fe  Fe347     1.0  0.85760  0.58125  0.86947  1.0000
  S   S705      1.0  0.88879  0.58237  0.87269  1.0000
  S   S706      1.0  0.85373  0.57608  0.84042  1.0000
  Fe  Fe348     1.0  0.88264  0.55931  0.90049  1.0000
  S   S707      1.0  0.90538  0.53039  0.90434  1.0000
  Fe  Fe349     1.0  0.87285  0.60506  0.89226  1.0000
  S   S708      1.0  0.88220  0.63541  0.88627  1.0000
  S   S709      1.0  0.85261  0.55672  0.89581  1.0000
  S   S710      1.0  0.84189  0.60576  0.88665  1.0000
  C   C2101     1.0  0.69242  0.70930  0.93273  1.0000
  C   C2102     1.0  0.93605  0.61996  0.86970  1.0000
  H   H2088     1.0  0.76768  0.51797  0.95248  1.0000
  H   H2089     1.0  0.87684  0.72904  0.92700  1.0000
  H   H2090     1.0  0.88072  0.50885  0.81242  1.0000
  H   H2091     1.0  0.91682  0.51971  0.55051  1.0000
  H   H2092     1.0  0.82793  0.53037  0.86111  1.0000
  H   H2093     1.0  0.97861  0.66639  0.86309  1.0000
  H   H2094     1.0  0.74689  0.55721  0.76732  1.0000
  H   H2095     1.0  0.74608  0.50429  0.87249  1.0000
  Fe  Fe350     1.0  0.74420  0.49028  0.97113  1.0000
  C   C2103     1.0  0.92231  0.65321  0.91947  1.0000
  C   C2104     1.0  0.91740  0.63400  0.92518  1.0000
  C   C2105     1.0  0.90453  0.62849  0.91560  1.0000
  C   C2106     1.0  0.89668  0.64214  0.90012  1.0000
  C   C2107     1.0  0.90127  0.66149  0.89471  1.0000
  C   C2108     1.0  0.91398  0.66706  0.90439  1.0000
  H   H2096     1.0  0.92382  0.62321  0.93685  1.0000
  H   H2097     1.0  0.90110  0.61355  0.91985  1.0000
  H   H2098     1.0  0.89520  0.67211  0.88274  1.0000
  H   H2099     1.0  0.91761  0.68191  0.89994  1.0000
  H   H2100     1.0  0.72280  0.57111  0.84846  1.0000
  C   C2109     1.0  0.82396  0.51764  0.87245  1.0000
  C   C2110     1.0  0.74214  0.49476  0.92279  1.0000
  C   C2111     1.0  0.86452  0.68494  0.92624  1.0000
  C   C2112     1.0  0.68837  0.67628  0.95206  1.0000
  C   C2113     1.0  0.82626  0.54416  0.95572  1.0000
  C   C2114     1.0  0.80861  0.55854  0.95356  1.0000
  H   H2101     1.0  0.79260  0.50907  0.60229  1.0000
  H   H2102     1.0  0.78328  0.49619  0.89724  1.0000
  C   C2115     1.0  0.78968  0.55475  0.96509  1.0000
  H   H2103     1.0  0.74367  0.56947  0.93810  1.0000
  C   C2116     1.0  0.98210  0.49942  0.68080  1.0000
  C   C2117     1.0  0.66898  0.73438  0.84814  1.0000
  C   C2118     1.0  0.71817  0.56642  0.81224  1.0000
  H   H2104     1.0  0.91967  0.48844  0.90312  1.0000
  Fe  Fe351     1.0  0.97483  0.50408  0.58822  1.0000
  C   C2119     1.0  0.86329  0.49555  0.93163  1.0000
  H   H2105     1.0  0.98742  0.69823  0.87466  1.0000
  H   H2106     1.0  0.90884  0.67276  0.96680  1.0000
  H   H2107     1.0  0.84769  0.49754  0.93995  1.0000
  H   H2108     1.0  0.99900  0.58488  0.63195  1.0000
  C   C2120     1.0  0.96420  0.49013  0.52754  1.0000
  C   C2121     1.0  0.79893  0.49832  0.89289  1.0000
  H   H2109     1.0  0.86520  0.52655  0.92780  1.0000
  C   C2122     1.0  0.82490  0.52574  0.96888  1.0000
  C   C2123     1.0  0.72917  0.50467  0.74670  1.0000
  C   C2124     1.0  0.89335  0.50958  0.91412  1.0000
  C   C2125     1.0  0.79238  0.56136  0.84143  1.0000
  C   C2126     1.0  0.79404  0.57147  0.85575  1.0000
  C   C2127     1.0  0.81287  0.57601  0.85560  1.0000
  C   C2128     1.0  0.82993  0.57089  0.84081  1.0000
  C   C2129     1.0  0.82815  0.56104  0.82633  1.0000
  C   C2130     1.0  0.80951  0.55595  0.82686  1.0000
  H   H2110     1.0  0.78078  0.57577  0.86698  1.0000
  H   H2111     1.0  0.81411  0.58391  0.86660  1.0000
  H   H2112     1.0  0.84120  0.55725  0.81470  1.0000
  H   H2113     1.0  0.80833  0.54816  0.81575  1.0000
  Fe  Fe352     1.0  0.70109  0.49505  0.66864  1.0000
  H   H2114     1.0  0.89359  0.70692  0.95351  1.0000
  H   H2115     1.0  0.90601  0.49886  0.51235  1.0000
  C   C2131     1.0  0.72724  0.49108  0.73568  1.0000
  S   S711      1.0  0.97663  0.69731  0.91596  1.0000
  H   H2116     1.0  0.79189  0.52551  0.87171  1.0000
  H   H2117     1.0  0.97509  0.49607  0.67010  1.0000
  H   H2118     1.0  0.67237  0.55747  0.69975  1.0000
  C   C2132     1.0  0.74632  0.55323  0.93779  1.0000
  C   C2133     1.0  0.99660  0.70484  0.86102  1.0000
  H   H2119     1.0  0.77283  0.57128  0.90896  1.0000
  S   S712      1.0  0.78458  0.52614  0.79530  1.0000
  H   H2120     1.0  0.72289  0.52043  0.74269  1.0000
  H   H2121     1.0  0.82599  0.52595  0.91583  1.0000
  H   H2122     1.0  0.79052  0.49162  0.64900  1.0000
  C   C2134     1.0  0.93321  0.49754  0.57074  1.0000
  H   H2123     1.0  0.92431  0.50866  0.49140  1.0000
  H   H2124     1.0  0.97318  0.54986  0.66920  1.0000
  H   H2125     1.0  0.74017  0.54555  0.95314  1.0000
  N   N175      1.0  0.76809  0.54532  0.93131  1.0000
  S   S713      1.0  0.99542  0.70494  0.95917  1.0000
  C   C2135     1.0  0.86554  0.70528  0.92094  1.0000
  C   C2136     1.0  0.66719  0.68274  0.95654  1.0000
  S   S714      1.0  0.79819  0.49175  0.55083  1.0000
  H   H2126     1.0  0.87369  0.65689  0.94505  1.0000
  C   C2137     1.0  0.66823  0.71569  0.84446  1.0000
  H   H2127     1.0  0.84003  0.52715  0.48874  1.0000
  H   H2128     1.0  0.83860  0.51461  0.97038  1.0000
  C   C2138     1.0  0.89487  0.66764  0.96645  1.0000
  H   H2129     1.0  0.85477  0.50576  0.87661  1.0000
  C   C2139     1.0  0.74200  0.56314  0.78106  1.0000
  C   C2140     1.0  0.94837  0.61671  0.88355  1.0000
  C   C2141     1.0  0.92102  0.49490  0.50233  1.0000
  C   C2142     1.0  0.72354  0.58418  0.83589  1.0000
  H   H2130     1.0  0.92308  0.64130  0.84656  1.0000
  C   C2143     1.0  0.67126  0.71570  0.93726  1.0000
  C   C2144     1.0  0.88555  0.70059  0.94584  1.0000
  S   S715      1.0  0.85674  0.49506  0.53380  1.0000
  H   H2131     1.0  0.71737  0.68453  0.93681  1.0000
  C   C2145     1.0  0.80961  0.53099  0.91959  1.0000
  C   C2146     1.0  0.88633  0.50973  0.82524  1.0000
  H   H2132     1.0  0.84092  0.54730  0.94725  1.0000
  C   C2147     1.0  0.91822  0.50461  0.55913  1.0000
  C   C2148     1.0  0.99310  0.72562  0.85458  1.0000
  N   N176      1.0  0.72999  0.57713  0.81684  1.0000
  S   S716      1.0  0.68926  0.52816  0.66022  1.0000
  C   C2149     1.0  0.90538  0.49211  0.55820  1.0000
  C   C2150     1.0  0.98897  0.52300  0.69636  1.0000
  H   H2133     1.0  0.69506  0.66101  0.95784  1.0000
  H   H2134     1.0  0.85827  0.71486  0.90915  1.0000
  H   H2135     1.0  0.96638  0.62983  0.89593  1.0000
  H   H2136     1.0  0.80962  0.55895  0.89849  1.0000
  H   H2137     1.0  0.89409  0.49765  0.54901  1.0000
  N   N177      1.0  0.98062  0.51884  0.68246  1.0000
  H   H2138     1.0  0.73455  0.59249  0.83789  1.0000
  C   C2151     1.0  0.88962  0.52870  0.84838  1.0000
  H   H2139     1.0  0.90005  0.65200  0.96375  1.0000
  N   N178      1.0  0.90457  0.49363  0.85149  1.0000
  C   C2152     1.0  0.72394  0.55933  0.79428  1.0000
  N   N179      1.0  0.88490  0.68058  0.95061  1.0000
  H   H2140     1.0  0.93997  0.66813  0.84854  1.0000
  H   H2141     1.0  0.80461  0.50520  0.94272  1.0000
  C   C2153     1.0  0.75402  0.57401  0.78589  1.0000
  C   C2154     1.0  0.96365  0.66668  0.87372  1.0000
  S   S717      1.0  0.70820  0.72611  0.91848  1.0000
  H   H2142     1.0  0.88670  0.54278  0.85357  1.0000
  H   H2143     1.0  0.98769  0.53838  0.69787  1.0000
  H   H2144     1.0  0.87408  0.54129  0.82397  1.0000
  H   H2145     1.0  0.70836  0.59425  0.83673  1.0000
  H   H2146     1.0  0.75748  0.58889  0.80785  1.0000
  C   C2155     1.0  0.87310  0.51202  0.92462  1.0000
  H   H2147     1.0  0.95276  0.53590  0.67513  1.0000
  C   C2156     1.0  0.83902  0.50380  0.88110  1.0000
  H   H2148     1.0  0.97369  0.53261  0.65397  1.0000
  H   H2149     1.0  0.95030  0.60249  0.89385  1.0000
  H   H2150     1.0  0.71951  0.49641  0.72329  1.0000
  C   C2157     1.0  0.80376  0.51495  0.87842  1.0000
  H   H2151     1.0  0.95376  0.68160  0.87026  1.0000
  H   H2152     1.0  0.97368  0.49961  0.52948  1.0000
  C   C2158     1.0  0.74067  0.50552  0.90360  1.0000
  H   H2153     1.0  0.85664  0.67850  0.91847  1.0000
  Fe  Fe353     1.0  0.96997  0.71300  0.94188  1.0000
  H   H2154     1.0  0.70430  0.56306  0.82260  1.0000
  C   C2159     1.0  0.74775  0.58095  0.80395  1.0000
  C   C2160     1.0  0.89759  0.49271  0.83526  1.0000
  H   H2155     1.0  0.73459  0.52147  0.90134  1.0000
  C   C2161     1.0  0.74717  0.49578  0.88721  1.0000
  Fe  Fe354     1.0  0.96145  0.72656  0.90012  1.0000
  H   H2156     1.0  0.92817  0.60838  0.86929  1.0000
  N   N180      1.0  0.95414  0.65053  0.87233  1.0000
  C   C2162     1.0  0.94253  0.65367  0.85833  1.0000
  C   C2163     1.0  0.95738  0.63225  0.88466  1.0000
  C   C2164     1.0  0.93315  0.63851  0.85694  1.0000
  C   C2165     1.0  0.87425  0.67276  0.94129  1.0000
  C   C2166     1.0  0.79764  0.51936  0.93467  1.0000
  Fe  Fe355     1.0  0.92682  0.73251  0.93525  1.0000
  C   C2167     1.0  0.87600  0.71321  0.93087  1.0000
  H   H2157     1.0  0.94808  0.51354  0.50830  1.0000
  C   C2168     1.0  0.80049  0.54952  0.90992  1.0000
  H   H2158     1.0  0.82297  0.50964  0.57474  1.0000
  H   H2159     1.0  0.77603  0.56597  0.96367  1.0000
  Fe  Fe356     1.0  0.80324  0.49695  0.80740  1.0000
  C   C2169     1.0  0.96945  0.53511  0.66964  1.0000
  H   H2160     1.0  0.96598  0.66518  0.88912  1.0000
  Fe  Fe357     1.0  0.86672  0.48829  0.50281  1.0000
  C   C2170     1.0  0.90063  0.51131  0.85817  1.0000
  C   C2171     1.0  0.82366  0.49869  0.58847  1.0000
  C   C2172     1.0  0.80649  0.49824  0.60411  1.0000
  Fe  Fe358     1.0  0.99873  0.52279  0.60792  1.0000
  H   H2161     1.0  0.77473  0.49128  0.63218  1.0000
  C   C2173     1.0  0.83360  0.48738  0.89560  1.0000
  H   H2162     1.0  0.67958  0.73539  0.85672  1.0000
  N   N181      1.0  0.93687  0.48633  0.51410  1.0000
  S   S718      1.0  0.68641  0.74054  0.39359  1.0000
  Fe  Fe359     1.0  0.78736  0.90554  0.38320  1.0000
  S   S719      1.0  0.75400  0.90520  0.39280  1.0000
  S   S720      1.0  0.80437  0.90798  0.35145  1.0000
  S   S721      1.0  0.73151  0.95715  0.40884  1.0000
  C   C2174     1.0  0.68265  0.81767  0.42531  1.0000
  H   H2163     1.0  0.67061  0.78906  0.27302  1.0000
  H   H2164     1.0  0.74434  0.86862  0.38877  1.0000
  Fe  Fe360     1.0  0.96509  0.97379  0.13999  1.0000
  H   H2165     1.0  0.90628  0.93396  0.42850  1.0000
  C   C2175     1.0  0.77547  0.84418  0.33452  1.0000
  H   H2166     1.0  0.67972  0.80290  0.43299  1.0000
  C   C2176     1.0  0.83040  0.93644  0.45193  1.0000
  S   S722      1.0  0.72952  0.81327  0.36679  1.0000
  H   H2167     1.0  0.73477  0.85307  0.36515  1.0000
  C   C2177     1.0  0.75012  0.95041  0.05228  1.0000
  Fe  Fe361     1.0  0.84994  0.96958  0.00298  1.0000
  H   H2168     1.0  0.67851  0.95548  0.14198  1.0000
  H   H2169     1.0  0.84897  0.80954  0.99407  1.0000
  Fe  Fe362     1.0  0.86880  0.97500  0.03653  1.0000
  C   C2178     1.0  0.69518  0.84694  0.42384  1.0000
  S   S723      1.0  0.89217  0.96305  0.05627  1.0000
  H   H2170     1.0  0.76340  0.83499  0.33810  1.0000
  N   N182      1.0  0.78460  0.84199  0.35178  1.0000
  C   C2179     1.0  0.86664  0.96862  0.10908  1.0000
  C   C2180     1.0  0.98250  0.73802  0.01680  1.0000
  S   S724      1.0  0.84402  0.95899  0.03636  1.0000
  C   C2181     1.0  0.67258  0.94235  0.15067  1.0000
  C   C2182     1.0  0.74067  0.97521  0.41586  1.0000
  H   H2171     1.0  0.70550  0.80301  0.45266  1.0000
  H   H2172     1.0  0.97944  0.78491  0.44411  1.0000
  C   C2183     1.0  0.89803  0.92409  0.42528  1.0000
  N   N183      1.0  0.85184  0.98253  0.10097  1.0000
  H   H2173     1.0  0.75757  0.95380  0.43615  1.0000
  C   C2184     1.0  0.76100  0.98398  0.43487  1.0000
  C   C2185     1.0  0.90028  0.97943  0.06706  1.0000
  S   S725      1.0  0.97624  0.94042  0.14397  1.0000
  H   H2174     1.0  0.77604  0.95091  0.06404  1.0000
  H   H2175     1.0  0.67702  0.73817  0.30448  1.0000
  S   S726      1.0  0.99154  0.74205  0.43294  1.0000
  S   S727      1.0  0.75952  0.90514  0.43844  1.0000
  N   N184      1.0  0.88414  0.91519  0.44013  1.0000
  H   H2176     1.0  0.91088  0.96342  0.40302  1.0000
  H   H2177     1.0  0.90320  0.98447  0.37141  1.0000
  H   H2178     1.0  0.99287  0.79366  0.46777  1.0000
  H   H2179     1.0  0.77691  0.81328  0.36519  1.0000
  H   H2180     1.0  0.68543  0.92535  0.12699  1.0000
  Fe  Fe363     1.0  0.88637  0.96532  0.33217  1.0000
  H   H2181     1.0  0.82004  0.96907  0.32537  1.0000
  S   S728      1.0  0.88501  0.93524  0.35194  1.0000
  H   H2182     1.0  0.89386  0.90541  0.38642  1.0000
  H   H2183     1.0  0.81360  0.90082  0.00939  1.0000
  Fe  Fe364     1.0  0.79262  0.90605  0.42471  1.0000
  C   C2186     1.0  0.87391  0.90250  0.43617  1.0000
  Fe  Fe365     1.0  0.71826  0.74115  0.39591  1.0000
  H   H2184     1.0  0.78825  0.94636  0.00219  1.0000
  C   C2187     1.0  0.99607  0.73888  0.02816  1.0000
  C   C2188     1.0  0.84514  0.98276  0.39380  1.0000
  C   C2189     1.0  0.98634  0.79603  0.43249  1.0000
  C   C2190     1.0  0.81468  0.92666  0.45246  1.0000
  C   C2191     1.0  0.89120  0.90802  0.40156  1.0000
  C   C2192     1.0  0.85596  0.81963  0.98136  1.0000
  H   H2185     1.0  0.98881  0.94710  0.17952  1.0000
  C   C2193     1.0  0.82815  0.94895  0.46552  1.0000
  H   H2186     1.0  0.99032  0.81445  0.38270  1.0000
  S   S729      1.0  0.72733  0.75688  0.36429  1.0000
  C   C2194     1.0  0.68958  0.85547  0.40547  1.0000
  S   S730      1.0  0.78606  0.93019  0.39879  1.0000
  H   H2187     1.0  0.81029  0.86653  0.37020  1.0000
  H   H2188     1.0  0.97333  0.75172  0.01029  1.0000
  S   S731      1.0  0.79652  0.88119  0.40807  1.0000
  H   H2189     1.0  0.86855  0.88927  0.41366  1.0000
  C   C2195     1.0  0.80692  0.97618  0.33523  1.0000
  H   H2190     1.0  0.85719  0.95607  0.38103  1.0000
  H   H2191     1.0  0.83064  0.92847  0.00936  1.0000
  H   H2192     1.0  0.76802  0.86002  0.32999  1.0000
  Fe  Fe366     1.0  0.67811  0.77036  0.40322  1.0000
  H   H2193     1.0  0.71199  0.95558  0.05077  1.0000
  C   C2196     1.0  0.67684  0.82578  0.40698  1.0000
  C   C2197     1.0  0.82818  0.95462  0.40130  1.0000
  C   C2198     1.0  0.91516  0.97168  0.07876  1.0000
  H   H2194     1.0  0.97382  0.78974  0.40996  1.0000
  S   S732      1.0  0.68402  0.78796  0.37195  1.0000
  H   H2195     1.0  0.84049  0.95620  0.46511  1.0000
  H   H2196     1.0  0.92138  0.95576  0.08120  1.0000
  H   H2197     1.0  0.81455  0.95692  0.36209  1.0000
  H   H2198     1.0  0.91236  0.92821  0.39386  1.0000
  C   C2199     1.0  0.88048  0.91925  0.46035  1.0000
  C   C2200     1.0  0.66887  0.90836  0.15309  1.0000
  C   C2201     1.0  0.69836  0.81909  0.45234  1.0000
  C   C2202     1.0  0.87717  0.89885  0.41682  1.0000
  C   C2203     1.0  0.81239  0.96456  0.41429  1.0000
  N   N185      1.0  0.69209  0.82807  0.43328  1.0000
  C   C2204     1.0  0.78714  0.97908  0.36830  1.0000
  Fe  Fe367     1.0  0.69486  0.75806  0.36261  1.0000
  C   C2205     1.0  0.73482  0.82419  0.38462  1.0000
  H   H2199     1.0  0.98942  0.74801  0.37869  1.0000
  H   H2200     1.0  0.69272  0.87014  0.39771  1.0000
  H   H2201     1.0  0.98512  0.91391  0.20041  1.0000
  H   H2202     1.0  0.83363  0.84590  0.98799  1.0000
  H   H2203     1.0  0.84941  0.96866  0.07815  1.0000
  S   S733      1.0  0.69249  0.97013  0.09009  1.0000
  S   S734      1.0  0.75141  0.85288  0.42917  1.0000
  Fe  Fe368     1.0  0.71557  0.78526  0.37682  1.0000
  C   C2206     1.0  0.82035  0.90936  0.99536  1.0000
  H   H2204     1.0  0.66929  0.96915  0.17261  1.0000
  C   C2207     1.0  0.79240  0.82297  0.38304  1.0000
  C   C2208     1.0  0.80162  0.83807  0.38464  1.0000
  S   S735      1.0  0.81911  0.90951  0.43637  1.0000
  C   C2209     1.0  0.68057  0.84469  0.39690  1.0000
  H   H2205     1.0  0.73942  0.95210  0.06626  1.0000
  N   N186      1.0  0.74337  0.94979  0.03579  1.0000
  C   C2210     1.0  0.75685  0.94809  0.01805  1.0000
  C   C2211     1.0  0.79403  0.85668  0.35301  1.0000
  H   H2206     1.0  0.84422  0.93469  0.44070  1.0000
  Fe  Fe369     1.0  0.76279  0.88239  0.41905  1.0000
  C   C2212     1.0  0.73792  0.81299  0.40325  1.0000
  H   H2207     1.0  0.68490  0.82034  0.46486  1.0000
  H   H2208     1.0  0.71917  0.93523  0.03718  1.0000
  H   H2209     1.0  0.78440  0.97401  0.38436  1.0000
  H   H2210     1.0  0.80771  0.83686  0.39775  1.0000
  H   H2211     1.0  0.78742  0.83942  0.32179  1.0000
  H   H2212     1.0  0.87804  0.93567  0.45982  1.0000
  H   H2213     1.0  0.75152  0.94741  0.00504  1.0000
  H   H2214     1.0  0.79467  0.87006  0.34146  1.0000
  C   C2213     1.0  0.73719  0.84428  0.37951  1.0000
  H   H2215     1.0  0.74583  0.81309  0.43099  1.0000
  C   C2214     1.0  0.67671  0.92527  0.14217  1.0000
  C   C2215     1.0  0.79614  0.93039  0.46599  1.0000
  H   H2216     1.0  0.67149  0.89521  0.14646  1.0000
  H   H2217     1.0  0.79115  0.80997  0.39496  1.0000
  H   H2218     1.0  0.86960  0.95319  0.10708  1.0000
  C   C2216     1.0  0.77083  0.94966  0.05115  1.0000
  C   C2217     1.0  0.80394  0.96954  0.35586  1.0000
  C   C2218     1.0  0.72169  0.95035  0.03709  1.0000
  C   C2219     1.0  0.82724  0.91500  0.35098  1.0000
  C   C2220     1.0  0.83467  0.91069  0.36854  1.0000
  C   C2221     1.0  0.85261  0.91664  0.36859  1.0000
  C   C2222     1.0  0.86297  0.92738  0.35123  1.0000
  C   C2223     1.0  0.85536  0.93210  0.33370  1.0000
  C   C2224     1.0  0.83765  0.92561  0.33349  1.0000
  H   H2219     1.0  0.82673  0.90260  0.38211  1.0000
  H   H2220     1.0  0.85815  0.91323  0.38224  1.0000
  H   H2221     1.0  0.86334  0.94038  0.32021  1.0000
  H   H2222     1.0  0.83189  0.92905  0.31989  1.0000
  H   H2223     1.0  0.89384  0.91177  0.46723  1.0000
  H   H2224     1.0  0.73651  0.79741  0.40722  1.0000
  Fe  Fe370     1.0  0.75345  0.92777  0.41097  1.0000
  H   H2225     1.0  0.93399  0.97835  0.09582  1.0000
  H   H2226     1.0  0.66961  0.81735  0.40059  1.0000
  C   C2225     1.0  0.80282  0.85484  0.36935  1.0000
  S   S736      1.0  0.70896  0.76943  0.40869  1.0000
  C   C2226     1.0  0.74270  0.85312  0.39286  1.0000
  C   C2227     1.0  0.75363  0.96944  0.42945  1.0000
  C   C2228     1.0  0.74336  0.82186  0.41663  1.0000
  C   C2229     1.0  0.74574  0.84196  0.41152  1.0000
  H   H2227     1.0  0.82772  0.93976  0.39948  1.0000
  H   H2228     1.0  0.99745  0.75322  0.03059  1.0000
  C   C2230     1.0  0.78463  0.94830  0.03303  1.0000
  C   C2231     1.0  0.77765  0.94742  0.01636  1.0000
  C   C2232     1.0  0.84473  0.96371  0.39105  1.0000
  H   H2229     1.0  0.77046  0.97943  0.44589  1.0000
  H   H2230     1.0  0.71633  0.96121  0.02427  1.0000
  S   S737      1.0  0.87701  0.98224  0.00308  1.0000
  C   C2233     1.0  0.90165  0.92079  0.40575  1.0000
  S   S738      1.0  0.88546  0.97493  0.29966  1.0000
  H   H2231     1.0  0.70262  0.85526  0.43016  1.0000
  H   H2232     1.0  0.80063  0.94827  0.03185  1.0000
  H   H2233     1.0  0.67658  0.85091  0.38244  1.0000
  C   C2234     1.0  0.78424  0.82501  0.36623  1.0000
  H   H2234     1.0  0.70998  0.82654  0.45461  1.0000
  S   S739      1.0  0.89908  0.96996  0.44343  1.0000
  Fe  Fe371     1.0  0.87802  0.98147  0.46995  1.0000
  C   C2235     1.0  0.82991  0.92506  0.99539  1.0000
  H   H2235     1.0  0.86260  0.89564  0.44781  1.0000
  H   H2236     1.0  0.79963  0.95743  0.42261  1.0000
  H   H2237     1.0  0.78382  0.92311  0.46637  1.0000
  S   S740      1.0  0.68938  0.75044  0.33499  1.0000
  C   C2236     1.0  0.90224  0.97849  0.40296  1.0000
  C   C2237     1.0  0.98314  0.79865  0.41313  1.0000
  C   C2238     1.0  0.92225  0.98444  0.08714  1.0000
  C   C2239     1.0  0.99250  0.81235  0.39786  1.0000
  H   H2238     1.0  0.89067  0.96323  0.12546  1.0000
  H   H2239     1.0  0.94941  0.98171  0.04641  1.0000
  H   H2240     1.0  0.66758  0.74732  0.44710  1.0000
  C   C2240     1.0  0.99771  0.75573  0.36507  1.0000
  C   C2241     1.0  0.87860  0.97419  0.11946  1.0000
  H   H2241     1.0  0.83019  0.96547  0.10085  1.0000
  C   C2242     1.0  0.81358  0.98336  0.41709  1.0000
  C   C2243     1.0  0.83941  0.97613  0.09040  1.0000
  C   C2244     1.0  0.89516  0.98588  0.42077  1.0000
  S   S741      1.0  0.91072  0.98220  0.33068  1.0000
  N   N187      1.0  0.99862  0.80671  0.43650  1.0000
  H   H2242     1.0  0.86662  0.91403  0.47014  1.0000
  C   C2245     1.0  0.66688  0.74248  0.33500  1.0000
  C   C2246     1.0  0.84733  0.83999  0.97795  1.0000
  S   S742      1.0  0.80783  0.88442  0.97796  1.0000
  C   C2247     1.0  0.82894  0.97473  0.84483  1.0000
  C   C2248     1.0  0.81005  0.95186  0.47976  1.0000
  H   H2243     1.0  0.89091  0.86782  0.93515  1.0000
  S   S743      1.0  0.96465  0.97881  0.64899  1.0000
  C   C2249     1.0  0.75599  0.93604  0.77756  1.0000
  S   S744      1.0  0.85128  0.95572  0.97648  1.0000
  C   C2250     1.0  0.77843  0.80604  0.88517  1.0000
  C   C2251     1.0  0.81226  0.94572  0.89610  1.0000
  C   C2252     1.0  0.83818  0.93114  0.95930  1.0000
  S   S745      1.0  0.67443  0.94652  0.71466  1.0000
  H   H2244     1.0  0.76112  0.96357  0.72921  1.0000
  S   S746      1.0  0.82501  0.95316  0.80318  1.0000
  Fe  Fe372     1.0  0.82986  0.85228  0.91655  1.0000
  S   S747      1.0  0.81315  0.84234  0.94767  1.0000
  S   S748      1.0  0.86170  0.83655  0.90419  1.0000
  Fe  Fe373     1.0  0.79594  0.88794  0.90846  1.0000
  S   S749      1.0  0.77669  0.88032  0.93911  1.0000
  S   S750      1.0  0.78168  0.91641  0.89013  1.0000
  Fe  Fe374     1.0  0.80592  0.87499  0.94978  1.0000
  H   H2245     1.0  0.75834  0.92307  0.77074  1.0000
  Fe  Fe375     1.0  0.78566  0.84869  0.93380  1.0000
  S   S751      1.0  0.76469  0.82604  0.94285  1.0000
  S   S752      1.0  0.82463  0.88463  0.91950  1.0000
  S   S753      1.0  0.80292  0.85661  0.90233  1.0000
  H   H2246     1.0  0.95095  0.94513  0.59499  1.0000
  H   H2247     1.0  0.78216  0.95991  0.79658  1.0000
  C   C2253     1.0  0.75009  0.97580  0.73494  1.0000
  S   S754      1.0  0.67995  0.78009  0.92101  1.0000
  H   H2248     1.0  0.77173  0.98530  0.74651  1.0000
  H   H2249     1.0  0.76744  0.76818  0.92373  1.0000
  H   H2250     1.0  0.89538  0.81953  0.94132  1.0000
  Fe  Fe376     1.0  0.69019  0.79842  0.89087  1.0000
  S   S755      1.0  0.70892  0.82258  0.88498  1.0000
  H   H2251     1.0  0.83911  0.94561  0.86136  1.0000
  H   H2252     1.0  0.71272  0.93299  0.78649  1.0000
  H   H2253     1.0  0.74434  0.78799  0.87031  1.0000
  C   C2254     1.0  0.72025  0.94382  0.77433  1.0000
  S   S756      1.0  0.86715  0.95944  0.49718  1.0000
  S   S757      1.0  0.80768  0.96645  0.49774  1.0000
  H   H2254     1.0  0.68299  0.74413  0.96210  1.0000
  H   H2255     1.0  0.78671  0.81832  0.88092  1.0000
  C   C2255     1.0  0.88203  0.85896  0.93065  1.0000
  H   H2256     1.0  0.88022  0.96840  0.71286  1.0000
  Fe  Fe377     1.0  0.68975  0.75447  0.90464  1.0000
  S   S758      1.0  0.70198  0.77230  0.87489  1.0000
  H   H2257     1.0  0.74839  0.74802  0.91519  1.0000
  H   H2258     1.0  0.82099  0.94844  0.90614  1.0000
  H   H2259     1.0  0.92436  0.94718  0.53548  1.0000
  N   N188      1.0  0.81260  0.96155  0.87821  1.0000
  C   C2256     1.0  0.96279  0.97332  0.56446  1.0000
  H   H2260     1.0  0.77973  0.94531  0.49056  1.0000
  S   S759      1.0  0.93431  0.97774  0.62067  1.0000
  C   C2257     1.0  0.74263  0.76063  0.90383  1.0000
  H   H2261     1.0  0.84068  0.97272  0.83153  1.0000
  H   H2262     1.0  0.92851  0.92178  0.59651  1.0000
  H   H2263     1.0  0.79633  0.94498  0.90436  1.0000
  S   S760      1.0  0.97489  0.74138  0.86919  1.0000
  H   H2264     1.0  0.81887  0.93070  0.89210  1.0000
  H   H2265     1.0  0.94662  0.97046  0.53461  1.0000
  H   H2266     1.0  0.98609  0.74872  0.95368  1.0000
  C   C2258     1.0  0.76746  0.77779  0.90919  1.0000
  H   H2267     1.0  0.71946  0.97455  0.79121  1.0000
  C   C2259     1.0  0.74752  0.82674  0.92773  1.0000
  C   C2260     1.0  0.73500  0.81232  0.93319  1.0000
  C   C2261     1.0  0.72255  0.81128  0.92055  1.0000
  C   C2262     1.0  0.72250  0.82473  0.90235  1.0000
  C   C2263     1.0  0.73450  0.83956  0.89722  1.0000
  C   C2264     1.0  0.74700  0.84057  0.90983  1.0000
  H   H2268     1.0  0.73524  0.80168  0.94710  1.0000
  H   H2269     1.0  0.71322  0.79995  0.92477  1.0000
  H   H2270     1.0  0.73445  0.85009  0.88322  1.0000
  H   H2271     1.0  0.75646  0.85183  0.90554  1.0000
  C   C2265     1.0  0.81250  0.94241  0.82698  1.0000
  C   C2266     1.0  0.79381  0.95237  0.83646  1.0000
  C   C2267     1.0  0.78436  0.94392  0.85564  1.0000
  C   C2268     1.0  0.79358  0.92551  0.86559  1.0000
  C   C2269     1.0  0.81226  0.91541  0.85619  1.0000
  C   C2270     1.0  0.82164  0.92382  0.83683  1.0000
  H   H2272     1.0  0.78658  0.96660  0.82916  1.0000
  H   H2273     1.0  0.76992  0.95178  0.86290  1.0000
  H   H2274     1.0  0.81944  0.90116  0.86380  1.0000
  H   H2275     1.0  0.83610  0.91599  0.82956  1.0000
  S   S761      1.0  0.88134  0.97197  0.54363  1.0000
  S   S762      1.0  0.72280  0.96331  0.72059  1.0000
  H   H2276     1.0  0.70874  0.95757  0.77083  1.0000
  C   C2271     1.0  0.88617  0.77286  0.93474  1.0000
  C   C2272     1.0  0.89861  0.78303  0.91855  1.0000
  C   C2273     1.0  0.89075  0.80234  0.90889  1.0000
  C   C2274     1.0  0.87042  0.81154  0.91528  1.0000
  C   C2275     1.0  0.85786  0.80109  0.93110  1.0000
  C   C2276     1.0  0.86574  0.78186  0.94084  1.0000
  H   H2277     1.0  0.91438  0.77618  0.91366  1.0000
  H   H2278     1.0  0.90054  0.81027  0.89658  1.0000
  H   H2279     1.0  0.84213  0.80788  0.93601  1.0000
  H   H2280     1.0  0.72561  0.93737  0.76048  1.0000
  H   H2281     1.0  0.88731  0.97026  0.58265  1.0000
  C   C2277     1.0  0.73424  0.96464  0.78913  1.0000
  N   N189      1.0  0.94989  0.95929  0.56482  1.0000
  S   S763      1.0  0.89583  0.74930  0.94822  1.0000
  C   C2278     1.0  0.82858  0.91551  0.95926  1.0000
  H   H2282     1.0  0.84516  0.93950  0.94527  1.0000
  C   C2279     1.0  0.82790  0.95941  0.86173  1.0000
  H   H2283     1.0  0.98603  0.93694  0.64829  1.0000
  H   H2284     1.0  0.78780  0.79501  0.91336  1.0000
  N   N190      1.0  0.73729  0.94845  0.78024  1.0000
  H   H2285     1.0  0.97869  0.96517  0.56472  1.0000
  C   C2280     1.0  0.92503  0.93285  0.56602  1.0000
  C   C2281     1.0  0.99839  0.74306  0.96169  1.0000
  H   H2286     1.0  0.85599  0.77404  0.95328  1.0000
  H   H2287     1.0  0.78726  0.93021  0.78125  1.0000
  S   S764      1.0  0.95685  0.74297  0.92526  1.0000
  H   H2288     1.0  0.88024  0.79643  0.97056  1.0000
  C   C2282     1.0  0.89498  0.98178  0.57264  1.0000
  H   H2289     1.0  0.72689  0.76758  0.91043  1.0000
  Fe  Fe378     1.0  0.83618  0.97812  0.49515  1.0000
  C   C2283     1.0  0.76950  0.95665  0.79215  1.0000
  Fe  Fe379     1.0  0.96791  0.97126  0.61919  1.0000
  N   N191      1.0  0.75561  0.77579  0.89711  1.0000
  H   H2290     1.0  0.89211  0.85065  0.91902  1.0000
  H   H2291     1.0  0.95694  0.98062  0.57771  1.0000
  C   C2284     1.0  0.72988  0.97932  0.73245  1.0000
  H   H2292     1.0  0.76464  0.81480  0.85937  1.0000
  C   C2285     1.0  0.75465  0.78881  0.87935  1.0000
  S   S765      1.0  0.67467  0.94194  0.65973  1.0000
  Fe  Fe380     1.0  0.67015  0.77706  0.86966  1.0000
  C   C2286     1.0  0.77912  0.79287  0.90337  1.0000
  C   C2287     1.0  0.94297  0.95962  0.54815  1.0000
  H   H2293     1.0  0.67664  0.90610  0.64607  1.0000
  C   C2288     1.0  0.85618  0.85271  0.96117  1.0000
  C   C2289     1.0  0.88199  0.82545  0.95166  1.0000
  Fe  Fe381     1.0  0.69201  0.97082  0.71155  1.0000
  H   H2294     1.0  0.82811  0.91198  0.94529  1.0000
  C   C2290     1.0  0.93253  0.93233  0.58281  1.0000
  C   C2291     1.0  0.93046  0.94640  0.54849  1.0000
  C   C2292     1.0  0.77238  0.93998  0.78343  1.0000
  C   C2293     1.0  0.94513  0.94565  0.58190  1.0000
  N   N192      1.0  0.87309  0.84531  0.94812  1.0000
  S   S766      1.0  0.90953  0.97669  0.67681  1.0000
  C   C2294     1.0  0.76611  0.80404  0.87306  1.0000
  Fe  Fe382     1.0  0.87030  0.98157  0.51441  1.0000
  H   H2295     1.0  0.94527  0.97689  0.69860  1.0000
  H   H2296     1.0  0.86983  0.86927  0.92347  1.0000
  H   H2297     1.0  0.91485  0.92295  0.56660  1.0000
  C   C2295     1.0  0.87350  0.81230  0.96824  1.0000
  S   S767      1.0  0.98853  0.94583  0.60536  1.0000
  C   C2296     1.0  0.75032  0.96907  0.79507  1.0000
  H   H2298     1.0  0.84924  0.86849  0.95852  1.0000
  C   C2297     1.0  0.87836  0.98453  0.70830  1.0000
  H   H2299     1.0  0.96280  0.98558  0.55113  1.0000
  H   H2300     1.0  0.78601  0.98047  0.89146  1.0000
  H   H2301     1.0  0.74796  0.98228  0.80156  1.0000
  H   H2302     1.0  0.74197  0.75400  0.89118  1.0000
  C   C2298     1.0  0.81965  0.90451  0.97731  1.0000
  C   C2299     1.0  0.79818  0.97881  0.87844  1.0000
  C   C2300     1.0  0.79387  0.94294  0.47969  1.0000
  C   C2301     1.0  0.89435  0.98605  0.55229  1.0000
  S   S768      1.0  0.69029  0.98274  0.67931  1.0000
  C   C2302     1.0  0.99819  0.92616  0.64153  1.0000
  C   C2303     1.0  0.66880  0.74009  0.97123  1.0000
  H   H2303     1.0  0.91419  0.98351  0.72480  1.0000
  C   C2304     1.0  0.83886  0.93602  0.97733  1.0000
  H   H2304     1.0  0.67173  0.95960  0.61524  1.0000
  Fe  Fe383     1.0  0.67034  0.96030  0.68339  1.0000
  Fe  Fe384     1.0  0.81322  0.98544  0.79053  1.0000
