data_image0
_chemical_formula_structural       FeS2FeS2FeSFeS3HC7H3C6H4C2H2CHCHC4H2SCH5CH2C4H2CHCNC2HNHCH2CHC2NH2C2HCHFeS2FeS2FeSFeS3HC2HCHCHCH2C4HCH3C3H2C5HNCHNSHC2HCH2CH2CHCHC2HC2H3CH3FeS2FeS2FeSFeS3CH5C3SHC3H5CNC7H4C2H2NHCHC2HCNC2HC5H3CH3CH8FeS2FeS2FeSFeS3HNH2C2H2CHSHCHC2HCH2CH2C6H2CHC7NC3H6CHCH2NCH4CH5CFeS2FeS2FeSHSCSFeSC7H4CHCHCHSCHCH4CNHC2HC2HCNH4C2HCSC2FeHSH3SHFeHCHFeS2FeS2FeSHSFeSFeSHC6H4C2NCHCH4NCHSC2H5C5H2CHC4H2CSH2SFeHC2S2FeSFeS2HNCFeHC3H2SC9H4C2H2SC2HCH2FeCHFeSH2S2NCHFeNC2HCFeHSH3CH2CHC2H2C2HSHCHS2FeSHSC2SFeSCSNHCHCHC8H4CH2FeHFeCHC2HCHCHC3HNC3SH2CHCFeH2FeCH4CHCS2HSH2C3SHC2HCHCFeHSC2H2SHFeS2FeS2FeSFeS3C2H2C7H4C2HFeHC5H2CHCH2SHNC6H11CNCNCH2C2HCH2CHC3H3FeCHCSCHSCFeS2FeS2FeSFeS3C4HC6H5CH2C5HSH2NC3H3CH8CHCNHC2HFeHNCHC2H4SC4S2CFeS2FeS2FeSFeS3C3H2CFeH2C8H5NC2H6C3H2CHC2HC3H4CHC4HCH2CH2CHCHN2CH2SC2HCS2FeS2FeS2FeSFeS3C3HCFeHCHNHC6H4CHCH4CHSCHCH3C2H4NC3HC3HC2HCH5C2FeCNH3
_chemical_formula_sum              "Fe64 S128 H384 C384 N32"
_cell_length_a       43.9659
_cell_length_b       43.9576
_cell_length_c       36.9257
_cell_angle_alpha    89.7683
_cell_angle_beta     89.5951
_cell_angle_gamma    89.986

_space_group_name_H-M_alt    "P 1"
_space_group_IT_number       1

loop_
  _space_group_symop_operation_xyz
  'x, y, z'

loop_
  _atom_site_type_symbol
  _atom_site_label
  _atom_site_symmetry_multiplicity
  _atom_site_fract_x
  _atom_site_fract_y
  _atom_site_fract_z
  _atom_site_occupancy
  Fe  Fe1       1.0  0.13883  0.36658  0.21268  1.0000
  S   S1        1.0  0.10795  0.35630  0.16608  1.0000
  S   S2        1.0  0.12534  0.40946  0.24419  1.0000
  Fe  Fe2       1.0  0.17012  0.30309  0.20688  1.0000
  S   S3        1.0  0.14008  0.28884  0.16030  1.0000
  S   S4        1.0  0.21399  0.27899  0.22676  1.0000
  Fe  Fe3       1.0  0.14811  0.33577  0.13745  1.0000
  S   S5        1.0  0.16121  0.35020  0.07948  1.0000
  Fe  Fe4       1.0  0.10151  0.31067  0.19239  1.0000
  S   S6        1.0  0.05170  0.29547  0.19269  1.0000
  S   S7        1.0  0.17994  0.34950  0.18232  1.0000
  S   S8        1.0  0.13077  0.32140  0.24046  1.0000
  H   H1        1.0  0.10294  0.46609  0.27151  1.0000
  C   C1        1.0  0.25775  0.34287  0.13833  1.0000
  C   C2        1.0  0.24816  0.34927  0.10318  1.0000
  C   C3        1.0  0.26950  0.13789  0.41545  1.0000
  C   C4        1.0  0.02484  0.30297  0.22763  1.0000
  C   C5        1.0  0.03327  0.30369  0.26404  1.0000
  C   C6        1.0  0.01096  0.30720  0.29130  1.0000
  C   C7        1.0  0.24978  0.31526  0.15451  1.0000
  H   H2        1.0  0.25911  0.14270  0.35863  1.0000
  H   H3        1.0  0.05690  0.30065  0.27125  1.0000
  H   H4        1.0  0.01770  0.30712  0.31943  1.0000
  C   C8        1.0  0.23005  0.24361  0.24209  1.0000
  C   C9        1.0  0.21277  0.21711  0.24688  1.0000
  C   C10       1.0  0.22663  0.18989  0.25921  1.0000
  C   C11       1.0  0.25802  0.18849  0.26679  1.0000
  C   C12       1.0  0.27535  0.21496  0.26186  1.0000
  C   C13       1.0  0.26145  0.24221  0.24969  1.0000
  H   H5        1.0  0.18866  0.21759  0.24126  1.0000
  H   H6        1.0  0.21285  0.16972  0.26286  1.0000
  H   H7        1.0  0.29946  0.21449  0.26743  1.0000
  H   H8        1.0  0.27519  0.26243  0.24617  1.0000
  C   C14       1.0  0.15350  0.33548  0.03547  1.0000
  C   C15       1.0  0.13787  0.30814  0.03017  1.0000
  H   H9        1.0  0.07133  0.37687  0.22679  1.0000
  H   H10       1.0  0.12920  0.29560  0.05329  1.0000
  C   C16       1.0  0.06863  0.37643  0.29871  1.0000
  H   H11       1.0  0.29431  0.18608  0.34943  1.0000
  C   C17       1.0  0.23072  0.32782  0.08467  1.0000
  H   H12       1.0  0.07844  0.39937  0.30344  1.0000
  C   C18       1.0  0.02430  0.38132  0.21279  1.0000
  C   C19       1.0  0.17474  0.44955  0.24343  1.0000
  C   C20       1.0  0.14381  0.44504  0.25092  1.0000
  C   C21       1.0  0.12687  0.46926  0.26565  1.0000
  H   H13       1.0  0.18813  0.43115  0.23226  1.0000
  H   H14       1.0  0.20352  0.28290  0.05235  1.0000
  S   S9        1.0  0.27400  0.15330  0.28285  1.0000
  C   C22       1.0  0.26745  0.02295  0.25166  1.0000
  H   H15       1.0  0.17652  0.37262  0.00854  1.0000
  H   H16       1.0  0.20864  0.25574  0.08832  1.0000
  H   H17       1.0  0.17863  0.28384  0.09108  1.0000
  H   H18       1.0  0.28411  0.03516  0.30445  1.0000
  H   H19       1.0  0.08692  0.36184  0.28712  1.0000
  C   C23       1.0  0.13340  0.29695  0.99476  1.0000
  H   H20       1.0  0.26420  0.04635  0.24297  1.0000
  H   H21       1.0  0.25441  0.11866  0.41962  1.0000
  C   C24       1.0  0.98935  0.38439  0.26331  1.0000
  C   C25       1.0  0.04835  0.37901  0.23720  1.0000
  C   C26       1.0  0.18855  0.47781  0.25115  1.0000
  C   C27       1.0  0.16442  0.35143  0.00487  1.0000
  H   H22       1.0  0.28428  0.13888  0.47077  1.0000
  H   H23       1.0  0.27078  0.35950  0.15332  1.0000
  C   C28       1.0  0.28649  0.14942  0.44423  1.0000
  H   H24       1.0  0.25659  0.31027  0.18211  1.0000
  C   C29       1.0  0.20247  0.27972  0.08224  1.0000
  N   N1        1.0  0.22271  0.30092  0.10090  1.0000
  C   C30       1.0  0.27215  0.15132  0.38126  1.0000
  C   C31       1.0  0.23181  0.29457  0.13547  1.0000
  H   H25       1.0  0.25343  0.37100  0.09063  1.0000
  N   N2        1.0  0.04298  0.37880  0.27372  1.0000
  H   H26       1.0  0.22254  0.33340  0.05778  1.0000
  C   C32       1.0  0.29199  0.17573  0.37609  1.0000
  H   H27       1.0  0.00959  0.38147  0.31588  1.0000
  H   H28       1.0  0.22472  0.27368  0.14887  1.0000
  C   C33       1.0  0.30882  0.18652  0.40539  1.0000
  H   H29       1.0  0.06163  0.36602  0.32492  1.0000
  C   C34       1.0  0.01398  0.38187  0.28694  1.0000
  C   C35       1.0  0.99461  0.38399  0.22599  1.0000
  N   N3        1.0  0.30585  0.17344  0.43893  1.0000
  H   H30       1.0  0.21257  0.48090  0.24574  1.0000
  H   H31       1.0  0.25376  0.00358  0.20074  1.0000
  C   C36       1.0  0.26162  0.99898  0.22799  1.0000
  C   C37       1.0  0.27838  0.01671  0.28627  1.0000
  H   H32       1.0  0.02878  0.38042  0.18386  1.0000
  C   C38       1.0  0.99393  0.30646  0.21880  1.0000
  H   H33       1.0  0.31117  0.20775  0.47861  1.0000
  Fe  Fe5       1.0  0.18537  0.31021  0.79262  1.0000
  S   S10       1.0  0.14680  0.28301  0.81654  1.0000
  S   S11       1.0  0.22829  0.29332  0.76192  1.0000
  Fe  Fe6       1.0  0.15311  0.37094  0.81129  1.0000
  S   S12       1.0  0.11257  0.34737  0.83660  1.0000
  S   S13       1.0  0.15419  0.42289  0.81497  1.0000
  Fe  Fe7       1.0  0.14693  0.31659  0.86301  1.0000
  S   S14       1.0  0.13807  0.29744  0.92016  1.0000
  Fe  Fe8       1.0  0.11524  0.31612  0.78882  1.0000
  S   S15       1.0  0.07533  0.29774  0.75609  1.0000
  S   S16       1.0  0.18759  0.34198  0.84081  1.0000
  S   S17       1.0  0.15369  0.34153  0.76169  1.0000
  H   H34       1.0  0.04287  0.24013  0.76866  1.0000
  C   C39       1.0  0.03768  0.31230  0.75408  1.0000
  C   C40       1.0  0.01654  0.29827  0.73106  1.0000
  H   H35       1.0  0.23787  0.35827  0.78381  1.0000
  C   C41       1.0  0.24222  0.45401  0.73700  1.0000
  H   H36       1.0  0.00154  0.28773  0.82561  1.0000
  C   C42       1.0  0.02787  0.33608  0.77631  1.0000
  H   H37       1.0  0.02392  0.27988  0.71368  1.0000
  C   C43       1.0  0.08335  0.47578  0.78979  1.0000
  H   H38       1.0  0.22517  0.40155  0.81863  1.0000
  H   H39       1.0  0.04384  0.34706  0.79417  1.0000
  C   C44       1.0  0.24695  0.25714  0.75660  1.0000
  C   C45       1.0  0.27001  0.25404  0.73005  1.0000
  C   C46       1.0  0.28596  0.22629  0.72531  1.0000
  C   C47       1.0  0.27949  0.20113  0.74752  1.0000
  H   H40       1.0  0.17398  0.45884  0.69003  1.0000
  C   C48       1.0  0.24024  0.23187  0.77848  1.0000
  H   H41       1.0  0.27545  0.27325  0.71281  1.0000
  H   H42       1.0  0.02313  0.31729  0.87617  1.0000
  H   H43       1.0  0.21586  0.36371  0.74347  1.0000
  C   C49       1.0  0.23692  0.37075  0.75758  1.0000
  C   C50       1.0  0.14419  0.31299  0.96413  1.0000
  C   C51       1.0  0.15969  0.34040  0.96945  1.0000
  H   H44       1.0  0.24653  0.41260  0.70670  1.0000
  H   H45       1.0  0.16816  0.35304  0.94629  1.0000
  C   C52       1.0  0.02342  0.28117  0.83662  1.0000
  C   C53       1.0  0.03549  0.29802  0.86522  1.0000
  C   C54       1.0  0.16394  0.44247  0.74406  1.0000
  C   C55       1.0  0.15900  0.45049  0.78023  1.0000
  C   C56       1.0  0.99711  0.34516  0.77610  1.0000
  H   H46       1.0  0.16416  0.41872  0.73645  1.0000
  N   N4        1.0  0.23723  0.40383  0.76253  1.0000
  C   C57       1.0  0.15883  0.48149  0.78964  1.0000
  H   H47       1.0  0.08027  0.23128  0.82329  1.0000
  N   N5        1.0  0.03938  0.25738  0.82204  1.0000
  S   S18       1.0  0.29999  0.16577  0.74443  1.0000
  H   H48       1.0  0.25685  0.36312  0.74133  1.0000
  C   C58       1.0  0.06729  0.24964  0.83540  1.0000
  C   C59       1.0  0.23061  0.44765  0.80050  1.0000
  H   H49       1.0  0.98966  0.36332  0.79377  1.0000
  C   C60       1.0  0.23091  0.41608  0.79575  1.0000
  H   H50       1.0  0.10053  0.46918  0.73589  1.0000
  H   H51       1.0  0.22274  0.23367  0.79909  1.0000
  C   C61       1.0  0.25651  0.20426  0.77410  1.0000
  H   H52       1.0  0.30324  0.22442  0.70447  1.0000
  H   H53       1.0  0.08818  0.45257  0.79824  1.0000
  C   C62       1.0  0.16943  0.46526  0.71781  1.0000
  H   H54       1.0  0.10189  0.25944  0.87497  1.0000
  C   C63       1.0  0.24254  0.42233  0.73326  1.0000
  H   H55       1.0  0.25114  0.18511  0.79150  1.0000
  C   C64       1.0  0.23626  0.46669  0.77089  1.0000
  C   C65       1.0  0.07974  0.26563  0.86441  1.0000
  H   H56       1.0  0.07363  0.30297  0.90130  1.0000
  C   C66       1.0  0.06380  0.29006  0.87925  1.0000
  C   C67       1.0  0.02677  0.23974  0.79205  1.0000
  H   H57       1.0  0.24549  0.46873  0.71359  1.0000
  H   H58       1.0  0.02288  0.21583  0.80066  1.0000
  H   H59       1.0  0.00486  0.24933  0.78240  1.0000
  C   C68       1.0  0.09033  0.48533  0.75450  1.0000
  H   H60       1.0  0.12139  0.27573  0.99107  1.0000
  H   H61       1.0  0.22455  0.45722  0.82662  1.0000
  H   H62       1.0  0.32009  0.08116  0.50997  1.0000
  Fe  Fe9       1.0  0.17311  0.64989  0.30244  1.0000
  S   S19       1.0  0.18557  0.61055  0.33935  1.0000
  S   S20       1.0  0.20160  0.69418  0.29803  1.0000
  Fe  Fe10      1.0  0.11093  0.62051  0.28386  1.0000
  S   S21       1.0  0.11938  0.57999  0.31957  1.0000
  S   S22       1.0  0.07206  0.62041  0.24297  1.0000
  Fe  Fe11      1.0  0.13749  0.61342  0.36057  1.0000
  S   S23       1.0  0.12111  0.60379  0.41872  1.0000
  Fe  Fe12      1.0  0.16630  0.58004  0.29587  1.0000
  S   S24       1.0  0.19028  0.53670  0.27695  1.0000
  S   S25       1.0  0.12546  0.65426  0.32620  1.0000
  S   S26       1.0  0.15750  0.61911  0.25766  1.0000
  C   C69       1.0  0.01347  0.62216  0.21818  1.0000
  H   H63       1.0  0.05961  0.69139  0.23582  1.0000
  H   H64       1.0  0.99271  0.57431  0.27801  1.0000
  H   H65       1.0  0.12567  0.51984  0.39608  1.0000
  H   H66       1.0  0.14311  0.67720  0.17919  1.0000
  H   H67       1.0  0.09233  0.64498  0.17122  1.0000
  C   C70       1.0  0.08357  0.66856  0.17453  1.0000
  C   C71       1.0  0.14906  0.52737  0.39838  1.0000
  C   C72       1.0  0.14054  0.49762  0.27279  1.0000
  S   S27       1.0  0.30155  0.75901  0.19472  1.0000
  H   H68       1.0  0.02315  0.61381  0.19310  1.0000
  C   C73       1.0  0.98823  0.64396  0.28243  1.0000
  C   C74       1.0  0.01978  0.63829  0.28018  1.0000
  C   C75       1.0  0.03253  0.62733  0.24799  1.0000
  H   H69       1.0  0.08712  0.71657  0.28559  1.0000
  H   H70       1.0  0.03417  0.64249  0.30328  1.0000
  H   H71       1.0  0.05878  0.66657  0.18025  1.0000
  H   H72       1.0  0.17133  0.70255  0.22838  1.0000
  H   H73       1.0  0.16173  0.51335  0.34446  1.0000
  C   C76       1.0  0.08404  0.69450  0.23355  1.0000
  N   N6        1.0  0.18808  0.55243  0.43241  1.0000
  C   C77       1.0  0.15903  0.54148  0.43005  1.0000
  C   C78       1.0  0.22958  0.71153  0.26891  1.0000
  C   C79       1.0  0.24061  0.69756  0.23740  1.0000
  C   C80       1.0  0.26240  0.71249  0.21517  1.0000
  C   C81       1.0  0.27362  0.74161  0.22391  1.0000
  C   C82       1.0  0.26256  0.75560  0.25537  1.0000
  C   C83       1.0  0.24077  0.74067  0.27760  1.0000
  H   H74       1.0  0.23245  0.67518  0.23021  1.0000
  H   H75       1.0  0.27068  0.70129  0.19100  1.0000
  H   H76       1.0  0.27065  0.77799  0.26256  1.0000
  H   H77       1.0  0.23244  0.75184  0.30177  1.0000
  C   C84       1.0  0.13429  0.61482  0.46231  1.0000
  C   C85       1.0  0.15833  0.63524  0.46694  1.0000
  H   H78       1.0  0.14294  0.54471  0.45212  1.0000
  H   H79       1.0  0.16904  0.64557  0.44346  1.0000
  N   N7        1.0  0.27818  0.96318  0.27313  1.0000
  H   H80       1.0  0.14337  0.72238  0.28187  1.0000
  C   C86       1.0  0.19832  0.56777  0.46535  1.0000
  H   H81       1.0  0.30499  0.78708  0.09643  1.0000
  C   C87       1.0  0.14672  0.70071  0.22977  1.0000
  C   C88       1.0  0.17157  0.50200  0.26590  1.0000
  H   H82       1.0  0.23078  0.55845  0.40554  1.0000
  C   C89       1.0  0.26704  0.96904  0.23929  1.0000
  N   N8        1.0  0.09969  0.68361  0.20413  1.0000
  C   C90       1.0  0.28348  0.93166  0.28462  1.0000
  C   C91       1.0  0.13099  0.71190  0.25981  1.0000
  H   H83       1.0  0.08673  0.68144  0.14887  1.0000
  C   C92       1.0  0.20791  0.54936  0.40393  1.0000
  C   C93       1.0  0.09945  0.70872  0.26186  1.0000
  C   C94       1.0  0.19884  0.53493  0.37209  1.0000
  C   C95       1.0  0.28347  0.98651  0.29671  1.0000
  C   C96       1.0  0.30241  0.77343  0.02762  1.0000
  H   H84       1.0  0.12709  0.51597  0.28394  1.0000
  H   H85       1.0  0.29304  0.98202  0.32320  1.0000
  H   H86       1.0  0.28121  0.78224  0.03845  1.0000
  C   C97       1.0  0.13064  0.68643  0.20208  1.0000
  H   H87       1.0  0.26348  0.95057  0.22032  1.0000
  H   H88       1.0  0.10189  0.58606  0.49013  1.0000
  H   H89       1.0  0.26269  0.92227  0.29765  1.0000
  C   C98       1.0  0.16919  0.52398  0.36933  1.0000
  H   H90       1.0  0.00562  0.55069  0.22330  1.0000
  H   H91       1.0  0.30276  0.93029  0.30389  1.0000
  H   H92       1.0  0.28988  0.91714  0.26111  1.0000
  H   H93       1.0  0.31456  0.74735  0.10182  1.0000
  H   H94       1.0  0.21443  0.53284  0.34927  1.0000
  H   H95       1.0  0.21767  0.55525  0.47752  1.0000
  H   H96       1.0  0.20550  0.59141  0.45878  1.0000
  H   H97       1.0  0.17995  0.56936  0.48613  1.0000
  Fe  Fe13      1.0  0.16462  0.57371  0.69216  1.0000
  S   S28       1.0  0.14364  0.60174  0.73667  1.0000
  S   S29       1.0  0.17945  0.52375  0.69401  1.0000
  Fe  Fe14      1.0  0.15500  0.62361  0.63413  1.0000
  S   S30       1.0  0.13209  0.65466  0.67472  1.0000
  S   S31       1.0  0.16875  0.63940  0.57678  1.0000
  Fe  Fe15      1.0  0.17031  0.64147  0.71257  1.0000
  S   S32       1.0  0.19169  0.67982  0.74686  1.0000
  Fe  Fe16      1.0  0.10738  0.61310  0.69593  1.0000
  S   S33       1.0  0.05680  0.60203  0.70546  1.0000
  S   S34       1.0  0.19407  0.61226  0.67121  1.0000
  S   S35       1.0  0.12755  0.58332  0.65211  1.0000
  H   H98       1.0  0.15510  0.48792  0.81758  1.0000
  N   N9        1.0  0.08550  0.51485  0.74410  1.0000
  H   H99       1.0  0.26933  0.70149  0.62480  1.0000
  H   H100      1.0  0.18699  0.65840  0.50533  1.0000
  C   C99       1.0  0.06623  0.52666  0.80344  1.0000
  C   C100      1.0  0.29519  0.91506  0.83237  1.0000
  H   H101      1.0  0.11997  0.59872  0.55194  1.0000
  H   H102      1.0  0.30141  0.87674  0.86844  1.0000
  C   C101      1.0  0.16849  0.64244  0.50212  1.0000
  H   H103      1.0  0.28450  0.94483  0.77058  1.0000
  S   S36       1.0  0.31688  0.82802  0.81383  1.0000
  H   H104      1.0  0.26694  0.96893  0.80455  1.0000
  C   C102      1.0  0.09466  0.52519  0.70789  1.0000
  H   H105      1.0  0.07029  0.55897  0.75990  1.0000
  C   C103      1.0  0.02707  0.61645  0.73376  1.0000
  C   C104      1.0  0.03097  0.64149  0.75656  1.0000
  H   H106      1.0  0.05278  0.65286  0.75742  1.0000
  C   C105      1.0  0.22125  0.69218  0.62222  1.0000
  H   H107      1.0  0.99507  0.58271  0.71560  1.0000
  H   H108      1.0  0.30257  0.97950  0.78335  1.0000
  C   C106      1.0  0.28889  0.96008  0.79396  1.0000
  H   H109      1.0  0.30135  0.69551  0.71886  1.0000
  H   H110      1.0  0.16408  0.52800  0.77103  1.0000
  C   C107      1.0  0.22871  0.69625  0.75239  1.0000
  C   C108      1.0  0.23235  0.72048  0.77693  1.0000
  C   C109      1.0  0.26041  0.73604  0.78011  1.0000
  C   C110      1.0  0.28552  0.72742  0.75898  1.0000
  C   C111      1.0  0.28211  0.70266  0.73514  1.0000
  C   C112      1.0  0.25400  0.68720  0.73183  1.0000
  H   H111      1.0  0.21312  0.72763  0.79324  1.0000
  H   H112      1.0  0.26254  0.75481  0.79877  1.0000
  C   C113      1.0  0.16379  0.50428  0.76329  1.0000
  H   H113      1.0  0.25181  0.66854  0.71301  1.0000
  C   C114      1.0  0.00648  0.65206  0.77812  1.0000
  C   C115      1.0  0.15482  0.62938  0.53313  1.0000
  C   C116      1.0  0.13082  0.60889  0.52845  1.0000
  C   C117      1.0  0.19008  0.72137  0.66336  1.0000
  C   C118      1.0  0.12061  0.60177  0.49330  1.0000
  C   C119      1.0  0.24692  0.70720  0.63516  1.0000
  C   C120      1.0  0.07125  0.49663  0.81437  1.0000
  N   N10       1.0  0.21532  0.73603  0.67588  1.0000
  C   C121      1.0  0.19265  0.69953  0.63611  1.0000
  C   C122      1.0  0.24347  0.72951  0.66185  1.0000
  C   C123      1.0  0.21177  0.75977  0.70334  1.0000
  H   H114      1.0  0.16781  0.72622  0.67478  1.0000
  H   H115      1.0  0.23366  0.76467  0.71707  1.0000
  H   H116      1.0  0.26355  0.74096  0.67198  1.0000
  H   H117      1.0  0.22336  0.67476  0.60155  1.0000
  H   H118      1.0  0.19548  0.75220  0.72477  1.0000
  H   H119      1.0  0.27667  0.90430  0.81800  1.0000
  C   C124      1.0  0.07369  0.53546  0.76803  1.0000
  H   H120      1.0  0.20327  0.78101  0.69064  1.0000
  C   C125      1.0  0.99844  0.60207  0.73312  1.0000
  H   H121      1.0  0.05697  0.54319  0.82229  1.0000
  H   H122      1.0  0.00976  0.67155  0.79546  1.0000
  N   N11       1.0  0.30499  0.94348  0.82252  1.0000
  C   C126      1.0  0.16956  0.49624  0.72730  1.0000
  H   H123      1.0  0.07622  0.53881  0.69520  1.0000
  H   H124      1.0  0.17258  0.68819  0.62596  1.0000
  H   H125      1.0  0.23485  0.49122  0.77385  1.0000
  H   H126      1.0  0.10025  0.50599  0.68955  1.0000
  C   C127      1.0  0.30925  0.89925  0.86061  1.0000
  H   H127      1.0  0.11524  0.53963  0.71007  1.0000
  H   H128      1.0  0.31076  0.85006  0.98805  1.0000
  H   H129      1.0  0.06613  0.48960  0.84195  1.0000
  H   H130      1.0  0.28778  0.77770  0.97195  1.0000
  H   H131      1.0  0.31974  0.94937  0.70522  1.0000
  C   C128      1.0  0.30583  0.77065  0.99004  1.0000
  Fe  Fe17      1.0  0.36466  0.12471  0.36265  1.0000
  S   S37       1.0  0.36135  0.16111  0.31953  1.0000
  S   S38       1.0  0.65363  0.10097  0.24552  1.0000
  Fe  Fe18      1.0  0.35530  0.07356  0.30681  1.0000
  S   S39       1.0  0.35095  0.10627  0.26002  1.0000
  S   S40       1.0  0.35588  0.02152  0.30785  1.0000
  Fe  Fe19      1.0  0.39092  0.13033  0.28536  1.0000
  S   S41       1.0  0.43067  0.15096  0.25347  1.0000
  H   H132      1.0  0.49204  0.07220  0.18976  1.0000
  S   S42       1.0  0.39695  0.09609  0.32976  1.0000
  C   C129      1.0  0.51034  0.15045  0.33368  1.0000
  S   S43       1.0  0.61891  0.07796  0.17240  1.0000
  Fe  Fe20      1.0  0.60824  0.10879  0.21911  1.0000
  S   S44       1.0  0.56561  0.09759  0.25246  1.0000
  C   C130      1.0  0.45823  0.10487  0.39331  1.0000
  C   C131      1.0  0.46792  0.13547  0.25247  1.0000
  C   C132      1.0  0.47469  0.10768  0.26908  1.0000
  C   C133      1.0  0.50471  0.09647  0.26858  1.0000
  C   C134      1.0  0.52826  0.11274  0.25128  1.0000
  C   C135      1.0  0.52151  0.14050  0.23450  1.0000
  C   C136      1.0  0.49146  0.15180  0.23515  1.0000
  H   H133      1.0  0.45683  0.09484  0.28241  1.0000
  H   H134      1.0  0.50972  0.07498  0.28164  1.0000
  H   H135      1.0  0.53945  0.15332  0.22127  1.0000
  H   H136      1.0  0.48643  0.17339  0.22234  1.0000
  C   C137      1.0  0.36921  0.12735  0.46352  1.0000
  H   H137      1.0  0.55284  0.14540  0.07955  1.0000
  C   C138      1.0  0.34639  0.10574  0.46971  1.0000
  H   H138      1.0  0.48718  0.15543  0.12913  1.0000
  C   C139      1.0  0.54650  0.10809  0.13969  1.0000
  H   H139      1.0  0.53025  0.17536  0.09941  1.0000
  S   S45       1.0  0.37858  0.14096  0.41920  1.0000
  C   C140      1.0  0.34286  0.00195  0.23787  1.0000
  H   H140      1.0  0.33780  0.02541  0.23137  1.0000
  C   C141      1.0  0.49903  0.12792  0.35701  1.0000
  H   H141      1.0  0.45300  0.08436  0.37700  1.0000
  H   H142      1.0  0.47526  0.09890  0.41426  1.0000
  H   H143      1.0  0.43711  0.11183  0.40788  1.0000
  H   H144      1.0  0.44578  0.19232  0.32540  1.0000
  C   C142      1.0  0.53307  0.08592  0.16189  1.0000
  N   N12       1.0  0.46969  0.12920  0.36960  1.0000
  H   H145      1.0  0.51373  0.10913  0.36448  1.0000
  C   C143      1.0  0.49125  0.17407  0.32274  1.0000
  C   C144      1.0  0.48587  0.11382  0.15962  1.0000
  H   H146      1.0  0.42721  0.15270  0.36767  1.0000
  C   C145      1.0  0.45073  0.15211  0.35866  1.0000
  C   C146      1.0  0.46120  0.17485  0.33509  1.0000
  H   H147      1.0  0.57019  0.10570  0.13185  1.0000
  C   C147      1.0  0.50017  0.13579  0.13785  1.0000
  N   N13       1.0  0.53016  0.13273  0.12824  1.0000
  H   H148      1.0  0.49936  0.19105  0.30358  1.0000
  H   H149      1.0  0.54648  0.06703  0.17205  1.0000
  H   H150      1.0  0.53339  0.14895  0.32303  1.0000
  H   H151      1.0  0.56582  0.16454  0.11950  1.0000
  C   C148      1.0  0.50253  0.08882  0.17180  1.0000
  C   C149      1.0  0.54526  0.15573  0.10557  1.0000
  H   H152      1.0  0.46232  0.11667  0.16807  1.0000
  C   C150      1.0  0.63368  0.12407  0.04290  1.0000
  S   S46       1.0  0.62426  0.15095  0.19003  1.0000
  C   C151      1.0  0.35394  0.99446  0.27221  1.0000
  C   C152      1.0  0.61501  0.13043  0.01291  1.0000
  Fe  Fe21      1.0  0.63796  0.11938  0.14422  1.0000
  H   H153      1.0  0.33494  0.09547  0.44699  1.0000
  S   S47       1.0  0.61880  0.12967  0.08761  1.0000
  H   H154      1.0  0.59202  0.13836  0.01742  1.0000
  H   H155      1.0  0.34633  0.19128  0.46176  1.0000
  H   H156      1.0  0.64683  0.02523  0.26288  1.0000
  S   S48       1.0  0.32321  0.10002  0.34297  1.0000
  H   H157      1.0  0.40139  0.15720  0.48927  1.0000
  Fe  Fe22      1.0  0.32165  0.13488  0.29750  1.0000
  H   H158      1.0  0.32437  0.20537  0.40111  1.0000
  C   C153      1.0  0.32234  0.18641  0.46960  1.0000
  H   H159      1.0  0.32316  0.17035  0.49297  1.0000
  Fe  Fe23      1.0  0.36938  0.07721  0.71010  1.0000
  S   S49       1.0  0.37753  0.12155  0.73896  1.0000
  S   S50       1.0  0.38319  0.03588  0.74471  1.0000
  Fe  Fe24      1.0  0.35622  0.11102  0.63788  1.0000
  S   S51       1.0  0.36435  0.15738  0.66232  1.0000
  S   S52       1.0  0.33973  0.10062  0.58011  1.0000
  Fe  Fe25      1.0  0.40445  0.13478  0.68983  1.0000
  S   S53       1.0  0.45193  0.15545  0.69283  1.0000
  H   H160      1.0  0.47274  0.08484  0.66937  1.0000
  S   S54       1.0  0.39836  0.08999  0.66186  1.0000
  Fe  Fe26      1.0  0.33651  0.14065  0.71009  1.0000
  S   S55       1.0  0.62359  0.07968  0.84239  1.0000
  Fe  Fe27      1.0  0.60074  0.11823  0.81217  1.0000
  S   S56       1.0  0.54883  0.11389  0.81104  1.0000
  H   H161      1.0  0.56718  0.09050  0.73021  1.0000
  C   C154      1.0  0.47856  0.14469  0.72644  1.0000
  C   C155      1.0  0.50919  0.15346  0.72263  1.0000
  C   C156      1.0  0.53103  0.14469  0.74850  1.0000
  C   C157      1.0  0.52229  0.12740  0.77872  1.0000
  C   C158      1.0  0.49152  0.11929  0.78291  1.0000
  C   C159      1.0  0.46981  0.12765  0.75683  1.0000
  H   H162      1.0  0.51617  0.16684  0.69935  1.0000
  H   H163      1.0  0.55460  0.15129  0.74504  1.0000
  H   H164      1.0  0.48453  0.10592  0.80619  1.0000
  H   H165      1.0  0.44636  0.12069  0.76013  1.0000
  C   C160      1.0  0.37552  0.13214  0.52939  1.0000
  C   C161      1.0  0.35237  0.11086  0.53563  1.0000
  N   N14       1.0  0.52633  0.06448  0.73033  1.0000
  C   C162      1.0  0.33795  0.09772  0.50550  1.0000
  H   H166      1.0  0.40570  0.24622  0.71633  1.0000
  C   C163      1.0  0.37068  0.99739  0.74425  1.0000
  H   H167      1.0  0.51805  0.04010  0.77951  1.0000
  H   H168      1.0  0.38723  0.16286  0.83683  1.0000
  H   H169      1.0  0.61122  0.13204  0.95436  1.0000
  H   H170      1.0  0.34755  0.21099  0.74776  1.0000
  N   N15       1.0  0.39583  0.20596  0.74589  1.0000
  C   C164      1.0  0.36412  0.18690  0.79416  1.0000
  H   H171      1.0  0.43863  0.17093  0.80944  1.0000
  S   S57       1.0  0.62764  0.15470  0.84078  1.0000
  C   C165      1.0  0.62584  0.12686  0.97700  1.0000
  C   C166      1.0  0.50837  0.04924  0.75483  1.0000
  H   H172      1.0  0.44356  0.19867  0.75135  1.0000
  H   H173      1.0  0.38681  0.14251  0.55217  1.0000
  H   H174      1.0  0.43999  0.05674  0.71329  1.0000
  H   H175      1.0  0.56530  0.06241  0.76489  1.0000
  H   H176      1.0  0.37766  0.22182  0.69563  1.0000
  C   C167      1.0  0.62987  0.99758  0.75896  1.0000
  C   C168      1.0  0.48273  0.07412  0.69302  1.0000
  C   C169      1.0  0.38974  0.17542  0.81164  1.0000
  C   C170      1.0  0.41850  0.17988  0.79627  1.0000
  C   C171      1.0  0.42115  0.19549  0.76330  1.0000
  H   H177      1.0  0.41685  0.21126  0.69411  1.0000
  H   H178      1.0  0.57169  0.05071  0.71861  1.0000
  C   C172      1.0  0.39915  0.22224  0.71135  1.0000
  H   H179      1.0  0.52800  0.08944  0.68069  1.0000
  C   C173      1.0  0.36764  0.20239  0.76124  1.0000
  C   C174      1.0  0.51392  0.07678  0.69970  1.0000
  C   C175      1.0  0.55922  0.06698  0.73619  1.0000
  C   C176      1.0  0.47708  0.04610  0.74894  1.0000
  H   H180      1.0  0.46261  0.03460  0.76861  1.0000
  H   H181      1.0  0.61511  0.01602  0.76722  1.0000
  C   C177      1.0  0.46428  0.05859  0.71780  1.0000
  S   S58       1.0  0.63266  0.11597  0.76429  1.0000
  H   H182      1.0  0.63286  0.00379  0.90876  1.0000
  H   H183      1.0  0.34150  0.18328  0.80543  1.0000
  S   S59       1.0  0.32630  0.09499  0.68466  1.0000
  Fe  Fe28      1.0  0.65242  0.11601  0.86790  1.0000
  H   H184      1.0  0.33748  0.00303  0.70226  1.0000
  C   C178      1.0  0.65402  0.01101  0.89613  1.0000
  C   C179      1.0  0.38379  0.14035  0.49359  1.0000
  S   S60       1.0  0.38034  0.79099  0.17283  1.0000
  S   S61       1.0  0.39375  0.86418  0.16732  1.0000
  Fe  Fe29      1.0  0.39648  0.82784  0.21014  1.0000
  S   S62       1.0  0.43387  0.82561  0.25297  1.0000
  Fe  Fe30      1.0  0.61418  0.81409  0.28464  1.0000
  S   S63       1.0  0.60835  0.84676  0.33048  1.0000
  S   S64       1.0  0.57720  0.80192  0.24387  1.0000
  H   H185      1.0  0.35936  0.78075  0.31408  1.0000
  N   N16       1.0  0.41155  0.74760  0.25916  1.0000
  C   C180      1.0  0.59991  0.87518  0.20817  1.0000
  Fe  Fe31      1.0  0.34594  0.87090  0.18783  1.0000
  H   H186      1.0  0.40175  0.71737  0.21576  1.0000
  C   C181      1.0  0.39262  0.73071  0.23796  1.0000
  C   C182      1.0  0.39223  0.81837  0.99893  1.0000
  C   C183      1.0  0.35473  0.94070  0.25458  1.0000
  H   H187      1.0  0.44864  0.75990  0.22536  1.0000
  H   H188      1.0  0.62674  0.89056  0.16263  1.0000
  S   S65       1.0  0.64153  0.78084  0.31804  1.0000
  C   C184      1.0  0.61437  0.92747  0.19810  1.0000
  C   C185      1.0  0.34607  0.83799  0.02589  1.0000
  C   C186      1.0  0.39990  0.76518  0.28647  1.0000
  C   C187      1.0  0.47403  0.82151  0.24881  1.0000
  C   C188      1.0  0.48811  0.81290  0.21633  1.0000
  C   C189      1.0  0.51971  0.80722  0.21527  1.0000
  C   C190      1.0  0.53769  0.81054  0.24641  1.0000
  C   C191      1.0  0.52373  0.81988  0.27866  1.0000
  C   C192      1.0  0.49205  0.82504  0.27987  1.0000
  H   H189      1.0  0.47461  0.81007  0.19220  1.0000
  H   H190      1.0  0.53028  0.80005  0.19017  1.0000
  H   H191      1.0  0.53717  0.82238  0.30289  1.0000
  H   H192      1.0  0.48140  0.83156  0.30518  1.0000
  C   C193      1.0  0.37536  0.82608  0.03015  1.0000
  C   C194      1.0  0.34168  0.94794  0.22120  1.0000
  H   H193      1.0  0.60408  0.78618  0.49154  1.0000
  H   H194      1.0  0.63315  0.98416  0.30643  1.0000
  S   S66       1.0  0.34909  0.83598  0.23260  1.0000
  C   C195      1.0  0.36041  0.96379  0.28007  1.0000
  C   C196      1.0  0.61482  0.89712  0.18720  1.0000
  H   H195      1.0  0.41478  0.77924  0.30272  1.0000
  C   C197      1.0  0.33646  0.97875  0.21269  1.0000
  H   H196      1.0  0.35892  0.91714  0.26154  1.0000
  H   H197      1.0  0.45743  0.75952  0.27263  1.0000
  Fe  Fe32      1.0  0.63912  0.81598  0.36264  1.0000
  C   C198      1.0  0.36855  0.76618  0.29305  1.0000
  H   H198      1.0  0.45311  0.72404  0.24923  1.0000
  Fe  Fe33      1.0  0.37374  0.82813  0.13113  1.0000
  S   S67       1.0  0.32677  0.91923  0.19248  1.0000
  H   H199      1.0  0.59995  0.85148  0.19995  1.0000
  H   H200      1.0  0.36912  0.95773  0.30648  1.0000
  S   S68       1.0  0.62685  0.79990  0.42020  1.0000
  S   S69       1.0  0.39094  0.81781  0.07357  1.0000
  N   N17       1.0  0.58568  0.91351  0.25127  1.0000
  C   C199      1.0  0.58532  0.88385  0.24029  1.0000
  H   H201      1.0  0.34369  0.77635  0.10236  1.0000
  Fe  Fe34      1.0  0.65126  0.86885  0.30930  1.0000
  N   N18       1.0  0.32585  0.76614  0.05027  1.0000
  C   C200      1.0  0.34913  0.74882  0.27174  1.0000
  C   C201      1.0  0.57036  0.92208  0.28510  1.0000
  H   H202      1.0  0.59920  0.95896  0.23860  1.0000
  C   C202      1.0  0.36119  0.73086  0.24410  1.0000
  Fe  Fe35      1.0  0.33254  0.80160  0.19183  1.0000
  H   H203      1.0  0.37146  0.75003  0.05443  1.0000
  S   S70       1.0  0.32554  0.83727  0.14834  1.0000
  H   H204      1.0  0.57239  0.90362  0.30563  1.0000
  H   H205      1.0  0.58124  0.94245  0.29725  1.0000
  H   H206      1.0  0.54594  0.92674  0.28001  1.0000
  C   C203      1.0  0.59924  0.93536  0.23016  1.0000
  H   H207      1.0  0.57401  0.86662  0.25662  1.0000
  H   H208      1.0  0.33282  0.84411  0.04955  1.0000
  C   C204      1.0  0.44428  0.74764  0.25127  1.0000
  H   H209      1.0  0.34609  0.71780  0.22696  1.0000
  C   C205      1.0  0.63951  0.81129  0.46397  1.0000
  C   C206      1.0  0.35264  0.75513  0.03653  1.0000
  H   H210      1.0  0.62612  0.94476  0.18226  1.0000
  H   H211      1.0  0.32473  0.74962  0.27617  1.0000
  C   C207      1.0  0.32200  0.76926  0.08958  1.0000
  C   C208      1.0  0.64770  0.97906  0.28349  1.0000
  H   H212      1.0  0.41492  0.80918  0.00185  1.0000
  S   S71       1.0  0.64714  0.92077  0.31032  1.0000
  H   H213      1.0  0.32647  0.98462  0.18691  1.0000
  C   C209      1.0  0.35676  0.75191  0.99911  1.0000
  H   H214      1.0  0.64840  0.69939  0.36738  1.0000
  S   S72       1.0  0.37473  0.78475  0.83736  1.0000
  S   S73       1.0  0.38272  0.85949  0.83165  1.0000
  Fe  Fe36      1.0  0.40447  0.81804  0.80632  1.0000
  S   S74       1.0  0.45651  0.82075  0.80700  1.0000
  H   H215      1.0  0.61949  0.91477  0.63807  1.0000
  S   S75       1.0  0.62996  0.82231  0.73780  1.0000
  C   C210      1.0  0.33781  0.95678  0.72286  1.0000
  C   C211      1.0  0.53544  0.87791  0.71781  1.0000
  S   S76       1.0  0.37408  0.81874  0.75763  1.0000
  Fe  Fe37      1.0  0.60548  0.80422  0.68954  1.0000
  S   S77       1.0  0.55842  0.78256  0.69182  1.0000
  C   C212      1.0  0.58692  0.73919  0.75827  1.0000
  S   S78       1.0  0.61087  0.84694  0.65692  1.0000
  N   N19       1.0  0.61356  0.73134  0.74136  1.0000
  H   H216      1.0  0.47382  0.84645  0.67785  1.0000
  C   C213      1.0  0.61249  0.71555  0.70650  1.0000
  H   H217      1.0  0.39293  0.81519  0.94035  1.0000
  C   C214      1.0  0.51831  0.86228  0.69224  1.0000
  H   H218      1.0  0.42778  0.88446  0.71524  1.0000
  C   C215      1.0  0.44000  0.86757  0.73222  1.0000
  C   C216      1.0  0.48961  0.88636  0.75279  1.0000
  C   C217      1.0  0.48434  0.80852  0.77517  1.0000
  C   C218      1.0  0.47695  0.79189  0.74422  1.0000
  C   C219      1.0  0.49992  0.78375  0.71915  1.0000
  C   C220      1.0  0.53032  0.79258  0.72443  1.0000
  C   C221      1.0  0.53769  0.80906  0.75546  1.0000
  C   C222      1.0  0.51486  0.81673  0.78079  1.0000
  H   H219      1.0  0.45361  0.78519  0.73969  1.0000
  H   H220      1.0  0.49401  0.77078  0.69537  1.0000
  H   H221      1.0  0.56094  0.81600  0.75995  1.0000
  H   H222      1.0  0.52080  0.82955  0.80468  1.0000
  C   C223      1.0  0.37393  0.94595  0.77020  1.0000
  H   H223      1.0  0.38387  0.93031  0.78948  1.0000
  H   H224      1.0  0.56523  0.73435  0.74565  1.0000
  Fe  Fe38      1.0  0.35112  0.82641  0.85940  1.0000
  H   H225      1.0  0.40161  0.98405  0.78651  1.0000
  Fe  Fe39      1.0  0.35074  0.85819  0.78478  1.0000
  C   C224      1.0  0.37982  0.82178  0.96395  1.0000
  H   H226      1.0  0.33675  0.97922  0.83215  1.0000
  C   C225      1.0  0.63078  0.91238  0.61198  1.0000
  C   C226      1.0  0.33372  0.91245  0.87849  1.0000
  H   H227      1.0  0.63503  0.71547  0.69266  1.0000
  C   C227      1.0  0.34369  0.94137  0.86816  1.0000
  H   H228      1.0  0.43273  0.84423  0.72468  1.0000
  C   C228      1.0  0.61498  0.76096  0.80774  1.0000
  H   H229      1.0  0.56597  0.76111  0.80435  1.0000
  C   C229      1.0  0.38385  0.97647  0.76855  1.0000
  C   C230      1.0  0.33363  0.84134  0.99092  1.0000
  C   C231      1.0  0.58720  0.75431  0.79154  1.0000
  H   H230      1.0  0.47868  0.89516  0.77702  1.0000
  N   N20       1.0  0.47300  0.87093  0.72760  1.0000
  C   C232      1.0  0.48689  0.85915  0.69748  1.0000
  C   C233      1.0  0.35024  0.83291  0.95975  1.0000
  C   C234      1.0  0.61361  0.90422  0.58175  1.0000
  S   S79       1.0  0.61900  0.91092  0.72194  1.0000
  H   H231      1.0  0.59298  0.96672  0.74751  1.0000
  H   H232      1.0  0.52946  0.85174  0.66915  1.0000
  C   C235      1.0  0.35053  0.93604  0.74766  1.0000
  H   H233      1.0  0.58944  0.89982  0.58446  1.0000
  C   C236      1.0  0.52105  0.89009  0.74828  1.0000
  Fe  Fe40      1.0  0.63766  0.86453  0.70410  1.0000
  H   H234      1.0  0.61524  0.89378  0.52467  1.0000
  H   H235      1.0  0.55992  0.87994  0.71449  1.0000
  Fe  Fe41      1.0  0.34215  0.78830  0.79001  1.0000
  C   C237      1.0  0.61741  0.96957  0.74779  1.0000
  H   H236      1.0  0.43289  0.87071  0.76095  1.0000
  H   H237      1.0  0.61560  0.77297  0.83333  1.0000
  H   H238      1.0  0.37848  0.74444  0.98823  1.0000
  H   H239      1.0  0.53435  0.90173  0.76862  1.0000
  C   C238      1.0  0.63625  0.94529  0.73690  1.0000
  H   H240      1.0  0.62110  0.79965  0.55355  1.0000
  C   C239      1.0  0.63347  0.80812  0.53018  1.0000
  S   S80       1.0  0.33215  0.83480  0.91671  1.0000
  S   S81       1.0  0.33448  0.89902  0.75155  1.0000
  H   H241      1.0  0.59628  0.72718  0.68799  1.0000
  S   S82       1.0  0.32128  0.74705  0.76025  1.0000
  H   H242      1.0  0.34502  0.90008  0.90012  1.0000
  H   H243      1.0  0.60502  0.69165  0.71065  1.0000
  C   C240      1.0  0.64090  0.73733  0.75734  1.0000
  C   C241      1.0  0.64202  0.75226  0.79070  1.0000
  C   C242      1.0  0.62384  0.80054  0.49489  1.0000
  S   S83       1.0  0.64731  0.78189  0.66511  1.0000
  H   H244      1.0  0.36288  0.95172  0.88169  1.0000
  C   C243      1.0  0.32880  0.95678  0.84015  1.0000
  C   C244      1.0  0.62801  0.90104  0.54817  1.0000
  H   H245      1.0  0.65322  0.97665  0.85452  1.0000
  C   C245      1.0  0.33325  0.75993  0.97577  1.0000
  H   H246      1.0  0.33658  0.75885  0.94662  1.0000
  C   C246      1.0  0.34777  0.98728  0.72117  1.0000
  Fe  Fe42      1.0  0.67101  0.14129  0.21315  1.0000
  H   H247      1.0  0.94800  0.31349  0.23890  1.0000
  S   S84       1.0  0.69781  0.17653  0.24707  1.0000
  C   C247      1.0  0.79691  0.39863  0.38813  1.0000
  C   C248      1.0  0.97166  0.31066  0.24606  1.0000
  H   H248      1.0  0.96657  0.24491  0.30632  1.0000
  H   H249      1.0  0.71462  0.03109  0.27288  1.0000
  S   S85       1.0  0.68557  0.11212  0.16559  1.0000
  H   H250      1.0  0.91277  0.25502  0.16302  1.0000
  Fe  Fe43      1.0  0.84907  0.31710  0.37455  1.0000
  S   S86       1.0  0.87125  0.28154  0.33941  1.0000
  S   S87       1.0  0.83125  0.30714  0.43206  1.0000
  Fe  Fe44      1.0  0.84838  0.36411  0.31209  1.0000
  S   S88       1.0  0.87034  0.33167  0.27246  1.0000
  S   S89       1.0  0.83319  0.41395  0.30742  1.0000
  Fe  Fe45      1.0  0.83842  0.29559  0.29567  1.0000
  S   S90       1.0  0.81876  0.25970  0.25646  1.0000
  Fe  Fe46      1.0  0.90133  0.31946  0.31853  1.0000
  S   S91       1.0  0.95319  0.31469  0.31823  1.0000
  S   S92       1.0  0.81433  0.32907  0.33192  1.0000
  S   S93       1.0  0.88127  0.35396  0.35703  1.0000
  C   C249      1.0  0.84564  0.31508  0.47617  1.0000
  C   C250      1.0  0.87349  0.32975  0.48155  1.0000
  H   H251      1.0  0.92813  0.25033  0.31949  1.0000
  H   H252      1.0  0.88745  0.33594  0.45844  1.0000
  C   C251      1.0  0.67459  0.99629  0.22935  1.0000
  C   C252      1.0  0.73128  0.20007  0.24846  1.0000
  C   C253      1.0  0.73683  0.21765  0.27961  1.0000
  C   C254      1.0  0.76310  0.23615  0.28251  1.0000
  C   C255      1.0  0.78455  0.23730  0.25428  1.0000
  C   C256      1.0  0.77907  0.21961  0.22317  1.0000
  C   C257      1.0  0.75267  0.20130  0.22016  1.0000
  H   H253      1.0  0.72058  0.21708  0.30174  1.0000
  H   H254      1.0  0.76679  0.24944  0.30667  1.0000
  H   H255      1.0  0.79526  0.22030  0.20100  1.0000
  H   H256      1.0  0.74881  0.18838  0.19577  1.0000
  C   C258      1.0  0.95662  0.24069  0.23668  1.0000
  C   C259      1.0  0.89657  0.25146  0.21807  1.0000
  H   H257      1.0  0.87291  0.25566  0.21127  1.0000
  Fe  Fe47      1.0  0.66495  0.07266  0.19700  1.0000
  H   H258      1.0  0.84551  0.37555  0.43198  1.0000
  C   C260      1.0  0.94912  0.24538  0.20031  1.0000
  C   C261      1.0  0.85895  0.43855  0.24435  1.0000
  C   C262      1.0  0.84238  0.44371  0.27623  1.0000
  C   C263      1.0  0.75483  0.35326  0.40302  1.0000
  C   C264      1.0  0.91890  0.25099  0.19105  1.0000
  H   H259      1.0  0.67812  0.10901  0.05905  1.0000
  H   H260      1.0  0.86690  0.41585  0.23822  1.0000
  C   C265      1.0  0.77333  0.39322  0.36374  1.0000
  H   H261      1.0  0.87690  0.45830  0.19497  1.0000
  C   C266      1.0  0.94300  0.23695  0.30104  1.0000
  H   H262      1.0  0.82984  0.41169  0.44630  1.0000
  H   H263      1.0  0.77216  0.40606  0.33858  1.0000
  S   S94       1.0  0.68689  0.02561  0.19934  1.0000
  H   H264      1.0  0.69777  0.05565  0.33008  1.0000
  N   N21       1.0  0.74046  0.10240  0.25681  1.0000
  C   C267      1.0  0.73132  0.11615  0.28824  1.0000
  C   C268      1.0  0.73425  0.07231  0.25103  1.0000
  C   C269      1.0  0.71590  0.09961  0.31510  1.0000
  C   C270      1.0  0.71939  0.05496  0.27761  1.0000
  C   C271      1.0  0.71000  0.06876  0.30972  1.0000
  C   C272      1.0  0.75544  0.12048  0.22842  1.0000
  H   H265      1.0  0.73547  0.14023  0.29242  1.0000
  H   H266      1.0  0.74038  0.06155  0.22558  1.0000
  H   H267      1.0  0.97567  0.38515  0.20737  1.0000
  H   H268      1.0  0.70820  0.11082  0.33962  1.0000
  H   H269      1.0  0.88720  0.24673  0.27480  1.0000
  H   H270      1.0  0.73797  0.13207  0.21172  1.0000
  H   H271      1.0  0.77030  0.13822  0.24038  1.0000
  H   H272      1.0  0.76980  0.10611  0.21048  1.0000
  H   H273      1.0  0.78085  0.34559  0.45117  1.0000
  H   H274      1.0  0.73913  0.33479  0.40870  1.0000
  H   H275      1.0  0.81381  0.41580  0.38147  1.0000
  C   C273      1.0  0.77850  0.35952  0.42699  1.0000
  N   N22       1.0  0.93467  0.24196  0.26310  1.0000
  C   C274      1.0  0.75226  0.37028  0.37120  1.0000
  N   N23       1.0  0.79916  0.38198  0.41936  1.0000
  C   C275      1.0  0.83201  0.47342  0.28348  1.0000
  H   H276      1.0  0.73446  0.36524  0.35193  1.0000
  H   H277      1.0  0.96629  0.38564  0.27394  1.0000
  C   C276      1.0  0.86457  0.46271  0.21986  1.0000
  C   C277      1.0  0.90486  0.24660  0.25413  1.0000
  H   H278      1.0  0.81904  0.47770  0.30793  1.0000
  C   C278      1.0  0.65536  0.00240  0.25877  1.0000
  H   H279      1.0  0.82081  0.37750  0.47091  1.0000
  H   H280      1.0  0.94105  0.21245  0.30804  1.0000
  C   C279      1.0  0.67429  0.11058  0.00053  1.0000
  H   H281      1.0  0.96680  0.24525  0.17962  1.0000
  C   C280      1.0  0.98007  0.31063  0.28251  1.0000
  C   C281      1.0  0.82506  0.38702  0.44337  1.0000
  C   C282      1.0  0.66339  0.11392  0.03643  1.0000
  H   H282      1.0  0.98028  0.23705  0.24372  1.0000
  H   H283      1.0  0.69745  0.10311  0.99601  1.0000
  H   H284      1.0  0.98722  0.30598  0.19068  1.0000
  Fe  Fe48      1.0  0.65691  0.07963  0.79613  1.0000
  C   C283      1.0  0.97584  0.33075  0.75359  1.0000
  H   H285      1.0  0.66124  0.04796  0.93345  1.0000
  C   C284      1.0  0.92844  0.39520  0.62878  1.0000
  S   S95       1.0  0.68098  0.19254  0.76592  1.0000
  C   C285      1.0  0.87199  0.46840  0.75329  1.0000
  H   H286      1.0  0.70868  0.06500  0.90347  1.0000
  S   S96       1.0  0.68807  0.11319  0.82351  1.0000
  C   C286      1.0  0.75902  0.27717  0.81263  1.0000
  Fe  Fe49      1.0  0.83299  0.36306  0.71435  1.0000
  S   S97       1.0  0.85005  0.32883  0.75446  1.0000
  S   S98       1.0  0.80654  0.40460  0.73371  1.0000
  Fe  Fe50      1.0  0.86187  0.32898  0.64968  1.0000
  S   S99       1.0  0.88125  0.29253  0.68640  1.0000
  S   S100      1.0  0.87985  0.33704  0.59167  1.0000
  Fe  Fe51      1.0  0.83494  0.29337  0.71441  1.0000
  S   S101      1.0  0.81396  0.24966  0.73891  1.0000
  Fe  Fe52      1.0  0.89442  0.33055  0.72380  1.0000
  S   S102      1.0  0.93733  0.34284  0.75548  1.0000
  S   S103      1.0  0.81490  0.32779  0.67549  1.0000
  S   S104      1.0  0.87764  0.36678  0.68607  1.0000
  C   C287      1.0  0.70862  0.25522  0.82466  1.0000
  C   C288      1.0  0.86585  0.32813  0.54763  1.0000
  C   C289      1.0  0.83796  0.31356  0.54222  1.0000
  C   C290      1.0  0.65568  0.11708  0.97054  1.0000
  H   H287      1.0  0.82415  0.30710  0.56536  1.0000
  C   C291      1.0  0.77690  0.23316  0.74382  1.0000
  C   C292      1.0  0.77350  0.20656  0.76494  1.0000
  C   C293      1.0  0.74460  0.19331  0.77116  1.0000
  C   C294      1.0  0.71849  0.20647  0.75629  1.0000
  C   C295      1.0  0.72190  0.23292  0.73488  1.0000
  C   C296      1.0  0.75083  0.24617  0.72865  1.0000
  H   H288      1.0  0.79343  0.19618  0.77678  1.0000
  H   H289      1.0  0.74250  0.17308  0.78777  1.0000
  H   H290      1.0  0.70196  0.24337  0.72317  1.0000
  H   H291      1.0  0.75293  0.26652  0.71225  1.0000
  H   H292      1.0  0.78419  0.46320  0.75691  1.0000
  C   C297      1.0  0.95797  0.35128  0.65025  1.0000
  H   H293      1.0  0.89655  0.46967  0.75241  1.0000
  H   H294      1.0  0.90670  0.45938  0.67326  1.0000
  C   C298      1.0  0.95067  0.39681  0.68719  1.0000
  C   C299      1.0  0.91433  0.42331  0.63474  1.0000
  C   C300      1.0  0.85743  0.44097  0.74408  1.0000
  C   C301      1.0  0.82568  0.43887  0.74525  1.0000
  C   C302      1.0  0.93681  0.42488  0.69410  1.0000
  H   H295      1.0  0.80248  0.29765  0.80016  1.0000
  S   S105      1.0  0.67850  0.03676  0.77183  1.0000
  H   H296      1.0  0.87077  0.42136  0.73633  1.0000
  H   H297      1.0  0.68847  0.24985  0.80777  1.0000
  N   N24       1.0  0.72834  0.27767  0.80670  1.0000
  C   C303      1.0  0.77805  0.29890  0.79645  1.0000
  C   C304      1.0  0.73420  0.32184  0.76859  1.0000
  C   C305      1.0  0.76553  0.32134  0.77426  1.0000
  H   H298      1.0  0.94324  0.33497  0.66541  1.0000
  H   H299      1.0  0.72438  0.33905  0.75109  1.0000
  H   H300      1.0  0.78010  0.33813  0.76115  1.0000
  C   C306      1.0  0.80875  0.46455  0.75597  1.0000
  H   H301      1.0  0.93956  0.43578  0.72018  1.0000
  H   H302      1.0  0.69150  0.30009  0.78044  1.0000
  H   H303      1.0  0.89943  0.43293  0.61439  1.0000
  H   H304      1.0  0.70081  0.26392  0.85132  1.0000
  H   H305      1.0  0.90510  0.34742  0.52075  1.0000
  H   H306      1.0  0.96419  0.38626  0.70823  1.0000
  H   H307      1.0  0.76913  0.25933  0.82896  1.0000
  H   H308      1.0  0.72073  0.23326  0.82874  1.0000
  C   C307      1.0  0.91837  0.43809  0.66775  1.0000
  H   H309      1.0  0.92406  0.38326  0.60368  1.0000
  C   C308      1.0  0.69668  0.04546  0.89279  1.0000
  N   N25       1.0  0.94614  0.38221  0.65501  1.0000
  H   H310      1.0  0.73835  0.06652  0.84863  1.0000
  C   C309      1.0  0.88345  0.33623  0.51701  1.0000
  C   C310      1.0  0.71580  0.29977  0.78525  1.0000
  H   H311      1.0  0.96968  0.29602  0.71342  1.0000
  Fe  Fe53      1.0  0.66181  0.14980  0.79481  1.0000
  H   H312      1.0  0.95817  0.34440  0.62129  1.0000
  N   N26       1.0  0.70721  0.03098  0.86249  1.0000
  C   C311      1.0  0.98576  0.30738  0.73081  1.0000
  H   H313      1.0  0.73380  0.03825  0.81473  1.0000
  C   C312      1.0  0.69249  0.00586  0.84964  1.0000
  C   C313      1.0  0.73509  0.04168  0.84453  1.0000
  H   H314      1.0  0.98154  0.34940  0.66072  1.0000
  H   H315      1.0  0.80641  0.29573  0.50304  1.0000
  H   H316      1.0  0.75507  0.02925  0.85529  1.0000
  H   H317      1.0  0.70106  0.99414  0.82587  1.0000
  S   S106      1.0  0.67115  0.11277  0.92591  1.0000
  C   C314      1.0  0.66140  0.00179  0.75890  1.0000
  C   C315      1.0  0.82796  0.30714  0.50675  1.0000
  C   C316      1.0  0.66989  0.03579  0.90998  1.0000
  C   C317      1.0  0.66543  0.99579  0.86584  1.0000
  S   S107      1.0  0.68167  0.84005  0.34469  1.0000
  S   S108      1.0  0.72935  0.78395  0.28585  1.0000
  C   C318      1.0  0.69270  0.69488  0.34241  1.0000
  Fe  Fe54      1.0  0.82427  0.63620  0.20364  1.0000
  S   S109      1.0  0.86529  0.66176  0.18298  1.0000
  S   S110      1.0  0.77762  0.65799  0.21733  1.0000
  Fe  Fe55      1.0  0.85668  0.57372  0.19451  1.0000
  S   S111      1.0  0.89943  0.59595  0.17305  1.0000
  S   S112      1.0  0.86127  0.52166  0.19447  1.0000
  Fe  Fe56      1.0  0.89286  0.62971  0.21761  1.0000
  S   S113      1.0  0.92938  0.64413  0.25773  1.0000
  Fe  Fe57      1.0  0.86849  0.62557  0.13960  1.0000
  S   S114      1.0  0.88220  0.63976  0.08174  1.0000
  S   S115      1.0  0.85160  0.60611  0.24126  1.0000
  S   S116      1.0  0.82602  0.60153  0.15808  1.0000
  C   C319      1.0  0.86964  0.62786  0.03817  1.0000
  C   C320      1.0  0.67824  0.73643  0.38148  1.0000
  C   C321      1.0  0.84428  0.60907  0.03357  1.0000
  H   H318      1.0  0.66113  0.74745  0.39824  1.0000
  H   H319      1.0  0.83256  0.60001  0.05712  1.0000
  C   C322      1.0  0.98192  0.62753  0.22056  1.0000
  Fe  Fe58      1.0  0.68283  0.80628  0.29824  1.0000
  H   H320      1.0  0.82933  0.52019  0.26492  1.0000
  H   H321      1.0  0.88489  0.54578  0.26291  1.0000
  C   C323      1.0  0.65850  0.94919  0.27868  1.0000
  C   C324      1.0  0.80353  0.68823  0.13248  1.0000
  C   C325      1.0  0.74211  0.74932  0.26509  1.0000
  C   C326      1.0  0.77359  0.74317  0.26341  1.0000
  C   C327      1.0  0.78490  0.71566  0.24870  1.0000
  C   C328      1.0  0.76486  0.69362  0.23554  1.0000
  C   C329      1.0  0.73338  0.69977  0.23717  1.0000
  C   C330      1.0  0.72207  0.72737  0.25168  1.0000
  H   H322      1.0  0.78942  0.75983  0.27368  1.0000
  H   H323      1.0  0.80914  0.71144  0.24786  1.0000
  H   H324      1.0  0.71755  0.68302  0.22710  1.0000
  H   H325      1.0  0.69783  0.73155  0.25272  1.0000
  H   H326      1.0  0.70059  0.96154  0.20206  1.0000
  N   N27       1.0  0.82496  0.69075  0.07250  1.0000
  C   C331      1.0  0.67093  0.70914  0.36420  1.0000
  C   C332      1.0  0.71366  0.77816  0.39446  1.0000
  H   H327      1.0  0.87031  0.70211  0.05794  1.0000
  H   H328      1.0  0.97852  0.65241  0.30745  1.0000
  H   H329      1.0  0.76725  0.65591  0.14042  1.0000
  H   H330      1.0  0.98000  0.52237  0.20614  1.0000
  H   H331      1.0  0.67750  0.83814  0.44546  1.0000
  H   H332      1.0  0.80329  0.69576  0.16047  1.0000
  C   C333      1.0  0.78323  0.66588  0.12120  1.0000
  C   C334      1.0  0.96920  0.56736  0.27489  1.0000
  C   C335      1.0  0.82455  0.70029  0.10772  1.0000
  H   H333      1.0  0.84152  0.72873  0.04267  1.0000
  H   H334      1.0  0.90423  0.65385  0.01022  1.0000
  C   C336      1.0  0.88455  0.63934  0.00709  1.0000
  H   H335      1.0  0.96749  0.62331  0.19749  1.0000
  C   C337      1.0  0.94812  0.57512  0.30187  1.0000
  C   C338      1.0  0.85401  0.49237  0.22698  1.0000
  H   H336      1.0  0.69278  0.79062  0.40296  1.0000
  C   C339      1.0  0.78391  0.65613  0.08530  1.0000
  C   C340      1.0  0.90859  0.55175  0.26668  1.0000
  C   C341      1.0  0.80485  0.66911  0.06105  1.0000
  H   H337      1.0  0.73849  0.69721  0.32116  1.0000
  H   H338      1.0  0.74994  0.74587  0.35137  1.0000
  H   H339      1.0  0.76852  0.63843  0.07640  1.0000
  H   H340      1.0  0.68726  0.67397  0.32832  1.0000
  C   C342      1.0  0.72148  0.70785  0.33844  1.0000
  H   H341      1.0  0.72646  0.79337  0.37560  1.0000
  C   C343      1.0  0.68553  0.96646  0.22459  1.0000
  C   C344      1.0  0.67729  0.94293  0.24889  1.0000
  C   C345      1.0  0.66510  0.82973  0.46884  1.0000
  C   C346      1.0  0.96911  0.63842  0.25275  1.0000
  H   H342      1.0  0.84078  0.71709  0.11694  1.0000
  C   C347      1.0  0.84688  0.70433  0.04705  1.0000
  H   H343      1.0  0.68580  0.92009  0.24486  1.0000
  H   H344      1.0  0.92277  0.53320  0.21564  1.0000
  C   C348      1.0  0.83789  0.49764  0.25916  1.0000
  H   H345      1.0  0.84684  0.69262  0.02041  1.0000
  H   H346      1.0  0.80529  0.66131  0.03321  1.0000
  C   C349      1.0  0.91760  0.56741  0.29755  1.0000
  H   H347      1.0  0.72758  0.77367  0.41885  1.0000
  C   C350      1.0  0.72787  0.73534  0.35573  1.0000
  H   H348      1.0  0.95524  0.58812  0.32524  1.0000
  N   N28       1.0  0.70624  0.74946  0.37651  1.0000
  N   N29       1.0  0.96001  0.55258  0.24430  1.0000
  C   C351      1.0  0.93018  0.54463  0.24005  1.0000
  H   H349      1.0  0.90084  0.57410  0.31769  1.0000
  H   H350      1.0  0.97673  0.56159  0.19150  1.0000
  S   S117      1.0  0.65581  0.83750  0.26158  1.0000
  C   C352      1.0  0.98174  0.54645  0.21492  1.0000
  C   C353      1.0  0.83353  0.60268  0.99842  1.0000
  H   H351      1.0  0.81352  0.58864  0.99533  1.0000
  C   C354      1.0  0.80783  0.53010  0.89132  1.0000
  S   S118      1.0  0.70765  0.77980  0.74929  1.0000
  S   S119      1.0  0.68211  0.84718  0.68148  1.0000
  Fe  Fe59      1.0  0.89955  0.63224  0.80996  1.0000
  S   S120      1.0  0.87175  0.61625  0.76305  1.0000
  S   S121      1.0  0.94743  0.65245  0.80438  1.0000
  Fe  Fe60      1.0  0.85057  0.61376  0.86568  1.0000
  S   S122      1.0  0.81989  0.59516  0.82189  1.0000
  S   S123      1.0  0.83272  0.60656  0.92386  1.0000
  Fe  Fe61      1.0  0.86217  0.57475  0.79723  1.0000
  S   S124      1.0  0.87521  0.52774  0.77546  1.0000
  Fe  Fe62      1.0  0.83124  0.63832  0.79090  1.0000
  S   S125      1.0  0.79594  0.66238  0.75413  1.0000
  S   S126      1.0  0.89185  0.59006  0.84320  1.0000
  S   S127      1.0  0.85999  0.65779  0.83570  1.0000
  C   C355      1.0  0.85512  0.49410  0.76383  1.0000
  C   C356      1.0  0.84825  0.61446  0.96736  1.0000
  C   C357      1.0  0.66781  0.94931  0.73753  1.0000
  H   H352      1.0  0.88569  0.64184  0.94842  1.0000
  C   C358      1.0  0.90384  0.52076  0.89624  1.0000
  Fe  Fe63      1.0  0.67268  0.80306  0.71158  1.0000
  H   H353      1.0  0.79661  0.50982  0.90341  1.0000
  C   C359      1.0  0.65917  0.90652  0.54509  1.0000
  H   H354      1.0  0.92783  0.71168  0.77555  1.0000
  N   N30       1.0  0.84096  0.52677  0.89308  1.0000
  H   H355      1.0  0.81004  0.51165  0.77316  1.0000
  C   C360      1.0  0.73211  0.74700  0.74976  1.0000
  C   C361      1.0  0.73352  0.72616  0.72118  1.0000
  C   C362      1.0  0.75298  0.70051  0.72320  1.0000
  C   C363      1.0  0.77137  0.69508  0.75374  1.0000
  C   C364      1.0  0.77001  0.71595  0.78227  1.0000
  C   C365      1.0  0.75052  0.74159  0.78027  1.0000
  H   H356      1.0  0.71973  0.72984  0.69742  1.0000
  H   H357      1.0  0.75375  0.68467  0.70086  1.0000
  H   H358      1.0  0.78388  0.71233  0.80598  1.0000
  H   H359      1.0  0.74976  0.75742  0.80262  1.0000
  C   C366      1.0  0.84371  0.67314  0.68318  1.0000
  H   H360      1.0  0.66213  0.73099  0.74419  1.0000
  C   C367      1.0  0.91079  0.70468  0.75611  1.0000
  H   H361      1.0  0.95220  0.60119  0.75385  1.0000
  H   H362      1.0  0.83715  0.64971  0.69167  1.0000
  H   H363      1.0  0.87437  0.72985  0.78136  1.0000
  H   H364      1.0  0.83574  0.71229  0.73795  1.0000
  C   C368      1.0  0.67503  0.83687  0.50413  1.0000
  H   H365      1.0  0.90023  0.50128  0.84281  1.0000
  S   S128      1.0  0.67277  0.83647  0.57886  1.0000
  C   C369      1.0  0.97401  0.61253  0.75479  1.0000
  H   H366      1.0  0.70014  0.91707  0.57362  1.0000
  C   C370      1.0  0.88779  0.53316  0.92538  1.0000
  H   H367      1.0  0.94167  0.67573  0.72662  1.0000
  H   H368      1.0  0.69520  0.85062  0.50747  1.0000
  H   H369      1.0  0.68267  0.93083  0.72968  1.0000
  C   C371      1.0  0.87407  0.63258  0.97194  1.0000
  C   C372      1.0  0.88084  0.71479  0.75943  1.0000
  H   H370      1.0  0.90226  0.65803  0.68406  1.0000
  H   H371      1.0  0.80018  0.53292  0.86285  1.0000
  H   H372      1.0  0.85228  0.67277  0.65484  1.0000
  H   H373      1.0  0.84381  0.54540  0.94623  1.0000
  N   N31       1.0  0.86694  0.68487  0.70776  1.0000
  C   C373      1.0  0.89620  0.67455  0.70463  1.0000
  C   C374      1.0  0.85908  0.70465  0.73481  1.0000
  C   C375      1.0  0.91859  0.68447  0.72854  1.0000
  H   H374      1.0  0.70215  0.91341  0.64008  1.0000
  C   C376      1.0  0.68025  0.97746  0.74823  1.0000
  C   C377      1.0  0.85611  0.53558  0.92354  1.0000
  C   C378      1.0  0.88807  0.51069  0.86590  1.0000
  H   H375      1.0  0.89973  0.54136  0.94904  1.0000
  C   C379      1.0  0.82336  0.49205  0.76526  1.0000
  C   C380      1.0  0.85643  0.51379  0.86483  1.0000
  H   H376      1.0  0.82274  0.68732  0.68384  1.0000
  C   C381      1.0  0.67574  0.91405  0.57601  1.0000
  H   H377      1.0  0.84441  0.50628  0.84092  1.0000
  H   H378      1.0  0.80023  0.55083  0.90606  1.0000
  H   H379      1.0  0.66804  0.91602  0.66625  1.0000
  H   H380      1.0  0.67062  0.90360  0.51922  1.0000
  H   H381      1.0  0.92845  0.51922  0.89698  1.0000
  C   C382      1.0  0.65928  0.82621  0.53506  1.0000
  C   C383      1.0  0.97786  0.63767  0.77744  1.0000
  Fe  Fe64      1.0  0.65445  0.82675  0.63612  1.0000
  C   C384      1.0  0.67932  0.92430  0.64105  1.0000
  N   N32       1.0  0.66156  0.91635  0.60899  1.0000
  H   H382      1.0  0.68191  0.94938  0.64288  1.0000
  H   H383      1.0  0.70468  0.98043  0.74813  1.0000
  H   H384      1.0  0.66384  0.75748  0.80284  1.0000
