data_image0
_chemical_formula_structural       FeSHFeSNCSH2SCFeSH3CH2C4HCH2C8HCH2C4H2CH2CFeC2H2CH3NC2H2CSH2FeC2NC2H2CH2FeH3SNCHSHC2H3C6H4SH3CHC3HSCH2SCSH3SHSHFeSHC2SC2HCHCH2SHS2H2CHCFeH2CFeC2HC4HC3H2SHNC3H3SCH2C2HS2HC5HC2FeCHFeC2NH3FeCH4C3HCSH2FeHSHS2HSH2CS2NC5HFeCH2SH3C5H2CH3C3HFeCHCFeCNSC2HCHCH2FeH2NSH6CHCFeHC2HSHCFeH3FeHFeHSHCH2CHCFeS3CFeHC6H3SHCH2CNCHC7H3SFeS2FeSFe2S2HC6H5SCSCH2SH2CHSNC2SC2HCH2SH2CFeCH2NCHCHC3NC2H3CHSFeSH2SCHCHSHFeSFeS2FeSFeS3C2HCHC7H3CHC7H3S2C6H5C2H2NC2S2NH3FeCSH2CHNCHCHC5HCH3C2HCH2SHCFeCH4CH2NFeCHSH3FeS2FeS2FeSFeS3FeSHS2CFeSC3H2C6H3FeC6H4CHCHSFeC5SCH8C2N2CHCHC2H2CHCH5CHC2H3C2HSCNC5H3SH2C2FeSCNCH3CHCSH3SHNCHCSHSC6H3CH3FeC2HFeSHCHCFeH2CHCHCNCHCHCHCH2CNHCHSH2C2HC2HSFeSFeC2H2C3HC2SHCH2SH2C5FeNC2HCSCSH2FeCH2SHSHCHCHCH2CH3CSHCH2CFeHFeCSC2SFeSFeS2C2S2C7H3FeHCSH2C6H4CH2C4H3C2FeHC2SH2FeH4C3HS2C2HC4SHNCNH3NCFeC2S3CH3S2CFeCH2C2H2SCNH3CFeNH7C2H4SHFeH2CHSHSC2S2HSFeS2FeSFeS3C2SCHC7H5C6H4CFe2C2HNC6H2SH2SH2NC6H9CHC3H3CH4C2H2CNHC2H2CFeS2FeS2FeSFeCS2C3FeSHSH3CFeCHSCNC3H2CHCHC6H5NSC4H6CH2CSHC2H3C2H2C2HC3H3C2SNHC3FeS2FeS2FeSFeCS2CHNH2C2S2H3C4SHC6H2CHC2H3C2H2C3HCHNHC2HCH3SH5C2HC2SC2H2C2HCNH3NHC4H2FeHFeCS
_chemical_formula_sum              "Fe80 S160 H480 N40 C480"
_cell_length_a       30.2594
_cell_length_b       59.509
_cell_length_c       52.7044
_cell_angle_alpha    86.6211
_cell_angle_beta     87.6955
_cell_angle_gamma    122.218

_space_group_name_H-M_alt    "P 1"
_space_group_IT_number       1

loop_
  _space_group_symop_operation_xyz
  'x, y, z'

loop_
  _atom_site_type_symbol
  _atom_site_label
  _atom_site_symmetry_multiplicity
  _atom_site_fract_x
  _atom_site_fract_y
  _atom_site_fract_z
  _atom_site_occupancy
  Fe  Fe1       1.0  0.51310  0.31137  0.26849  1.0000
  S   S1        1.0  0.13776  0.15518  0.22023  1.0000
  H   H1        1.0  0.49063  0.24791  0.18625  1.0000
  Fe  Fe2       1.0  0.10090  0.11117  0.21978  1.0000
  S   S2        1.0  0.04995  0.08972  0.18863  1.0000
  N   N1        1.0  0.02294  0.15300  0.20640  1.0000
  C   C1        1.0  0.04722  0.19850  0.19812  1.0000
  S   S3        1.0  0.13119  0.27033  0.21585  1.0000
  H   H2        1.0  0.40696  0.30588  0.25669  1.0000
  H   H3        1.0  0.95191  0.11756  0.22083  1.0000
  S   S4        1.0  0.17355  0.11220  0.22922  1.0000
  C   C2        1.0  0.09390  0.19679  0.26648  1.0000
  Fe  Fe3       1.0  0.20756  0.15559  0.23354  1.0000
  S   S5        1.0  0.28626  0.18871  0.21548  1.0000
  H   H4        1.0  0.05002  0.13797  0.17791  1.0000
  H   H5        1.0  0.00270  0.01003  0.14531  1.0000
  H   H6        1.0  0.00741  0.11410  0.21768  1.0000
  C   C3        1.0  0.36608  0.23785  0.22537  1.0000
  H   H7        1.0  0.43356  0.27528  0.23220  1.0000
  H   H8        1.0  0.36920  0.24323  0.20511  1.0000
  C   C4        1.0  0.32877  0.29832  0.26117  1.0000
  C   C5        1.0  0.13591  0.20863  0.24771  1.0000
  C   C6        1.0  0.14887  0.23206  0.23305  1.0000
  C   C7        1.0  0.12117  0.24435  0.23773  1.0000
  H   H9        1.0  0.00106  0.17289  0.23162  1.0000
  C   C8        1.0  0.32643  0.21236  0.23592  1.0000
  H   H10       1.0  0.15793  0.19951  0.24409  1.0000
  H   H11       1.0  0.17962  0.24029  0.21764  1.0000
  C   C9        1.0  0.07556  0.20097  0.17549  1.0000
  C   C10       1.0  0.04908  0.15493  0.18375  1.0000
  C   C11       1.0  0.04576  0.05940  0.18529  1.0000
  C   C12       1.0  0.02184  0.04469  0.16471  1.0000
  C   C13       1.0  0.02018  0.02096  0.16150  1.0000
  C   C14       1.0  0.04246  0.01195  0.17887  1.0000
  C   C15       1.0  0.06525  0.02635  0.19973  1.0000
  C   C16       1.0  0.06669  0.04994  0.20299  1.0000
  H   H12       1.0  0.00556  0.05191  0.15097  1.0000
  C   C17       1.0  0.53970  0.26826  0.22799  1.0000
  H   H13       1.0  0.08233  0.01943  0.21330  1.0000
  H   H14       1.0  0.08428  0.06083  0.21919  1.0000
  C   C18       1.0  0.42781  0.20893  0.20173  1.0000
  C   C19       1.0  0.40030  0.24903  0.26678  1.0000
  C   C20       1.0  0.02148  0.17433  0.21360  1.0000
  C   C21       1.0  0.08165  0.23368  0.25776  1.0000
  H   H15       1.0  0.41034  0.20333  0.18375  1.0000
  H   H16       1.0  0.09704  0.21994  0.16381  1.0000
  C   C22       1.0  0.29435  0.30473  0.22362  1.0000
  H   H17       1.0  0.36787  0.17211  0.22285  1.0000
  H   H18       1.0  0.48533  0.23071  0.26630  1.0000
  C   C23       1.0  0.42539  0.19900  0.24698  1.0000
  Fe  Fe4       1.0  0.13734  0.30566  0.23257  1.0000
  C   C24       1.0  0.47276  0.23418  0.20336  1.0000
  C   C25       1.0  0.99463  0.12777  0.22277  1.0000
  H   H19       1.0  0.40609  0.18577  0.26430  1.0000
  H   H20       1.0  0.05990  0.24304  0.26133  1.0000
  C   C26       1.0  0.07643  0.17903  0.16815  1.0000
  H   H21       1.0  0.57497  0.26704  0.22888  1.0000
  H   H22       1.0  0.09846  0.18069  0.15062  1.0000
  H   H23       1.0  0.04629  0.21546  0.20393  1.0000
  N   N2        1.0  0.49290  0.24173  0.22636  1.0000
  C   C27       1.0  0.47013  0.22445  0.24797  1.0000
  C   C28       1.0  0.40405  0.19129  0.22370  1.0000
  H   H24       1.0  0.00230  0.13145  0.24304  1.0000
  H   H25       1.0  0.54656  0.28243  0.21131  1.0000
  C   C29       1.0  0.40274  0.25612  0.24077  1.0000
  S   S6        1.0  0.06557  0.10190  0.26003  1.0000
  H   H26       1.0  0.53518  0.27690  0.24529  1.0000
  H   H27       1.0  0.26304  0.30475  0.21427  1.0000
  Fe  Fe5       1.0  0.10943  0.14612  0.26164  1.0000
  C   C30       1.0  0.37525  0.30528  0.24716  1.0000
  C   C31       1.0  0.38109  0.31220  0.22095  1.0000
  N   N3        1.0  0.28927  0.29829  0.24939  1.0000
  C   C32       1.0  0.32279  0.20544  0.26209  1.0000
  C   C33       1.0  0.34043  0.31189  0.20904  1.0000
  H   H28       1.0  0.21437  0.29398  0.25319  1.0000
  H   H29       1.0  0.34512  0.31777  0.18877  1.0000
  C   C34       1.0  0.24125  0.29110  0.26468  1.0000
  H   H30       1.0  0.29317  0.18560  0.27028  1.0000
  H   H31       1.0  0.91580  0.98628  0.19575  1.0000
  Fe  Fe6       1.0  0.14057  0.10568  0.26986  1.0000
  H   H32       1.0  0.41768  0.31857  0.21001  1.0000
  H   H33       1.0  0.74927  0.30792  0.40982  1.0000
  H   H34       1.0  0.78025  0.30135  0.43504  1.0000
  S   S7        1.0  0.14571  0.07741  0.29821  1.0000
  N   N4        1.0  0.03505  0.09851  0.34208  1.0000
  C   C35       1.0  0.02104  0.07792  0.36026  1.0000
  H   H35       1.0  0.98012  0.06368  0.36665  1.0000
  S   S8        1.0  0.07095  0.16473  0.28124  1.0000
  H   H36       1.0  0.32486  0.29336  0.28160  1.0000
  C   C36       1.0  0.78117  0.31746  0.42283  1.0000
  C   C37       1.0  0.12528  0.11189  0.34207  1.0000
  H   H37       1.0  0.09723  0.13129  0.31807  1.0000
  H   H38       1.0  0.98269  0.09003  0.31347  1.0000
  H   H39       1.0  0.35771  0.21804  0.29758  1.0000
  C   C38       1.0  0.08644  0.05113  0.31409  1.0000
  C   C39       1.0  0.08705  0.03257  0.33150  1.0000
  C   C40       1.0  0.04103  0.01316  0.34633  1.0000
  C   C41       1.0  0.99457  0.01261  0.34402  1.0000
  C   C42       1.0  0.99351  0.03048  0.32601  1.0000
  C   C43       1.0  0.03926  0.04958  0.31102  1.0000
  H   H40       1.0  0.12339  0.03357  0.33393  1.0000
  H   H41       1.0  0.95945  0.09336  0.34435  1.0000
  H   H42       1.0  0.95747  0.02989  0.32404  1.0000
  H   H43       1.0  0.03812  0.06356  0.29776  1.0000
  S   S9        1.0  0.14523  0.31165  0.27399  1.0000
  H   H44       1.0  0.14082  0.08720  0.36679  1.0000
  H   H45       1.0  0.00933  0.12251  0.32486  1.0000
  H   H46       1.0  0.16561  0.12456  0.33400  1.0000
  C   C44       1.0  0.99451  0.10120  0.33067  1.0000
  H   H47       1.0  0.04733  0.05675  0.38334  1.0000
  C   C45       1.0  0.11136  0.09091  0.36054  1.0000
  C   C46       1.0  0.08636  0.11539  0.33294  1.0000
  C   C47       1.0  0.05898  0.07387  0.36984  1.0000
  H   H48       1.0  0.04197  0.99931  0.36021  1.0000
  S   S10       1.0  0.93896  0.99158  0.36503  1.0000
  C   C48       1.0  0.35971  0.22376  0.27749  1.0000
  H   H49       1.0  0.25100  0.30397  0.28064  1.0000
  H   H50       1.0  0.03542  0.20079  0.28667  1.0000
  S   S11       1.0  0.44972  0.27029  0.28585  1.0000
  C   C49       1.0  0.06770  0.20974  0.27201  1.0000
  S   S12       1.0  0.18158  0.14937  0.27517  1.0000
  H   H51       1.0  0.22002  0.26979  0.27235  1.0000
  H   H52       1.0  0.12630  0.03382  0.58189  1.0000
  H   H53       1.0  0.90920  0.02499  0.74142  1.0000
  S   S13       1.0  0.74903  0.27612  0.72460  1.0000
  H   H54       1.0  0.82477  0.22842  0.69903  1.0000
  S   S14       1.0  0.72246  0.20586  0.74582  1.0000
  H   H55       1.0  0.35489  0.11705  0.74490  1.0000
  Fe  Fe7       1.0  0.66690  0.00377  0.74407  1.0000
  S   S15       1.0  0.83611  0.19318  0.73782  1.0000
  H   H56       1.0  0.44792  0.15098  0.75074  1.0000
  C   C50       1.0  0.50492  0.11533  0.74737  1.0000
  C   C51       1.0  0.16489  0.01164  0.61811  1.0000
  S   S16       1.0  0.73659  0.04430  0.73081  1.0000
  C   C52       1.0  0.54156  0.14264  0.74125  1.0000
  C   C53       1.0  0.50739  0.10273  0.77003  1.0000
  H   H57       1.0  0.90024  0.02778  0.65636  1.0000
  C   C54       1.0  0.80763  0.15959  0.74951  1.0000
  H   H58       1.0  0.66512  0.05893  0.76030  1.0000
  C   C55       1.0  0.87491  0.26212  0.67134  1.0000
  H   H59       1.0  0.22990  0.02183  0.70434  1.0000
  H   H60       1.0  0.50327  0.99206  0.71062  1.0000
  S   S17       1.0  0.84231  0.03245  0.69810  1.0000
  H   H61       1.0  0.54001  0.15250  0.72370  1.0000
  S   S18       1.0  0.59409  0.99211  0.72432  1.0000
  S   S19       1.0  0.30394  0.04096  0.74125  1.0000
  H   H62       1.0  0.83148  0.10959  0.74967  1.0000
  H   H63       1.0  0.83668  0.29630  0.63537  1.0000
  C   C56       1.0  0.50288  0.99107  0.73120  1.0000
  H   H64       1.0  0.86393  0.15473  0.72827  1.0000
  C   C57       1.0  0.76450  0.14748  0.76765  1.0000
  Fe  Fe8       1.0  0.38929  0.05667  0.74392  1.0000
  H   H65       1.0  0.60571  0.17876  0.75390  1.0000
  H   H66       1.0  0.85953  0.29417  0.72280  1.0000
  C   C58       1.0  0.81235  0.12000  0.75448  1.0000
  Fe  Fe9       1.0  0.78178  0.02418  0.72992  1.0000
  C   C59       1.0  0.53979  0.05783  0.74651  1.0000
  C   C60       1.0  0.46265  0.99075  0.74581  1.0000
  H   H67       1.0  0.15949  0.02795  0.69049  1.0000
  C   C61       1.0  0.19633  0.00570  0.69657  1.0000
  C   C62       1.0  0.10102  0.01415  0.59307  1.0000
  C   C63       1.0  0.57443  0.06103  0.72629  1.0000
  C   C64       1.0  0.87138  0.00788  0.66492  1.0000
  H   H68       1.0  0.75119  0.26299  0.65868  1.0000
  C   C65       1.0  0.82700  0.24302  0.68477  1.0000
  C   C66       1.0  0.83075  0.14554  0.74244  1.0000
  C   C67       1.0  0.62978  0.05857  0.75656  1.0000
  H   H69       1.0  0.08386  0.01671  0.61091  1.0000
  H   H70       1.0  0.76419  0.02248  0.65827  1.0000
  S   S20       1.0  0.06715  0.99473  0.66534  1.0000
  H   H71       1.0  0.92607  0.31485  0.62648  1.0000
  N   N5        1.0  0.13170  0.00234  0.59910  1.0000
  C   C68       1.0  0.83828  0.00443  0.68619  1.0000
  C   C69       1.0  0.68775  0.99286  0.67639  1.0000
  C   C70       1.0  0.85431  0.30606  0.70858  1.0000
  H   H72       1.0  0.43196  0.99110  0.73646  1.0000
  H   H73       1.0  0.94541  0.29102  0.62953  1.0000
  H   H74       1.0  0.17940  0.98628  0.74889  1.0000
  S   S21       1.0  0.38398  0.02065  0.72975  1.0000
  C   C71       1.0  0.57890  0.15749  0.75828  1.0000
  H   H75       1.0  0.90976  0.26212  0.67542  1.0000
  H   H76       1.0  0.68284  0.00709  0.68608  1.0000
  C   C72       1.0  0.92893  0.30082  0.64022  1.0000
  C   C73       1.0  0.80469  0.30179  0.70596  1.0000
  H   H77       1.0  0.06763  0.00113  0.58186  1.0000
  S   S22       1.0  0.83781  0.25507  0.76011  1.0000
  S   S23       1.0  0.45362  0.09799  0.72774  1.0000
  H   H78       1.0  0.16737  0.02708  0.62911  1.0000
  C   C74       1.0  0.11355  0.98876  0.67756  1.0000
  C   C75       1.0  0.78554  0.26217  0.66182  1.0000
  C   C76       1.0  0.61978  0.06143  0.73128  1.0000
  C   C77       1.0  0.19431  0.00060  0.62443  1.0000
  C   C78       1.0  0.37164  0.11610  0.76244  1.0000
  H   H79       1.0  0.21935  0.00746  0.64006  1.0000
  C   C79       1.0  0.78214  0.24317  0.67997  1.0000
  C   C80       1.0  0.73307  0.00150  0.66058  1.0000
  Fe  Fe10      1.0  0.79684  0.21095  0.75813  1.0000
  C   C81       1.0  0.15650  0.00918  0.68858  1.0000
  H   H80       1.0  0.56574  0.06288  0.70679  1.0000
  Fe  Fe11      1.0  0.76047  0.24926  0.75162  1.0000
  C   C82       1.0  0.83406  0.28098  0.64876  1.0000
  C   C83       1.0  0.42376  0.13521  0.76577  1.0000
  N   N6        1.0  0.87795  0.28077  0.65361  1.0000
  H   H81       1.0  0.74495  0.22898  0.69070  1.0000
  H   H82       1.0  0.64666  0.06352  0.71573  1.0000
  H   H83       1.0  0.77472  0.98969  0.63661  1.0000
  Fe  Fe12      1.0  0.29704  0.00325  0.73120  1.0000
  C   C84       1.0  0.54276  0.99038  0.74312  1.0000
  H   H84       1.0  0.95666  0.31320  0.65410  1.0000
  H   H85       1.0  0.50413  0.05720  0.74280  1.0000
  H   H86       1.0  0.96250  0.02102  0.70688  1.0000
  H   H87       1.0  0.76045  0.31462  0.68550  1.0000
  C   C85       1.0  0.93147  0.00331  0.71827  1.0000
  C   C86       1.0  0.90166  0.00554  0.73769  1.0000
  C   C87       1.0  0.79876  0.31779  0.68762  1.0000
  H   H88       1.0  0.89131  0.98837  0.63756  1.0000
  C   C88       1.0  0.54144  0.98863  0.76974  1.0000
  S   S24       1.0  0.80368  0.03144  0.77015  1.0000
  H   H89       1.0  0.89327  0.30501  0.86928  1.0000
  H   H90       1.0  0.73341  0.29574  0.77426  1.0000
  Fe  Fe13      1.0  0.75035  0.04700  0.77221  1.0000
  H   H91       1.0  0.80823  0.13716  0.84506  1.0000
  S   S25       1.0  0.75556  0.08001  0.79317  1.0000
  H   H92       1.0  0.44280  0.09085  0.82725  1.0000
  S   S26       1.0  0.76986  0.20098  0.79969  1.0000
  S   S27       1.0  0.62064  0.16368  0.80459  1.0000
  H   H93       1.0  0.41634  0.10599  0.84640  1.0000
  S   S28       1.0  0.85057  0.26516  0.83346  1.0000
  H   H94       1.0  0.63397  0.04518  0.80374  1.0000
  H   H95       1.0  0.62337  0.07128  0.81095  1.0000
  C   C89       1.0  0.92576  0.99316  0.92762  1.0000
  S   S29       1.0  0.24022  0.02922  0.80828  1.0000
  S   S30       1.0  0.72903  0.24197  0.79262  1.0000
  N   N7        1.0  0.88757  0.20750  0.80857  1.0000
  C   C90       1.0  0.83519  0.17881  0.84596  1.0000
  C   C91       1.0  0.85680  0.16088  0.81113  1.0000
  C   C92       1.0  0.77166  0.10885  0.77397  1.0000
  C   C93       1.0  0.60598  0.05187  0.80266  1.0000
  C   C94       1.0  0.91730  0.23401  0.79441  1.0000
  H   H96       1.0  0.56943  0.03659  0.81434  1.0000
  Fe  Fe14      1.0  0.73002  0.99134  0.77999  1.0000
  C   C95       1.0  0.89909  0.31504  0.85050  1.0000
  H   H97       1.0  0.54490  0.10784  0.80502  1.0000
  H   H98       1.0  0.85394  0.14406  0.80253  1.0000
  S   S31       1.0  0.67815  0.00731  0.78568  1.0000
  H   H99       1.0  0.87635  0.30183  0.78881  1.0000
  H   H100      1.0  0.81529  0.17608  0.86454  1.0000
  H   H101      1.0  0.89844  0.01947  0.83679  1.0000
  C   C96       1.0  0.86973  0.99905  0.83354  1.0000
  C   C97       1.0  0.86429  0.20414  0.83249  1.0000
  C   C98       1.0  0.88177  0.30008  0.82940  1.0000
  C   C99       1.0  0.19365  0.00060  0.82801  1.0000
  C   C100      1.0  0.82400  0.99302  0.82204  1.0000
  H   H102      1.0  0.81746  0.00875  0.81668  1.0000
  H   H103      1.0  0.76466  0.30999  0.81696  1.0000
  C   C101      1.0  0.34159  0.09537  0.78151  1.0000
  H   H104      1.0  0.71567  0.11387  0.79522  1.0000
  H   H105      1.0  0.94769  0.00366  0.90887  1.0000
  H   H106      1.0  0.48076  0.08163  0.77452  1.0000
  C   C102      1.0  0.88471  0.18636  0.79799  1.0000
  C   C103      1.0  0.36462  0.09360  0.80341  1.0000
  C   C104      1.0  0.46188  0.98950  0.77242  1.0000
  H   H107      1.0  0.86674  0.22093  0.84098  1.0000
  Fe  Fe15      1.0  0.80385  0.24471  0.80076  1.0000
  C   C105      1.0  0.44545  0.13298  0.78799  1.0000
  H   H108      1.0  0.14535  0.01625  0.83640  1.0000
  C   C106      1.0  0.74725  0.12243  0.78023  1.0000
  Fe  Fe16      1.0  0.29290  0.02368  0.78164  1.0000
  C   C107      1.0  0.14974  0.99942  0.83944  1.0000
  N   N8        1.0  0.41610  0.11213  0.80628  1.0000
  S   S32       1.0  0.37867  0.04285  0.78538  1.0000
  C   C108      1.0  0.88936  0.31311  0.80519  1.0000
  C   C109      1.0  0.44016  0.10869  0.82856  1.0000
  H   H109      1.0  0.48060  0.12619  0.82975  1.0000
  C   C110      1.0  0.54412  0.11757  0.78720  1.0000
  H   H110      1.0  0.34132  0.07689  0.81778  1.0000
  C   C111      1.0  0.83127  0.15704  0.83509  1.0000
  H   H111      1.0  0.90530  0.24739  0.80151  1.0000
  H   H112      1.0  0.92518  0.00772  0.93964  1.0000
  Fe  Fe17      1.0  0.69783  0.19894  0.78762  1.0000
  H   H113      1.0  0.95982  0.24329  0.79637  1.0000
  H   H114      1.0  0.30102  0.08033  0.77911  1.0000
  N   N9        1.0  0.59499  0.05484  0.77626  1.0000
  S   S33       1.0  0.41411  0.99087  0.79123  1.0000
  H   H115      1.0  0.52285  0.05153  0.78714  1.0000
  H   H116      1.0  0.86507  0.99285  0.89213  1.0000
  H   H117      1.0  0.74502  0.15762  0.77249  1.0000
  H   H118      1.0  0.91011  0.23254  0.77385  1.0000
  H   H119      1.0  0.48646  0.14752  0.79003  1.0000
  H   H120      1.0  0.12368  0.99053  0.78170  1.0000
  C   C112      1.0  0.57948  0.14503  0.78150  1.0000
  H   H121      1.0  0.90303  0.18898  0.77899  1.0000
  C   C113      1.0  0.76414  0.31626  0.77628  1.0000
  Fe  Fe18      1.0  0.36886  0.00577  0.77120  1.0000
  H   H122      1.0  0.57108  0.98732  0.77914  1.0000
  C   C114      1.0  0.50087  0.98798  0.78435  1.0000
  C   C115      1.0  0.55074  0.05474  0.77155  1.0000
  H   H123      1.0  0.49991  0.98650  0.80495  1.0000
  S   S34       1.0  0.93331  0.98619  0.85736  1.0000
  H   H124      1.0  0.12472  0.42396  0.22110  1.0000
  C   C116      1.0  0.75886  0.42207  0.24053  1.0000
  Fe  Fe19      1.0  0.08210  0.59944  0.24566  1.0000
  H   H125      1.0  0.11320  0.44722  0.18495  1.0000
  H   H126      1.0  0.05006  0.43482  0.17396  1.0000
  H   H127      1.0  0.97501  0.39320  0.19267  1.0000
  Fe  Fe20      1.0  0.53332  0.36184  0.24039  1.0000
  H   H128      1.0  0.10518  0.45006  0.02789  1.0000
  Fe  Fe21      1.0  0.16282  0.36167  0.21800  1.0000
  H   H129      1.0  0.09168  0.38109  0.24672  1.0000
  S   S35       1.0  0.17245  0.39293  0.18797  1.0000
  H   H130      1.0  0.99055  0.33861  0.16488  1.0000
  C   C117      1.0  0.11612  0.59519  0.16124  1.0000
  H   H131      1.0  0.09915  0.44515  0.06168  1.0000
  H   H132      1.0  0.94094  0.34991  0.21790  1.0000
  C   C118      1.0  0.39605  0.37564  0.22526  1.0000
  H   H133      1.0  0.86356  0.43346  0.18825  1.0000
  C   C119      1.0  0.09459  0.43480  0.04418  1.0000
  Fe  Fe22      1.0  0.21793  0.35095  0.26003  1.0000
  S   S36       1.0  0.92401  0.41535  0.09575  1.0000
  S   S37       1.0  0.83377  0.43563  0.13393  1.0000
  S   S38       1.0  0.97257  0.37487  0.13566  1.0000
  C   C120      1.0  0.78387  0.44555  0.22400  1.0000
  Fe  Fe23      1.0  0.19166  0.64549  0.25508  1.0000
  H   H134      1.0  0.92560  0.42945  0.03518  1.0000
  C   C121      1.0  0.11808  0.38652  0.17134  1.0000
  C   C122      1.0  0.12143  0.40742  0.15589  1.0000
  C   C123      1.0  0.07743  0.40378  0.14425  1.0000
  C   C124      1.0  0.02978  0.37916  0.14784  1.0000
  C   C125      1.0  0.02706  0.35785  0.16228  1.0000
  C   C126      1.0  0.07101  0.36156  0.17412  1.0000
  H   H135      1.0  0.15793  0.42668  0.15334  1.0000
  H   H136      1.0  0.08063  0.42017  0.13273  1.0000
  H   H137      1.0  0.06824  0.34513  0.18542  1.0000
  S   S39       1.0  0.21229  0.34390  0.21879  1.0000
  H   H138      1.0  0.13070  0.56614  0.14743  1.0000
  C   C127      1.0  0.74347  0.37823  0.25495  1.0000
  H   H139      1.0  0.28375  0.61839  0.18777  1.0000
  H   H140      1.0  0.03152  0.40143  0.08394  1.0000
  C   C128      1.0  0.96178  0.37517  0.06606  1.0000
  N   N10       1.0  0.05150  0.41128  0.20581  1.0000
  C   C129      1.0  0.14548  0.58363  0.15794  1.0000
  H   H141      1.0  0.19590  0.64377  0.19788  1.0000
  C   C130      1.0  0.83479  0.43058  0.20322  1.0000
  C   C131      1.0  0.78361  0.40657  0.15189  1.0000
  C   C132      1.0  0.78816  0.38460  0.15715  1.0000
  C   C133      1.0  0.74873  0.36220  0.17279  1.0000
  C   C134      1.0  0.70529  0.36194  0.18354  1.0000
  C   C135      1.0  0.70092  0.38394  0.17832  1.0000
  C   C136      1.0  0.73977  0.40610  0.16233  1.0000
  H   H142      1.0  0.02378  0.54099  0.26432  1.0000
  H   H143      1.0  0.66721  0.38375  0.18624  1.0000
  H   H144      1.0  0.73617  0.42307  0.15829  1.0000
  S   S40       1.0  0.02623  0.57271  0.21819  1.0000
  Fe  Fe24      1.0  0.02100  0.46923  0.13813  1.0000
  S   S41       1.0  0.95041  0.43060  0.15489  1.0000
  S   S42       1.0  0.07746  0.49559  0.16555  1.0000
  Fe  Fe25      1.0  0.99670  0.45520  0.08298  1.0000
  S   S43       1.0  0.03455  0.47019  0.04257  1.0000
  Fe  Fe26      1.0  0.90916  0.43787  0.12420  1.0000
  Fe  Fe27      1.0  0.97297  0.41227  0.12517  1.0000
  S   S44       1.0  0.97866  0.47825  0.10936  1.0000
  S   S45       1.0  0.04657  0.45042  0.11045  1.0000
  H   H145      1.0  0.82191  0.38486  0.14911  1.0000
  C   C137      1.0  0.03709  0.54912  0.20562  1.0000
  C   C138      1.0  0.00618  0.53388  0.18672  1.0000
  C   C139      1.0  0.01718  0.51669  0.17479  1.0000
  C   C140      1.0  0.05927  0.51477  0.18172  1.0000
  C   C141      1.0  0.08901  0.52929  0.20120  1.0000
  C   C142      1.0  0.07779  0.54632  0.21318  1.0000
  H   H146      1.0  0.97449  0.53588  0.18080  1.0000
  H   H147      1.0  0.99394  0.50547  0.15980  1.0000
  H   H148      1.0  0.12148  0.52777  0.20666  1.0000
  H   H149      1.0  0.10145  0.55761  0.22783  1.0000
  H   H150      1.0  0.25231  0.62145  0.21603  1.0000
  S   S46       1.0  0.62103  0.38179  0.23810  1.0000
  C   C143      1.0  0.34342  0.36650  0.26506  1.0000
  S   S47       1.0  0.48871  0.37766  0.22110  1.0000
  C   C144      1.0  0.35091  0.37179  0.23850  1.0000
  H   H151      1.0  0.28486  0.64852  0.19120  1.0000
  H   H152      1.0  0.07835  0.58670  0.15340  1.0000
  S   S48       1.0  0.12014  0.64395  0.24280  1.0000
  H   H153      1.0  0.73271  0.36073  0.24415  1.0000
  H   H154      1.0  0.70640  0.37456  0.26430  1.0000
  C   C145      1.0  0.80809  0.40704  0.21962  1.0000
  H   H155      1.0  0.32270  0.37361  0.22817  1.0000
  S   S49       1.0  0.65751  0.33423  0.20390  1.0000
  N   N11       1.0  0.21091  0.61568  0.18301  1.0000
  C   C146      1.0  0.18214  0.62699  0.18648  1.0000
  C   C147      1.0  0.13430  0.61689  0.17572  1.0000
  S   S50       1.0  0.15627  0.60169  0.25352  1.0000
  C   C148      1.0  0.19287  0.59403  0.16923  1.0000
  C   C149      1.0  0.07092  0.43715  0.19144  1.0000
  H   H156      1.0  0.94016  0.36345  0.08384  1.0000
  C   C150      1.0  0.98096  0.36628  0.21917  1.0000
  H   H157      1.0  0.77325  0.46021  0.22561  1.0000
  H   H158      1.0  0.75211  0.34515  0.17671  1.0000
  S   S51       1.0  0.17677  0.37301  0.25815  1.0000
  H   H159      1.0  0.11067  0.62532  0.17918  1.0000
  H   H160      1.0  0.84070  0.46743  0.19167  1.0000
  C   C151      1.0  0.82188  0.44971  0.20514  1.0000
  Fe  Fe28      1.0  0.60676  0.34223  0.22921  1.0000
  C   C152      1.0  0.01348  0.39681  0.06601  1.0000
  H   H161      1.0  0.06534  0.45033  0.20341  1.0000
  H   H162      1.0  0.40189  0.38000  0.20474  1.0000
  N   N12       1.0  0.04055  0.41211  0.04380  1.0000
  C   C153      1.0  0.08395  0.40803  0.22081  1.0000
  H   H163      1.0  0.21468  0.58446  0.16707  1.0000
  C   C154      1.0  0.00048  0.39085  0.20497  1.0000
  H   H164      1.0  0.81674  0.39175  0.21725  1.0000
  C   C155      1.0  0.43353  0.37378  0.23842  1.0000
  C   C156      1.0  0.01383  0.36280  0.23449  1.0000
  C   C157      1.0  0.06562  0.38378  0.23530  1.0000
  N   N13       1.0  0.77032  0.40293  0.23781  1.0000
  C   C158      1.0  0.26035  0.62640  0.19502  1.0000
  C   C159      1.0  0.93802  0.36910  0.04316  1.0000
  H   H165      1.0  0.12217  0.42791  0.04337  1.0000
  H   H166      1.0  0.99958  0.34382  0.24550  1.0000
  H   H167      1.0  0.06038  0.50439  0.25925  1.0000
  C   C160      1.0  0.42592  0.36847  0.26498  1.0000
  H   H168      1.0  0.72957  0.41906  0.25526  1.0000
  S   S52       1.0  0.08696  0.32268  0.22825  1.0000
  Fe  Fe29      1.0  0.10320  0.33311  0.26850  1.0000
  S   S53       1.0  0.52076  0.32397  0.22692  1.0000
  H   H169      1.0  0.89759  0.35273  0.04302  1.0000
  H   H170      1.0  0.76882  0.37943  0.27015  1.0000
  S   S54       1.0  0.59845  0.32656  0.26990  1.0000
  C   C161      1.0  0.01817  0.40573  0.02114  1.0000
  H   H171      1.0  0.93968  0.53454  0.28038  1.0000
  C   C162      1.0  0.80255  0.34366  0.45960  1.0000
  H   H172      1.0  0.04509  0.52625  0.41007  1.0000
  S   S55       1.0  0.66834  0.39320  0.30435  1.0000
  H   H173      1.0  0.72470  0.33927  0.41387  1.0000
  Fe  Fe30      1.0  0.93158  0.44330  0.39126  1.0000
  S   S56       1.0  0.92550  0.42231  0.35647  1.0000
  Fe  Fe31      1.0  0.93062  0.40156  0.42727  1.0000
  S   S57       1.0  0.92466  0.37667  0.39553  1.0000
  S   S58       1.0  0.93619  0.38765  0.46713  1.0000
  Fe  Fe32      1.0  0.98451  0.41536  0.37332  1.0000
  S   S59       1.0  0.05534  0.42367  0.34883  1.0000
  Fe  Fe33      1.0  0.86610  0.38563  0.38139  1.0000
  S   S60       1.0  0.79121  0.35301  0.36752  1.0000
  S   S61       1.0  0.99593  0.43968  0.40632  1.0000
  S   S62       1.0  0.86676  0.40718  0.41501  1.0000
  C   C163      1.0  0.93040  0.40348  0.49317  1.0000
  C   C164      1.0  0.91120  0.42021  0.49053  1.0000
  H   H174      1.0  0.88139  0.49704  0.31351  1.0000
  C   C165      1.0  0.76651  0.37050  0.46771  1.0000
  H   H175      1.0  0.90042  0.42397  0.47218  1.0000
  C   C166      1.0  0.22097  0.38360  0.32533  1.0000
  C   C167      1.0  0.04044  0.35486  0.30748  1.0000
  C   C168      1.0  0.08635  0.38023  0.30380  1.0000
  C   C169      1.0  0.08975  0.40151  0.31575  1.0000
  C   C170      1.0  0.04733  0.39753  0.33152  1.0000
  C   C171      1.0  0.00060  0.37246  0.33439  1.0000
  C   C172      1.0  0.99722  0.35117  0.32240  1.0000
  H   H176      1.0  0.97270  0.51200  0.44302  1.0000
  H   H177      1.0  0.12592  0.42091  0.31339  1.0000
  H   H178      1.0  0.96745  0.36927  0.34630  1.0000
  C   C173      1.0  0.93292  0.48243  0.31474  1.0000
  H   H179      1.0  0.45498  0.36759  0.27539  1.0000
  C   C174      1.0  0.70209  0.38172  0.32183  1.0000
  C   C175      1.0  0.68532  0.35473  0.32421  1.0000
  C   C176      1.0  0.71302  0.34610  0.33818  1.0000
  C   C177      1.0  0.75769  0.36441  0.34979  1.0000
  C   C178      1.0  0.77456  0.39143  0.34744  1.0000
  C   C179      1.0  0.74673  0.40004  0.33352  1.0000
  C   C180      1.0  0.18534  0.35614  0.32624  1.0000
  H   H180      1.0  0.09125  0.47904  0.45075  1.0000
  H   H181      1.0  0.80867  0.40565  0.35656  1.0000
  H   H182      1.0  0.75964  0.42091  0.33191  1.0000
  S   S63       1.0  0.13761  0.56834  0.31874  1.0000
  S   S64       1.0  0.93461  0.48176  0.38739  1.0000
  C   C181      1.0  0.08086  0.54460  0.33771  1.0000
  C   C182      1.0  0.04183  0.54954  0.34440  1.0000
  C   C183      1.0  0.99672  0.53017  0.35973  1.0000
  C   C184      1.0  0.99029  0.50572  0.36788  1.0000
  C   C185      1.0  0.02905  0.50069  0.36088  1.0000
  C   C186      1.0  0.07461  0.52025  0.34610  1.0000
  H   H183      1.0  0.04693  0.56851  0.33829  1.0000
  H   H184      1.0  0.96684  0.53414  0.36523  1.0000
  H   H185      1.0  0.02407  0.48176  0.36683  1.0000
  H   H186      1.0  0.10475  0.51639  0.34086  1.0000
  H   H187      1.0  0.76361  0.38439  0.47905  1.0000
  C   C187      1.0  0.20749  0.39919  0.33827  1.0000
  C   C188      1.0  0.99847  0.52451  0.27853  1.0000
  H   H188      1.0  0.07539  0.33983  0.38674  1.0000
  H   H189      1.0  0.37595  0.36119  0.29882  1.0000
  N   N14       1.0  0.01343  0.50782  0.28778  1.0000
  C   C189      1.0  0.99268  0.48827  0.46650  1.0000
  C   C190      1.0  0.73983  0.36255  0.44574  1.0000
  S   S65       1.0  0.28757  0.36188  0.28229  1.0000
  S   S66       1.0  0.17085  0.64181  0.29700  1.0000
  N   N15       1.0  0.07324  0.50401  0.42877  1.0000
  H   H190      1.0  0.88960  0.44441  0.50989  1.0000
  H   H191      1.0  0.71618  0.37029  0.43970  1.0000
  H   H192      1.0  0.09465  0.53399  0.27615  1.0000
  Fe  Fe34      1.0  0.12879  0.59774  0.29451  1.0000
  C   C191      1.0  0.95075  0.52088  0.28752  1.0000
  S   S67       1.0  0.05218  0.59307  0.28669  1.0000
  H   H193      1.0  0.02054  0.46533  0.48487  1.0000
  H   H194      1.0  0.81960  0.36732  0.49155  1.0000
  C   C192      1.0  0.99944  0.50525  0.44526  1.0000
  H   H195      1.0  0.15153  0.51608  0.41673  1.0000
  N   N16       1.0  0.12336  0.36004  0.35243  1.0000
  C   C193      1.0  0.74480  0.34496  0.43119  1.0000
  H   H196      1.0  0.65042  0.34038  0.31577  1.0000
  C   C194      1.0  0.02613  0.47893  0.46857  1.0000
  H   H197      1.0  0.07772  0.50264  0.29155  1.0000
  C   C195      1.0  0.79795  0.36096  0.47475  1.0000
  C   C196      1.0  0.11469  0.51152  0.40850  1.0000
  C   C197      1.0  0.04033  0.51309  0.42653  1.0000
  C   C198      1.0  0.13626  0.34463  0.33976  1.0000
  C   C199      1.0  0.06389  0.51229  0.27813  1.0000
  H   H198      1.0  0.96145  0.33161  0.32527  1.0000
  C   C200      1.0  0.98088  0.48662  0.30525  1.0000
  H   H199      1.0  0.12380  0.52959  0.39621  1.0000
  H   H200      1.0  0.23479  0.42060  0.33753  1.0000
  H   H201      1.0  0.25886  0.39269  0.31450  1.0000
  C   C201      1.0  0.07265  0.34737  0.36748  1.0000
  C   C202      1.0  0.15843  0.38696  0.35208  1.0000
  H   H202      1.0  0.96130  0.48218  0.48124  1.0000
  C   C203      1.0  0.06619  0.48688  0.44930  1.0000
  H   H203      1.0  0.99251  0.47325  0.31253  1.0000
  H   H204      1.0  0.12006  0.38335  0.29267  1.0000
  S   S68       1.0  0.52139  0.34837  0.28211  1.0000
  H   H205      1.0  0.82861  0.33713  0.46477  1.0000
  C   C204      1.0  0.91804  0.49982  0.30593  1.0000
  Fe  Fe35      1.0  0.09696  0.63783  0.28476  1.0000
  C   C205      1.0  0.90521  0.43179  0.51185  1.0000
  H   H206      1.0  0.10206  0.49492  0.39619  1.0000
  H   H207      1.0  0.90811  0.46623  0.32936  1.0000
  H   H208      1.0  0.14804  0.39922  0.36196  1.0000
  H   H209      1.0  0.05990  0.36164  0.36950  1.0000
  C   C206      1.0  0.38118  0.36499  0.27826  1.0000
  H   H210      1.0  0.19573  0.34390  0.31638  1.0000
  H   H211      1.0  0.04159  0.33047  0.35790  1.0000
  N   N17       1.0  0.77540  0.33551  0.43839  1.0000
  Fe  Fe36      1.0  0.60815  0.36512  0.27899  1.0000
  C   C207      1.0  0.94357  0.39845  0.51716  1.0000
  H   H212      1.0  0.81889  0.32886  0.41076  1.0000
  S   S69       1.0  0.03744  0.32695  0.29585  1.0000
  H   H213      1.0  0.69963  0.32516  0.34007  1.0000
  H   H214      1.0  0.95816  0.38540  0.51935  1.0000
  H   H215      1.0  0.10828  0.32334  0.33976  1.0000
  Fe  Fe37      1.0  0.93148  0.43509  0.60130  1.0000
  S   S70       1.0  0.94511  0.46484  0.62942  1.0000
  S   S71       1.0  0.91247  0.44278  0.56173  1.0000
  Fe  Fe38      1.0  0.94303  0.39969  0.64032  1.0000
  S   S72       1.0  0.95751  0.42619  0.67141  1.0000
  S   S73       1.0  0.94386  0.36282  0.65122  1.0000
  Fe  Fe39      1.0  0.89232  0.42922  0.65707  1.0000
  S   S74       1.0  0.83745  0.42595  0.68929  1.0000
  Fe  Fe40      1.0  0.00952  0.45967  0.64175  1.0000
  S   S75       1.0  0.08424  0.49588  0.65226  1.0000
  S   S76       1.0  0.87269  0.39962  0.62825  1.0000
  S   S77       1.0  0.00099  0.43301  0.61126  1.0000
  Fe  Fe41      1.0  0.29807  0.50718  0.73347  1.0000
  S   S78       1.0  0.21661  0.47338  0.72787  1.0000
  H   H216      1.0  0.84768  0.50734  0.65522  1.0000
  S   S79       1.0  0.72289  0.48787  0.76013  1.0000
  S   S80       1.0  0.81351  0.52449  0.69742  1.0000
  C   C208      1.0  0.67853  0.50447  0.68158  1.0000
  Fe  Fe42      1.0  0.68199  0.50888  0.76904  1.0000
  S   S81       1.0  0.48608  0.53405  0.70605  1.0000
  C   C209      1.0  0.92922  0.53145  0.72752  1.0000
  C   C210      1.0  0.56921  0.53079  0.71895  1.0000
  C   C211      1.0  0.59385  0.52095  0.73380  1.0000
  H   H217      1.0  0.59066  0.54493  0.70248  1.0000
  H   H218      1.0  0.63404  0.52750  0.72865  1.0000
  C   C212      1.0  0.83173  0.45361  0.69111  1.0000
  C   C213      1.0  0.84414  0.47170  0.66979  1.0000
  C   C214      1.0  0.83880  0.49358  0.67184  1.0000
  C   C215      1.0  0.82169  0.49756  0.69527  1.0000
  C   C216      1.0  0.81031  0.47971  0.71664  1.0000
  C   C217      1.0  0.81467  0.45761  0.71450  1.0000
  H   H219      1.0  0.85679  0.46854  0.65159  1.0000
  H   H220      1.0  0.79874  0.48299  0.73494  1.0000
  H   H221      1.0  0.80550  0.44380  0.73111  1.0000
  Fe  Fe43      1.0  0.41504  0.53033  0.72600  1.0000
  C   C218      1.0  0.12175  0.48938  0.67259  1.0000
  C   C219      1.0  0.17116  0.51043  0.67814  1.0000
  C   C220      1.0  0.20127  0.50564  0.69463  1.0000
  C   C221      1.0  0.18153  0.47987  0.70600  1.0000
  C   C222      1.0  0.13213  0.45890  0.70058  1.0000
  C   C223      1.0  0.10256  0.46358  0.68372  1.0000
  H   H222      1.0  0.18643  0.53037  0.66931  1.0000
  H   H223      1.0  0.23973  0.52183  0.69847  1.0000
  H   H224      1.0  0.11688  0.43887  0.70915  1.0000
  H   H225      1.0  0.06509  0.44715  0.67925  1.0000
  C   C224      1.0  0.91688  0.51657  0.75107  1.0000
  H   H226      1.0  0.71344  0.52119  0.68938  1.0000
  C   C225      1.0  0.21657  0.55154  0.74185  1.0000
  H   H227      1.0  0.94901  0.40660  0.55678  1.0000
  S   S82       1.0  0.36146  0.53886  0.70503  1.0000
  Fe  Fe44      1.0  0.78169  0.52554  0.73635  1.0000
  C   C226      1.0  0.50213  0.59758  0.68712  1.0000
  C   C227      1.0  0.84200  0.33743  0.67148  1.0000
  C   C228      1.0  0.14685  0.50621  0.75905  1.0000
  C   C229      1.0  0.91916  0.42712  0.53577  1.0000
  C   C230      1.0  0.62672  0.62169  0.73486  1.0000
  S   S83       1.0  0.73595  0.54489  0.74213  1.0000
  C   C231      1.0  0.76918  0.63292  0.73049  1.0000
  H   H228      1.0  0.70246  0.43534  0.70078  1.0000
  H   H229      1.0  0.82847  0.38795  0.72922  1.0000
  H   H230      1.0  0.20561  0.54627  0.72274  1.0000
  H   H231      1.0  0.01582  0.50407  0.68797  1.0000
  H   H232      1.0  0.77978  0.60006  0.73652  1.0000
  H   H233      1.0  0.77297  0.32853  0.73636  1.0000
  H   H234      1.0  0.83675  0.34909  0.65685  1.0000
  H   H235      1.0  0.58261  0.43700  0.74602  1.0000
  C   C232      1.0  0.58063  0.59854  0.69929  1.0000
  C   C233      1.0  0.85201  0.37919  0.73389  1.0000
  N   N18       1.0  0.95329  0.50310  0.70901  1.0000
  N   N19       1.0  0.82777  0.36036  0.75686  1.0000
  C   C234      1.0  0.94171  0.48854  0.73210  1.0000
  H   H236      1.0  0.52016  0.62529  0.72722  1.0000
  C   C235      1.0  0.92329  0.49503  0.75348  1.0000
  H   H237      1.0  0.13401  0.43132  0.76327  1.0000
  C   C236      1.0  0.54854  0.61989  0.72374  1.0000
  C   C237      1.0  0.93830  0.41037  0.53839  1.0000
  H   H238      1.0  0.94596  0.47155  0.73394  1.0000
  H   H239      1.0  0.92301  0.54781  0.72530  1.0000
  C   C238      1.0  0.58961  0.62835  0.73950  1.0000
  H   H240      1.0  0.44849  0.49688  0.75133  1.0000
  C   C239      1.0  0.94778  0.52449  0.70657  1.0000
  H   H241      1.0  0.59292  0.64032  0.75495  1.0000
  H   H242      1.0  0.96813  0.50432  0.66870  1.0000
  H   H243      1.0  0.89276  0.39556  0.73640  1.0000
  H   H244      1.0  0.95191  0.47415  0.68662  1.0000
  H   H245      1.0  0.95636  0.53588  0.68823  1.0000
  C   C240      1.0  0.48905  0.50376  0.74646  1.0000
  H   H246      1.0  0.51567  0.61334  0.67108  1.0000
  C   C241      1.0  0.89120  0.34096  0.67347  1.0000
  C   C242      1.0  0.25973  0.57697  0.74488  1.0000
  H   H247      1.0  0.85434  0.36904  0.71727  1.0000
  H   H248      1.0  0.57721  0.58676  0.68367  1.0000
  H   H249      1.0  0.48975  0.57829  0.67933  1.0000
  C   C243      1.0  0.56565  0.50193  0.75458  1.0000
  C   C244      1.0  0.78727  0.33481  0.75478  1.0000
  H   H250      1.0  0.65134  0.60161  0.71082  1.0000
  S   S84       1.0  0.39561  0.60850  0.72765  1.0000
  C   C245      1.0  0.27525  0.58380  0.76928  1.0000
  N   N20       1.0  0.66372  0.47919  0.69584  1.0000
  C   C246      1.0  0.69112  0.46750  0.69050  1.0000
  C   C247      1.0  0.62482  0.46827  0.71534  1.0000
  C   C248      1.0  0.67981  0.44420  0.70483  1.0000
  C   C249      1.0  0.61250  0.44504  0.73011  1.0000
  C   C250      1.0  0.64032  0.43299  0.72481  1.0000
  H   H251      1.0  0.64617  0.50815  0.68280  1.0000
  H   H252      1.0  0.72275  0.47649  0.67540  1.0000
  H   H253      1.0  0.60353  0.47767  0.71990  1.0000
  S   S85       1.0  0.35048  0.49610  0.75184  1.0000
  H   H254      1.0  0.16180  0.49271  0.75998  1.0000
  H   H255      1.0  0.63196  0.41529  0.73647  1.0000
  C   C251      1.0  0.78053  0.61630  0.74495  1.0000
  C   C252      1.0  0.97340  0.49616  0.68705  1.0000
  Fe  Fe45      1.0  0.37508  0.56638  0.73529  1.0000
  S   S86       1.0  0.30690  0.53566  0.76171  1.0000
  C   C253      1.0  0.51672  0.52215  0.72524  1.0000
  N   N21       1.0  0.54415  0.60500  0.70410  1.0000
  C   C254      1.0  0.62231  0.60666  0.71467  1.0000
  H   H256      1.0  0.68864  0.50445  0.66108  1.0000
  H   H257      1.0  0.46672  0.59500  0.69751  1.0000
  H   H258      1.0  0.90170  0.52150  0.76734  1.0000
  C   C255      1.0  0.43989  0.62732  0.74968  1.0000
  H   H259      1.0  0.93567  0.32848  0.69415  1.0000
  C   C256      1.0  0.89747  0.32552  0.69229  1.0000
  S   S87       1.0  0.43340  0.56029  0.75396  1.0000
  H   H260      1.0  0.65935  0.62854  0.74660  1.0000
  H   H261      1.0  0.13087  0.50510  0.74018  1.0000
  H   H262      1.0  0.28213  0.59105  0.72836  1.0000
  S   S88       1.0  0.83391  0.54451  0.76772  1.0000
  H   H263      1.0  0.75885  0.62906  0.71112  1.0000
  N   N22       1.0  0.18948  0.53344  0.76260  1.0000
  C   C257      1.0  0.51324  0.49336  0.76085  1.0000
  H   H264      1.0  0.67321  0.56868  0.76818  1.0000
  C   C258      1.0  0.79482  0.62144  0.76987  1.0000
  S   S89       1.0  0.15576  0.45904  0.88935  1.0000
  H   H265      1.0  0.83480  0.35725  0.82080  1.0000
  S   S90       1.0  0.36867  0.52154  0.81972  1.0000
  C   C259      1.0  0.21419  0.47906  0.86978  1.0000
  C   C260      1.0  0.21481  0.48738  0.84428  1.0000
  C   C261      1.0  0.26233  0.50103  0.82870  1.0000
  C   C262      1.0  0.30914  0.50671  0.83879  1.0000
  C   C263      1.0  0.30830  0.49904  0.86443  1.0000
  C   C264      1.0  0.26100  0.48509  0.87979  1.0000
  H   H266      1.0  0.17858  0.48254  0.83645  1.0000
  H   H267      1.0  0.34418  0.50330  0.87234  1.0000
  H   H268      1.0  0.26063  0.47866  0.89949  1.0000
  C   C265      1.0  0.24721  0.56530  0.79036  1.0000
  H   H269      1.0  0.63364  0.63152  0.80682  1.0000
  H   H270      1.0  0.26243  0.50654  0.80888  1.0000
  H   H271      1.0  0.47593  0.61854  0.80793  1.0000
  Fe  Fe46      1.0  0.36384  0.52707  0.77791  1.0000
  C   C266      1.0  0.25073  0.44219  0.82227  1.0000
  C   C267      1.0  0.57163  0.55796  0.79338  1.0000
  H   H272      1.0  0.40494  0.59497  0.77957  1.0000
  Fe  Fe47      1.0  0.78240  0.56042  0.77594  1.0000
  S   S91       1.0  0.80832  0.60076  0.78872  1.0000
  H   H273      1.0  0.25949  0.57025  0.80939  1.0000
  C   C268      1.0  0.79800  0.64338  0.78018  1.0000
  H   H274      1.0  0.30976  0.60319  0.77169  1.0000
  C   C269      1.0  0.15724  0.42352  0.83383  1.0000
  Fe  Fe48      1.0  0.07869  0.45190  0.87851  1.0000
  H   H275      1.0  0.49685  0.55461  0.79795  1.0000
  H   H276      1.0  0.03968  0.41771  0.00347  1.0000
  C   C270      1.0  0.56161  0.59429  0.80283  1.0000
  H   H277      1.0  0.94832  0.38002  0.00256  1.0000
  C   C271      1.0  0.20424  0.54001  0.78664  1.0000
  H   H278      1.0  0.25606  0.44697  0.84245  1.0000
  C   C272      1.0  0.47782  0.62833  0.78959  1.0000
  N   N23       1.0  0.62484  0.57417  0.79397  1.0000
  C   C273      1.0  0.00200  0.45563  0.01539  1.0000
  H   H279      1.0  0.25685  0.42565  0.81961  1.0000
  C   C274      1.0  0.10659  0.41504  0.82732  1.0000
  H   H280      1.0  0.53693  0.60209  0.80653  1.0000
  C   C275      1.0  0.03135  0.46359  0.99166  1.0000
  H   H281      1.0  0.03130  0.45751  0.95175  1.0000
  C   C276      1.0  0.00785  0.45153  0.96973  1.0000
  H   H282      1.0  0.07271  0.47893  0.99027  1.0000
  H   H283      1.0  0.91429  0.45736  0.83304  1.0000
  C   C277      1.0  0.64721  0.60037  0.79843  1.0000
  N   N24       1.0  0.19835  0.43464  0.81541  1.0000
  H   H284      1.0  0.93459  0.46589  0.92472  1.0000
  C   C278      1.0  0.78140  0.32429  0.80018  1.0000
  H   H285      1.0  0.80982  0.64770  0.79931  1.0000
  S   S92       1.0  0.01042  0.41001  0.88892  1.0000
  H   H286      1.0  0.88357  0.40853  0.99627  1.0000
  H   H287      1.0  0.28171  0.46041  0.81031  1.0000
  C   C279      1.0  0.92262  0.34288  0.84748  1.0000
  C   C280      1.0  0.88142  0.49160  0.88751  1.0000
  H   H288      1.0  0.92006  0.35084  0.78323  1.0000
  C   C281      1.0  0.97057  0.51420  0.90143  1.0000
  C   C282      1.0  0.14017  0.42912  0.78320  1.0000
  H   H289      1.0  0.16350  0.42149  0.85377  1.0000
  S   S93       1.0  0.04206  0.47169  0.89728  1.0000
  Fe  Fe49      1.0  0.98216  0.41545  0.85173  1.0000
  S   S94       1.0  0.78571  0.48071  0.81761  1.0000
  Fe  Fe50      1.0  0.00962  0.47120  0.85955  1.0000
  C   C283      1.0  0.85595  0.44381  0.91351  1.0000
  C   C284      1.0  0.92982  0.35581  0.82323  1.0000
  H   H290      1.0  0.82621  0.44752  0.82486  1.0000
  H   H291      1.0  0.93449  0.35422  0.86391  1.0000
  C   C285      1.0  0.91416  0.34093  0.80207  1.0000
  C   C286      1.0  0.81863  0.44484  0.89966  1.0000
  C   C287      1.0  0.85006  0.48879  0.82037  1.0000
  H   H292      1.0  0.97392  0.54118  0.82633  1.0000
  C   C288      1.0  0.94190  0.52075  0.82558  1.0000
  C   C289      1.0  0.94860  0.43571  0.01699  1.0000
  S   S95       1.0  0.05406  0.45586  0.83993  1.0000
  H   H293      1.0  0.84661  0.42524  0.92382  1.0000
  C   C290      1.0  0.83123  0.46891  0.88668  1.0000
  H   H294      1.0  0.78002  0.42703  0.89897  1.0000
  H   H295      1.0  0.97247  0.52371  0.91919  1.0000
  S   S96       1.0  0.95502  0.39019  0.81861  1.0000
  H   H296      1.0  0.98080  0.52883  0.88462  1.0000
  H   H297      1.0  0.80266  0.46995  0.87565  1.0000
  C   C291      1.0  0.19032  0.43739  0.79035  1.0000
  C   C292      1.0  0.92491  0.42386  0.99493  1.0000
  C   C293      1.0  0.90581  0.46687  0.91387  1.0000
  C   C294      1.0  0.61595  0.61080  0.80303  1.0000
  C   C295      1.0  0.94970  0.49981  0.83116  1.0000
  Fe  Fe51      1.0  0.77222  0.50783  0.79207  1.0000
  N   N25       1.0  0.91824  0.49024  0.90059  1.0000
  C   C296      1.0  0.90829  0.47353  0.82991  1.0000
  C   C297      1.0  0.95450  0.43166  0.97123  1.0000
  H   H298      1.0  0.88564  0.53140  0.81695  1.0000
  C   C298      1.0  0.85852  0.46801  0.82486  1.0000
  S   S97       1.0  0.72540  0.52533  0.80344  1.0000
  C   C299      1.0  0.89205  0.51525  0.82020  1.0000
  S   S98       1.0  0.01013  0.50670  0.84126  1.0000
  H   H299      1.0  0.89095  0.51017  0.87721  1.0000
  H   H300      1.0  0.22275  0.44602  0.77566  1.0000
  Fe  Fe52      1.0  0.97220  0.43006  0.90574  1.0000
  C   C300      1.0  0.53919  0.56769  0.79796  1.0000
  H   H301      1.0  0.55388  0.53726  0.78961  1.0000
  H   H302      1.0  0.00096  0.50909  0.90069  1.0000
  S   S99       1.0  0.92397  0.41604  0.94395  1.0000
  H   H303      1.0  0.69263  0.57276  0.80036  1.0000
  S   S100      1.0  0.93619  0.43101  0.86945  1.0000
  H   H304      1.0  0.63688  0.54184  0.79323  1.0000
  C   C301      1.0  0.65841  0.56385  0.78863  1.0000
  H   H305      1.0  0.11397  0.49886  0.77402  1.0000
  C   C302      1.0  0.82078  0.35078  0.80232  1.0000
  H   H306      1.0  0.68948  0.61330  0.79858  1.0000
  C   C303      1.0  0.84403  0.36862  0.78031  1.0000
  H   H307      1.0  0.87593  0.38891  0.78216  1.0000
  H   H308      1.0  0.07409  0.40636  0.84195  1.0000
  C   C304      1.0  0.43748  0.61502  0.77357  1.0000
  H   H309      1.0  0.49119  0.47857  0.77685  1.0000
  H   H310      1.0  0.18347  0.52551  0.80307  1.0000
  H   H311      1.0  0.05899  0.41127  0.79653  1.0000
  C   C305      1.0  0.09812  0.41786  0.80183  1.0000
  S   S101      1.0  0.59414  0.48789  0.77258  1.0000
  H   H312      1.0  0.91347  0.48331  0.77175  1.0000
  C   C306      1.0  0.96646  0.38431  0.02049  1.0000
  H   H313      1.0  0.99379  0.89748  0.02531  1.0000
  H   H314      1.0  0.01774  0.86725  0.26029  1.0000
  C   C307      1.0  0.36294  0.90662  0.22443  1.0000
  Fe  Fe53      1.0  0.58952  0.86013  0.27079  1.0000
  H   H315      1.0  0.38638  0.78972  0.25337  1.0000
  Fe  Fe54      1.0  0.58134  0.82768  0.22776  1.0000
  C   C308      1.0  0.41639  0.86607  0.25716  1.0000
  S   S102      1.0  0.63545  0.82006  0.20505  1.0000
  C   C309      1.0  0.69280  0.78588  0.18220  1.0000
  C   C310      1.0  0.80568  0.93851  0.19682  1.0000
  S   S103      1.0  0.49392  0.80679  0.22822  1.0000
  Fe  Fe55      1.0  0.13738  0.85067  0.23153  1.0000
  S   S104      1.0  0.14731  0.88223  0.20203  1.0000
  Fe  Fe56      1.0  0.10905  0.79427  0.24738  1.0000
  S   S105      1.0  0.08053  0.75448  0.23235  1.0000
  S   S106      1.0  0.45390  0.85671  0.21336  1.0000
  C   C311      1.0  0.85128  0.93949  0.23279  1.0000
  C   C312      1.0  0.40448  0.85443  0.23410  1.0000
  S   S107      1.0  0.06179  0.81324  0.24595  1.0000
  S   S108      1.0  0.18258  0.83075  0.22896  1.0000
  C   C313      1.0  0.95549  0.69966  0.26251  1.0000
  C   C314      1.0  0.09052  0.87601  0.18791  1.0000
  C   C315      1.0  0.08909  0.89762  0.17701  1.0000
  C   C316      1.0  0.04418  0.89341  0.16593  1.0000
  C   C317      1.0  0.00085  0.86752  0.16498  1.0000
  C   C318      1.0  0.00208  0.84586  0.17608  1.0000
  C   C319      1.0  0.04668  0.85010  0.18769  1.0000
  H   H316      1.0  0.12275  0.91772  0.17719  1.0000
  H   H317      1.0  0.04348  0.91027  0.15793  1.0000
  H   H318      1.0  0.04759  0.83328  0.19584  1.0000
  Fe  Fe57      1.0  0.50683  0.84697  0.23343  1.0000
  H   H319      1.0  0.34380  0.83312  0.20900  1.0000
  C   C320      1.0  0.35324  0.84228  0.22677  1.0000
  S   S109      1.0  0.59490  0.86854  0.22840  1.0000
  H   H320      1.0  0.27473  0.83229  0.23662  1.0000
  H   H321      1.0  0.70275  0.79619  0.19996  1.0000
  C   C321      1.0  0.76052  0.89281  0.15409  1.0000
  C   C322      1.0  0.77470  0.87855  0.17016  1.0000
  C   C323      1.0  0.73653  0.85701  0.18690  1.0000
  C   C324      1.0  0.68414  0.84962  0.18748  1.0000
  C   C325      1.0  0.67031  0.86456  0.17221  1.0000
  C   C326      1.0  0.70853  0.88614  0.15549  1.0000
  H   H322      1.0  0.74747  0.84574  0.19901  1.0000
  H   H323      1.0  0.62981  0.85887  0.17258  1.0000
  H   H324      1.0  0.69755  0.89729  0.14320  1.0000
  H   H325      1.0  0.18591  0.72454  0.24171  1.0000
  C   C327      1.0  0.36757  0.71792  0.24119  1.0000
  H   H326      1.0  0.43900  0.90422  0.20354  1.0000
  H   H327      1.0  0.37865  0.71612  0.22200  1.0000
  C   C328      1.0  0.06931  0.68591  0.25710  1.0000
  C   C329      1.0  0.07195  0.70662  0.24152  1.0000
  C   C330      1.0  0.08334  0.73022  0.25164  1.0000
  C   C331      1.0  0.41092  0.90104  0.18905  1.0000
  H   H328      1.0  0.95032  0.69636  0.24252  1.0000
  H   H329      1.0  0.06391  0.70410  0.22171  1.0000
  H   H330      1.0  0.88780  0.94665  0.24155  1.0000
  C   C332      1.0  0.75661  0.91349  0.23653  1.0000
  C   C333      1.0  0.91700  0.91862  0.02972  1.0000
  Fe  Fe58      1.0  0.88613  0.92424  0.12834  1.0000
  H   H331      1.0  0.24494  0.90102  0.22720  1.0000
  C   C334      1.0  0.34585  0.78180  0.25994  1.0000
  C   C335      1.0  0.96763  0.94114  0.02436  1.0000
  S   S110      1.0  0.04219  0.98269  0.17532  1.0000
  H   H332      1.0  0.39409  0.91064  0.23651  1.0000
  H   H333      1.0  0.07882  0.88748  0.24077  1.0000
  Fe  Fe59      1.0  0.99623  0.95733  0.14462  1.0000
  H   H334      1.0  0.31567  0.74734  0.23917  1.0000
  H   H335      1.0  0.80595  0.94472  0.17700  1.0000
  H   H336      1.0  0.69643  0.84048  0.11512  1.0000
  H   H337      1.0  0.43208  0.91719  0.17327  1.0000
  C   C336      1.0  0.40441  0.73846  0.25488  1.0000
  C   C337      1.0  0.31960  0.90665  0.23468  1.0000
  C   C338      1.0  0.80374  0.92257  0.24759  1.0000
  H   H338      1.0  0.45607  0.87587  0.26275  1.0000
  S   S111      1.0  0.02615  0.93807  0.11968  1.0000
  S   S112      1.0  0.27021  0.67518  0.23414  1.0000
  C   C339      1.0  0.31656  0.69982  0.25223  1.0000
  C   C340      1.0  0.31408  0.84189  0.24236  1.0000
  H   H339      1.0  0.06570  0.96655  0.22316  1.0000
  C   C341      1.0  0.90191  0.96527  0.19267  1.0000
  C   C342      1.0  0.75749  0.92150  0.21102  1.0000
  C   C343      1.0  0.32508  0.89504  0.18493  1.0000
  C   C344      1.0  0.27883  0.90107  0.21953  1.0000
  S   S113      1.0  0.16137  0.86409  0.27028  1.0000
  H   H340      1.0  0.93245  0.96130  0.19811  1.0000
  N   N26       1.0  0.71928  0.80559  0.15997  1.0000
  C   C345      1.0  0.77207  0.81724  0.15448  1.0000
  N   N27       1.0  0.85176  0.94696  0.20766  1.0000
  H   H341      1.0  0.70473  0.77116  0.18277  1.0000
  H   H342      1.0  0.84084  0.84647  0.13022  1.0000
  H   H343      1.0  0.39846  0.88153  0.18172  1.0000
  N   N28       1.0  0.04266  0.90817  0.25126  1.0000
  C   C346      1.0  0.32618  0.85406  0.26514  1.0000
  Fe  Fe60      1.0  0.95184  0.89991  0.13449  1.0000
  C   C347      1.0  0.79882  0.83711  0.13422  1.0000
  C   C348      1.0  0.03886  0.88364  0.24465  1.0000
  S   S114      1.0  0.90576  0.90143  0.10276  1.0000
  S   S115      1.0  0.80679  0.91884  0.13198  1.0000
  S   S116      1.0  0.94528  0.86196  0.14986  1.0000
  C   C349      1.0  0.28139  0.89515  0.19451  1.0000
  H   H344      1.0  0.90201  0.91058  0.04921  1.0000
  H   H345      1.0  0.96872  0.82577  0.17546  1.0000
  H   H346      1.0  0.24932  0.89045  0.18277  1.0000
  S   S117      1.0  0.92503  0.91890  0.16119  1.0000
  S   S118      1.0  0.01024  0.95523  0.04864  1.0000
  C   C350      1.0  0.71764  0.83347  0.12559  1.0000
  Fe  Fe61      1.0  0.97786  0.94142  0.09003  1.0000
  C   C351      1.0  0.05236  0.92738  0.23231  1.0000
  H   H347      1.0  0.79177  0.86136  0.10454  1.0000
  H   H348      1.0  0.79414  0.81159  0.16606  1.0000
  C   C352      1.0  0.05801  0.95136  0.23828  1.0000
  C   C353      1.0  0.69203  0.81348  0.14586  1.0000
  H   H349      1.0  0.32663  0.89022  0.16552  1.0000
  H   H350      1.0  0.81472  0.88367  0.16931  1.0000
  S   S119      1.0  0.95512  0.96455  0.11370  1.0000
  C   C354      1.0  0.05409  0.95568  0.26380  1.0000
  N   N29       1.0  0.36520  0.90081  0.19984  1.0000
  H   H351      1.0  0.64941  0.77475  0.18196  1.0000
  H   H352      1.0  0.05589  0.92429  0.21241  1.0000
  H   H353      1.0  0.65073  0.80524  0.15098  1.0000
  C   C355      1.0  0.77135  0.84531  0.11976  1.0000
  Fe  Fe62      1.0  0.20015  0.84074  0.26911  1.0000
  N   N30       1.0  0.25455  0.74736  0.26089  1.0000
  H   H354      1.0  0.72103  0.91447  0.20224  1.0000
  H   H355      1.0  0.31712  0.91038  0.25446  1.0000
  H   H356      1.0  0.44387  0.75201  0.24636  1.0000
  H   H357      1.0  0.89838  0.96294  0.17191  1.0000
  H   H358      1.0  0.71942  0.90040  0.24774  1.0000
  H   H359      1.0  0.96896  0.73892  0.25731  1.0000
  H   H360      1.0  0.22821  0.71177  0.24207  1.0000
  C   C356      1.0  0.30559  0.75777  0.25205  1.0000
  C   C357      1.0  0.21259  0.72164  0.25337  1.0000
  H   H361      1.0  0.07732  0.93285  0.03216  1.0000
  H   H362      1.0  0.01713  0.87646  0.22737  1.0000
  H   H363      1.0  0.05851  0.66741  0.24935  1.0000
  H   H364      1.0  0.05866  0.97425  0.26871  1.0000
  S   S120      1.0  0.58073  0.82043  0.26991  1.0000
  H   H365      1.0  0.80332  0.91659  0.26754  1.0000
  Fe  Fe63      1.0  0.49474  0.80341  0.27067  1.0000
  H   H366      1.0  0.18963  0.70778  0.27060  1.0000
  H   H367      1.0  0.10845  0.93184  0.43710  1.0000
  C   C358      1.0  0.04466  0.93607  0.28300  1.0000
  H   H368      1.0  0.00685  0.84818  0.39468  1.0000
  S   S121      1.0  0.50263  0.84239  0.27608  1.0000
  H   H369      1.0  0.09626  0.71455  0.31299  1.0000
  S   S122      1.0  0.43487  0.76759  0.29655  1.0000
  C   C359      1.0  0.33973  0.72271  0.29086  1.0000
  C   C360      1.0  0.07505  0.92960  0.42699  1.0000
  S   S123      1.0  0.64755  0.89165  0.29434  1.0000
  S   S124      1.0  0.02610  0.81915  0.31417  1.0000
  H   H370      1.0  0.08935  0.93928  0.40714  1.0000
  S   S125      1.0  0.93680  0.93007  0.34455  1.0000
  Fe  Fe64      1.0  0.90652  0.90947  0.41774  1.0000
  S   S126      1.0  0.90986  0.88307  0.38989  1.0000
  S   S127      1.0  0.88316  0.89263  0.45923  1.0000
  Fe  Fe65      1.0  0.98109  0.92040  0.37131  1.0000
  S   S128      1.0  0.05497  0.92328  0.35631  1.0000
  Fe  Fe66      1.0  0.86504  0.89469  0.36530  1.0000
  S   S129      1.0  0.80293  0.86439  0.34236  1.0000
  S   S130      1.0  0.98215  0.94618  0.40117  1.0000
  S   S131      1.0  0.85494  0.91773  0.39462  1.0000
  C   C361      1.0  0.91551  0.91154  0.48465  1.0000
  C   C362      1.0  0.96046  0.93724  0.48027  1.0000
  S   S132      1.0  0.27920  0.85591  0.28407  1.0000
  C   C363      1.0  0.98651  0.95120  0.50100  1.0000
  H   H371      1.0  0.97511  0.94636  0.46096  1.0000
  C   C364      1.0  0.33356  0.79538  0.27662  1.0000
  C   C365      1.0  0.03442  0.84845  0.32507  1.0000
  C   C366      1.0  0.08416  0.87179  0.32438  1.0000
  C   C367      1.0  0.09008  0.89470  0.33393  1.0000
  C   C368      1.0  0.04624  0.89451  0.34391  1.0000
  C   C369      1.0  0.99639  0.87134  0.34417  1.0000
  C   C370      1.0  0.99058  0.84828  0.33505  1.0000
  H   H372      1.0  0.11830  0.87199  0.31714  1.0000
  H   H373      1.0  0.12878  0.91257  0.33368  1.0000
  H   H374      1.0  0.96223  0.87107  0.35142  1.0000
  H   H375      1.0  0.95194  0.83032  0.33553  1.0000
  H   H376      1.0  0.38694  0.87538  0.29023  1.0000
  C   C371      1.0  0.69605  0.88656  0.30523  1.0000
  C   C372      1.0  0.72689  0.90151  0.32427  1.0000
  C   C373      1.0  0.76193  0.89573  0.33502  1.0000
  C   C374      1.0  0.76582  0.87486  0.32683  1.0000
  C   C375      1.0  0.73695  0.86087  0.30693  1.0000
  C   C376      1.0  0.70258  0.86689  0.29599  1.0000
  H   H377      1.0  0.72270  0.91708  0.33124  1.0000
  H   H378      1.0  0.78454  0.90682  0.35023  1.0000
  H   H379      1.0  0.74050  0.84500  0.30024  1.0000
  H   H380      1.0  0.86206  0.88015  0.51338  1.0000
  C   C377      1.0  0.08996  0.71241  0.29297  1.0000
  Fe  Fe67      1.0  0.08850  0.82525  0.28473  1.0000
  Fe  Fe68      1.0  0.93094  0.95246  0.37582  1.0000
  C   C378      1.0  0.09294  0.73317  0.27734  1.0000
  C   C379      1.0  0.96364  0.68561  0.30499  1.0000
  H   H381      1.0  0.32861  0.72462  0.31000  1.0000
  N   N31       1.0  0.03449  0.90124  0.42674  1.0000
  C   C380      1.0  0.04103  0.88644  0.40985  1.0000
  C   C381      1.0  0.99118  0.88953  0.44381  1.0000
  C   C382      1.0  0.00229  0.85952  0.40882  1.0000
  C   C383      1.0  0.95173  0.86263  0.44341  1.0000
  C   C384      1.0  0.95716  0.84763  0.42562  1.0000
  C   C385      1.0  0.97420  0.70995  0.31287  1.0000
  H   H382      1.0  0.07574  0.89566  0.39653  1.0000
  H   H383      1.0  0.98631  0.90108  0.45754  1.0000
  S   S133      1.0  0.12927  0.80299  0.28753  1.0000
  H   H384      1.0  0.91653  0.85382  0.45639  1.0000
  H   H385      1.0  0.92619  0.82695  0.42465  1.0000
  S   S134      1.0  0.07037  0.66228  0.30326  1.0000
  H   H386      1.0  0.03225  0.89729  0.29135  1.0000
  H   H387      1.0  0.68104  0.85613  0.28054  1.0000
  N   N32       1.0  0.58360  0.83333  0.34534  1.0000
  C   C386      1.0  0.54654  0.81059  0.33544  1.0000
  C   C387      1.0  0.62909  0.83602  0.35244  1.0000
  C   C388      1.0  0.55536  0.79019  0.33159  1.0000
  C   C389      1.0  0.63939  0.81611  0.34869  1.0000
  C   C390      1.0  0.60236  0.79313  0.33804  1.0000
  C   C391      1.0  0.57334  0.85437  0.34929  1.0000
  H   H388      1.0  0.51014  0.80826  0.33005  1.0000
  H   H389      1.0  0.65841  0.85393  0.36047  1.0000
  H   H390      1.0  0.52617  0.77247  0.32319  1.0000
  H   H391      1.0  0.67647  0.81886  0.35354  1.0000
  H   H392      1.0  0.61020  0.77772  0.33467  1.0000
  H   H393      1.0  0.55365  0.85702  0.33305  1.0000
  H   H394      1.0  0.54831  0.84931  0.36731  1.0000
  H   H395      1.0  0.61047  0.87402  0.35004  1.0000
  H   H396      1.0  0.27134  0.79613  0.29710  1.0000
  C   C392      1.0  0.39044  0.74102  0.27968  1.0000
  H   H397      1.0  0.98214  0.71394  0.33253  1.0000
  C   C393      1.0  0.07781  0.68869  0.28292  1.0000
  C   C394      1.0  0.37730  0.86590  0.27263  1.0000
  C   C395      1.0  0.03921  0.91234  0.27634  1.0000
  H   H398      1.0  0.05951  0.94050  0.43651  1.0000
  H   H399      1.0  0.36455  0.81390  0.28303  1.0000
  H   H400      1.0  0.10099  0.75100  0.28545  1.0000
  C   C396      1.0  0.89676  0.90003  0.50985  1.0000
  H   H401      1.0  0.96453  0.67116  0.31819  1.0000
  H   H402      1.0  0.20150  0.75298  0.28325  1.0000
  H   H403      1.0  0.02125  0.97106  0.49749  1.0000
  H   H404      1.0  0.26364  0.68894  0.28569  1.0000
  C   C397      1.0  0.30281  0.70234  0.27709  1.0000
  C   C398      1.0  0.95441  0.68053  0.27962  1.0000
  H   H405      1.0  0.95131  0.75119  0.31500  1.0000
  H   H406      1.0  0.04187  0.93924  0.30296  1.0000
  C   C399      1.0  0.24202  0.76094  0.27670  1.0000
  N   N33       1.0  0.97603  0.72877  0.29586  1.0000
  H   H407      1.0  0.99943  0.76963  0.28850  1.0000
  C   C400      1.0  0.28128  0.78521  0.28473  1.0000
  C   C401      1.0  0.98688  0.75403  0.30464  1.0000
  H   H408      1.0  0.01921  0.76207  0.31748  1.0000
  H   H409      1.0  0.94819  0.66217  0.27306  1.0000
  C   C402      1.0  0.96638  0.72381  0.27100  1.0000
  Fe  Fe69      1.0  0.96838  0.94263  0.59279  1.0000
  S   S135      1.0  0.96167  0.97066  0.61716  1.0000
  S   S136      1.0  0.00194  0.95777  0.55169  1.0000
  Fe  Fe70      1.0  0.94094  0.90227  0.63824  1.0000
  S   S137      1.0  0.93244  0.92684  0.66624  1.0000
  S   S138      1.0  0.93437  0.86423  0.65250  1.0000
  Fe  Fe71      1.0  0.88988  0.93393  0.63620  1.0000
  S   S139      1.0  0.81634  0.93163  0.65022  1.0000
  Fe  Fe72      1.0  0.00481  0.96129  0.64511  1.0000
  C   C403      1.0  0.80508  0.79283  0.63269  1.0000
  S   S140      1.0  0.89208  0.90627  0.60951  1.0000
  S   S141      1.0  0.01764  0.93627  0.61948  1.0000
  C   C404      1.0  0.87549  0.76633  0.66800  1.0000
  C   C405      1.0  0.15645  0.97092  0.59147  1.0000
  C   C406      1.0  0.19338  0.98174  0.69364  1.0000
  Fe  Fe73      1.0  0.72269  0.74583  0.74021  1.0000
  S   S142      1.0  0.72137  0.77567  0.71237  1.0000
  H   H410      1.0  0.90761  0.90503  0.54988  1.0000
  S   S143      1.0  0.66996  0.70194  0.73650  1.0000
  H   H411      1.0  0.48354  0.66313  0.72386  1.0000
  H   H412      1.0  0.77208  0.79413  0.64079  1.0000
  H   H413      1.0  0.62643  0.92643  0.67117  1.0000
  C   C407      1.0  0.83374  0.74365  0.68195  1.0000
  Fe  Fe74      1.0  0.73924  0.70003  0.74644  1.0000
  C   C408      1.0  0.87900  0.95545  0.72744  1.0000
  H   H414      1.0  0.55623  0.68631  0.75186  1.0000
  S   S144      1.0  0.75569  0.67466  0.72286  1.0000
  C   C409      1.0  0.15076  0.96904  0.76158  1.0000
  N   N34       1.0  0.81523  0.77630  0.65020  1.0000
  C   C410      1.0  0.82800  0.95982  0.66480  1.0000
  C   C411      1.0  0.77187  0.65467  0.74093  1.0000
  C   C412      1.0  0.78628  0.65988  0.76580  1.0000
  H   H415      1.0  0.79539  0.78426  0.61409  1.0000
  H   H416      1.0  0.91542  0.77162  0.66986  1.0000
  C   C413      1.0  0.79577  0.95640  0.68633  1.0000
  H   H417      1.0  0.83974  0.81366  0.62945  1.0000
  C   C414      1.0  0.65637  0.94754  0.66792  1.0000
  H   H418      1.0  0.76634  0.93651  0.69468  1.0000
  C   C415      1.0  0.87748  0.84328  0.67285  1.0000
  C   C416      1.0  0.87623  0.82425  0.69025  1.0000
  C   C417      1.0  0.82893  0.80445  0.70373  1.0000
  C   C418      1.0  0.78246  0.80329  0.69960  1.0000
  C   C419      1.0  0.78423  0.82326  0.68322  1.0000
  C   C420      1.0  0.83182  0.84340  0.66999  1.0000
  H   H419      1.0  0.91165  0.82436  0.69279  1.0000
  H   H420      1.0  0.82843  0.78963  0.71655  1.0000
  H   H421      1.0  0.74850  0.82266  0.68011  1.0000
  H   H422      1.0  0.83262  0.85817  0.65665  1.0000
  H   H423      1.0  0.73442  0.74965  0.66305  1.0000
  N   N35       1.0  0.84946  0.95781  0.74621  1.0000
  S   S145      1.0  0.79374  0.74416  0.74682  1.0000
  C   C421      1.0  0.78272  0.73747  0.67987  1.0000
  C   C422      1.0  0.15012  0.96120  0.68286  1.0000
  C   C423      1.0  0.11012  0.96464  0.67495  1.0000
  C   C424      1.0  0.86543  0.78241  0.65192  1.0000
  H   H424      1.0  0.84076  0.73099  0.69463  1.0000
  H   H425      1.0  0.14758  0.94261  0.68053  1.0000
  H   H426      1.0  0.07702  0.94872  0.66656  1.0000
  H   H427      1.0  0.10220  0.97544  0.57016  1.0000
  H   H428      1.0  0.75017  0.72004  0.69089  1.0000
  H   H429      1.0  0.77760  0.97562  0.71415  1.0000
  C   C425      1.0  0.77410  0.75416  0.66391  1.0000
  H   H430      1.0  0.89815  0.80031  0.64148  1.0000
  H   H431      1.0  0.15200  0.95467  0.58118  1.0000
  C   C426      1.0  0.48159  0.65352  0.74233  1.0000
  S   S146      1.0  0.24390  0.97726  0.70239  1.0000
  H   H432      1.0  0.17063  0.94265  0.74581  1.0000
  C   C427      1.0  0.52298  0.66652  0.75803  1.0000
  C   C428      1.0  0.80690  0.93388  0.76132  1.0000
  H   H433      1.0  0.78883  0.91643  0.74989  1.0000
  H   H434      1.0  0.94303  0.97621  0.69789  1.0000
  H   H435      1.0  0.87025  0.93594  0.72310  1.0000
  C   C429      1.0  0.14599  0.94454  0.75998  1.0000
  C   C430      1.0  0.96755  0.93973  0.52622  1.0000
  H   H436      1.0  0.61408  0.95887  0.69275  1.0000
  H   H437      1.0  0.77511  0.93685  0.76797  1.0000
  C   C431      1.0  0.92248  0.91410  0.53057  1.0000
  C   C432      1.0  0.86078  0.98245  0.75169  1.0000
  H   H438      1.0  0.70717  0.92232  0.65416  1.0000
  C   C433      1.0  0.92032  0.97814  0.71313  1.0000
  C   C434      1.0  0.12821  0.98271  0.58539  1.0000
  C   C435      1.0  0.70697  0.93661  0.63965  1.0000
  H   H439      1.0  0.67460  0.92545  0.62731  1.0000
  H   H440      1.0  0.83753  0.98435  0.76663  1.0000
  H   H441      1.0  0.74468  0.94614  0.62755  1.0000
  C   C436      1.0  0.80154  0.97862  0.69721  1.0000
  C   C437      1.0  0.64911  0.96572  0.68014  1.0000
  S   S147      1.0  0.71043  0.98333  0.73964  1.0000
  N   N36       1.0  0.70071  0.95620  0.65223  1.0000
  H   H442      1.0  0.21073  0.97055  0.61663  1.0000
  C   C438      1.0  0.18942  0.97984  0.61126  1.0000
  C   C439      1.0  0.86653  0.98560  0.65434  1.0000
  C   C440      1.0  0.73886  0.98281  0.64847  1.0000
  Fe  Fe75      1.0  0.90211  0.90999  0.91888  1.0000
  S   S148      1.0  0.97626  0.94843  0.90446  1.0000
  S   S149      1.0  0.86723  0.89795  0.95976  1.0000
  Fe  Fe76      1.0  0.87966  0.89058  0.86567  1.0000
  S   S150      1.0  0.95229  0.92722  0.84700  1.0000
  S   S151      1.0  0.82285  0.86153  0.84012  1.0000
  Fe  Fe77      1.0  0.99078  0.92264  0.88059  1.0000
  S   S152      1.0  0.06726  0.92510  0.87619  1.0000
  Fe  Fe78      1.0  0.93027  0.94920  0.87232  1.0000
  C   C441      1.0  0.68996  0.79833  0.84480  1.0000
  S   S153      1.0  0.91984  0.88386  0.89730  1.0000
  S   S154      1.0  0.85467  0.91292  0.88880  1.0000
  C   C442      1.0  0.84595  0.97470  0.90501  1.0000
  H   H443      1.0  0.01343  0.90480  0.82304  1.0000
  N   N37       1.0  0.67566  0.77055  0.84526  1.0000
  H   H444      1.0  0.77557  0.95628  0.88509  1.0000
  H   H445      1.0  0.72167  0.80989  0.85744  1.0000
  C   C443      1.0  0.62947  0.75195  0.83620  1.0000
  C   C444      1.0  0.79510  0.95413  0.90105  1.0000
  S   S155      1.0  0.71742  0.69273  0.78852  1.0000
  S   S156      1.0  0.81848  0.75758  0.81889  1.0000
  H   H446      1.0  0.02240  0.88356  0.80372  1.0000
  H   H447      1.0  0.70450  0.80833  0.82511  1.0000
  H   H448      1.0  0.72524  0.73234  0.85864  1.0000
  C   C445      1.0  0.84750  0.94897  0.94072  1.0000
  C   C446      1.0  0.79455  0.94629  0.82590  1.0000
  C   C447      1.0  0.69729  0.73744  0.85297  1.0000
  C   C448      1.0  0.84056  0.95235  0.83702  1.0000
  S   S157      1.0  0.69746  0.74200  0.78169  1.0000
  H   H449      1.0  0.82230  0.92925  0.77830  1.0000
  C   C449      1.0  0.83093  0.83560  0.83228  1.0000
  C   C450      1.0  0.85369  0.82590  0.84858  1.0000
  C   C451      1.0  0.85249  0.80261  0.84365  1.0000
  C   C452      1.0  0.82874  0.78915  0.82241  1.0000
  C   C453      1.0  0.80896  0.79985  0.80538  1.0000
  C   C454      1.0  0.80968  0.82288  0.81041  1.0000
  H   H450      1.0  0.87012  0.83561  0.86551  1.0000
  H   H451      1.0  0.86813  0.79446  0.85680  1.0000
  C   C455      1.0  0.00415  0.90087  0.00487  1.0000
  H   H452      1.0  0.79297  0.83062  0.79748  1.0000
  C   C456      1.0  0.11643  0.95452  0.85839  1.0000
  C   C457      1.0  0.16077  0.95586  0.84736  1.0000
  H   H453      1.0  0.76553  0.92580  0.82300  1.0000
  H   H454      1.0  0.65584  0.79938  0.85136  1.0000
  H   H455      1.0  0.64035  0.69796  0.84312  1.0000
  C   C458      1.0  0.79652  0.92805  0.93748  1.0000
  C   C459      1.0  0.87796  0.97869  0.84117  1.0000
  H   H456      1.0  0.78984  0.67703  0.77377  1.0000
  H   H457      1.0  0.73135  0.91430  0.91421  1.0000
  C   C460      1.0  0.11009  0.92270  0.77706  1.0000
  C   C461      1.0  0.90550  0.91573  0.98428  1.0000
  C   C462      1.0  0.95545  0.93878  0.97889  1.0000
  H   H458      1.0  0.84723  0.88829  0.01405  1.0000
  C   C463      1.0  0.96709  0.88392  0.98885  1.0000
  H   H459      1.0  0.97083  0.94653  0.95938  1.0000
  N   N38       1.0  0.05183  0.92212  0.99485  1.0000
  H   H460      1.0  0.79243  0.79021  0.78846  1.0000
  C   C464      1.0  0.64990  0.71824  0.84416  1.0000
  C   C465      1.0  0.98630  0.95151  0.99889  1.0000
  H   H461      1.0  0.94996  0.87624  0.94990  1.0000
  C   C466      1.0  0.97895  0.88888  0.96248  1.0000
  H   H462      1.0  0.84698  0.93657  0.84229  1.0000
  H   H463      1.0  0.77820  0.90974  0.95013  1.0000
  H   H464      1.0  0.23324  0.97970  0.82352  1.0000
  S   S158      1.0  0.72867  0.95827  0.80384  1.0000
  H   H465      1.0  0.16522  0.93906  0.85045  1.0000
  H   H466      1.0  0.60338  0.75761  0.82892  1.0000
  H   H467      1.0  0.86769  0.94671  0.95626  1.0000
  H   H468      1.0  0.94782  0.98521  0.93676  1.0000
  H   H469      1.0  0.57928  0.71077  0.82829  1.0000
  C   C467      1.0  0.06379  0.92713  0.96899  1.0000
  C   C468      1.0  0.02764  0.91056  0.95242  1.0000
  H   H470      1.0  0.02522  0.96910  0.99460  1.0000
  C   C469      1.0  0.61559  0.72547  0.83580  1.0000
  C   C470      1.0  0.78625  0.96660  0.81826  1.0000
  S   S159      1.0  0.57475  0.66806  0.80032  1.0000
  C   C471      1.0  0.88601  0.90600  0.00974  1.0000
  C   C472      1.0  0.77038  0.93061  0.91736  1.0000
  H   H471      1.0  0.06621  0.90000  0.82828  1.0000
  H   H472      1.0  0.92864  0.86766  0.99677  1.0000
  C   C473      1.0  0.11928  0.97137  0.77991  1.0000
  C   C474      1.0  0.08336  0.94905  0.79652  1.0000
  H   H473      1.0  0.74657  0.77843  0.86018  1.0000
  C   C475      1.0  0.70945  0.76361  0.85353  1.0000
  N   N39       1.0  0.07914  0.92511  0.79494  1.0000
  H   H474      1.0  0.03708  0.91469  0.93188  1.0000
  H   H475      1.0  0.12878  0.94325  0.00731  1.0000
  H   H476      1.0  0.05971  0.95117  0.81101  1.0000
  N   N40       1.0  0.87200  0.97163  0.92419  1.0000
  H   H477      1.0  0.09338  0.96000  0.00928  1.0000
  C   C476      1.0  0.04355  0.90223  0.81333  1.0000
  C   C477      1.0  0.11090  0.97631  0.85442  1.0000
  C   C478      1.0  0.08980  0.94039  0.01167  1.0000
  C   C479      1.0  0.19915  0.97880  0.83200  1.0000
  H   H478      1.0  0.07674  0.97540  0.86288  1.0000
  H   H479      1.0  0.10123  0.94419  0.96100  1.0000
  Fe  Fe79      1.0  0.76511  0.73735  0.78811  1.0000
  H   H480      1.0  0.10740  0.90387  0.77604  1.0000
  Fe  Fe80      1.0  0.65200  0.69796  0.77869  1.0000
  C   C480      1.0  0.52143  0.65369  0.78149  1.0000
  S   S160      1.0  0.28117  0.98489  0.77165  1.0000
