data_image0
_chemical_formula_structural       C2H2SH2CSH2C4HSH2SHFeSFeS2FeSFeS3FeHSHCSFeCSCNSFeS2FeS2FeSFeS3FeSHFeS2FeSFeS3FeS2FeS2Fe2S3CSCH4SCSCFeS2FeS2FeHFeS3H5CSNHCNCHCHC3HC6H4C6H4C6H4C6NH2C2SC3H4C6H7C2H9C2HCHFeHC7H4C6H4C6H2CHCSHC5HCH2CHC2HC2H2C6H2C3HCH2CH2C2HCHC3H2NH2C2H4FeHSHCH3CHC4HCHC3H2CNC6H10NC7HFeHCFeH2CHCHNH2CHCHSH3CS2NSHCHNHCH4SFeC2HC2NC6H5SHSNC6H5C2HNH6SHCH3C2HCH5CH4C2SCH2CHC2SCFe2H2NCHC3HCH3NC3H2CHC2FeHSCHSCHCH4C2HC3HSC2S3HC3HCH5CFeH3CFeH3CH2CHC4H4SH3C2SHFeSFeS2FeCFeS3C2SCH2CHCHFeS2FeS2FeSFeS3H3S2CFeS2FeS2FeSFeS4HC2SCHS2CFeS2FeS2FeSFeS3FeS2FeS2FeSFeS4HC2FeHSHC5NH3C6HC2HC6H4C6FeH3C6H2CH2C6H4C2H2FeCH4C6H4C2HC3HNH2C6H4C6H4CFeH3CH4FeHC14H4C6H4C6H5C2H5C2H2CSCHNHCHSHFeH4CH2FeNC2HCH2C3HC3H2NC2NCHNSHNC6H8NC7H5CHSCH3CHFeCH5SC2SH2CSC4HCHC4H5SH2CH4NC5H6C2HNC2HC3H6NC2HCHCH2C2HFeHCH2SNHSCH3FeHCHC4HC4H3SCHC3HNHNHCH2SCFeC3HCHNH2FeH2CFeC2H2SH2SHCH4NHC2SHCNCHCFeHSH3C2H2FeC2SHCHSHC2HCH3C3HC2H2NHSC2HCS3CSH2FeSCSCH3CH2FeSFeSHSHFeS2FeSFeHS2HCH2FeSHFeS2FeSFeS3FeS2FeS2FeSFeS2NCHFeS2FeCFeS3FeS2FeS2FeSFeHS2FeS2FeS2Fe2S3FeS2FeS2FeCFeS3H2C2HC2HC4H3C4HCH2CHC2H2C4H5CSC6H4C6H4C6H4C6H4C2H2C2NH3C6H4CSHCHC2HCH4C2HFeHCHC8H5C2H2SHCHC7H4C6H5CHC4SNFeH3C3HCSCH3SC2NHSCH3C2NCNC3HCNH2CNC6H8NC6H11CH2CHC2NC6H4CH3FeHCH2C2NCHCH5S2C2HSHC3HS2C4HSH2CH2NHCH2CFeC2HC2HCHSFeHCHCHCHCS2NC6H8N2HCHC2H2CH2CH2SHC2NSHC2H3C2H2SH4FeC2HNHCH2CHC2HNHC4H3CSCH3CS2FeCHCFeH2CHSHFeH2C3HC2H2CHC2H3CSH2CH2CHCFeHCHC2NCH2CSFeHCSC3HNC2H2CHC4HCNCFeSCFeCSFeS2FeSFe2S2FeS2FeSFeCFeS3HCFeS2FeS2FeSFeS5CHS2FeS2FeSFeS4FeCSFeHSCFeSHSFeS2FeS2FeSCS2FeS2FeS2FeSFeS3FeS2FeS2FeSFeS3C6H4C6H4C6H4C6H5C3HC6H4C6H3C6H4C4H2CNFeC3H2C6H4C6HCH2C6HFeH3C7H4C6H4C6H5C6NH4CNC6H8C5H2CH6SC3HCHC2SHS2H2CH4CHCFeHC2HSC2H2SHCH2CHSHSH2NC6H10SH4S2C2Fe2CHCSH4CNCHS2H4C2H4CFeHCHCHNC6H12SHC2H2SHCFeH3CH3NHC3H2NC6H12CHCH2CHCHSHCNCH6CH3CHFeNC5HSH4C3FeH2C2H2NCH2NHC2FeH3C2SCH3SHC7H3CH2CH2C3H2CHCHCHFeHC2HCH2NHC2FeSC2HSHCSC3Fe2CNC2NSCHCHCSCHFeSCH2C4FeHFeHFeS3HC2SHNH4SHCH2CHS2HFeCH3CSCNHFeH2C3HC2HS2CHCH3CHCHCH2CSC4HCH2C3FeS2FeS2FeSFe2S3FeS2FeS2FeSFeS2FeHSCHC2FeS2HSFeSHSFeS2FeS2FeSFeS4CHFeSCHFeS2FeS2Fe2S3C5H2C6H4C6H4SH2SH3C6H4SHS2C5FeH3C6H4C6H4C6H4C6H4C4HC3HCH2SNC3HC3HCH3CH4C2HCH4CSHCHCHFeCSH10C4SHC2HSHSNCH6CNHCH2CH3FeC3FeHSCSH2CNC3H2C6H5NC6NH5CHNC6H9NC3H2NHC2NHFeCHSC3H4CN2HFeH3NC2H2CHNC5H2SH2SH3C2HCH2C2FeC5HCHCHCHNH3CHCHFeH2C3H2C2SC2HSC2HSHFeS2FeS2FeSFeS3FeHCFeS2FeSH2SHFeS2FeS2FeSFeCS2FeHSCS2FeS2FeS2FeSFeS3CFeCNCSFeS2FeS2FeSFeS3HS2FeS2C6H4C2HCSHCH2C6H4C6H4C3H5C7H4C6H4CHCSHSH2CHC6H4C6H4NH2NSC6H4C6H4FeH2C3HCH4CNC2H3C7H2FeC2H5CHC3NH2C2HC2HC2H3CH2SNC6H9SH2CHC2H2CH2CH3C2HCSH4CHC2NCSH2SCHNC6H8CSCH2C2SCHC2H3CH2CH3C2HFeC3H2SH2CHCH2FeH3C4HNCHNHNCSHCHCHCHSCH2FeH2CHC2FeCNCFeHCNC6H4SH3CHC2NHC2HFeH2NCH2C3HSCH2C2H2NC2HCHC2HC3HSH3FeS2FeS2FeSFeCS2FeSFeS3FeHS2FeS2FeS2FeSFeS3HFeHSFeCSH2CHSCFeS2FeS2FeSFeS2FeS2FeS2FeCFeS3H2CHNSHCHNC4H2CSHCFeS2FeS2FeSFeS3C5H4C7H5CHCHC2H2CH3C2FeCHC6H4C6H8C2H4SCH2CHC3H2C7H6CHC2HC6H4C2HC4H3C4HCH3CNC3HCH2C6H4C6H4FeCHC6H2CNC2NC2H2C2SHNC3H3CH5CHFeCH3C6SH2FeHC2HCHNHCNC2H2NC6H9C2H3C2H3CSHCSH3CHCH2CHSHC3HSFeNC6H2CH2NC6H10CH2SCHCH2CSH2CHSCHFeCHCH4CH2NHC3HCH2CHNH2CHCH3CH2C2SC2HSHSHCN2C2SC7H3C3HFeC2SHCH2CHCH5CH2CFeSH2CHCSHC2HSHSHCHFeSCFeS2FeS2FeSFeS2HSHFeSHFe2SNHCFeS2FeCFeCS2FeHSFeCSH2SCS2HCH4SCNCHSNCH2SC2HCHFeS2FeS2FeCFeS3CH2CH2CHCFeS2FeS2FeSFeS3HC2HCH2N2HFeHS2HFeC3SH2CH2CHC5HCH4C6H5CNH2FeC2H2CHCSH6CHC3HCH3C3HC3H2SH5C2H5CHC3HC2FeC6H4C2S2NC2HC8H4CHSC2SCHCHC6H5C6H2CHC6H4FeC6H8C2H2SHSHCH2CNCHCHCH3CHCNHC2HCHCH3C2HCHCH5NHCHNC8HCHC2HSCH2C2HSCHC4HCHC2NHCH2SFeSCSH2CFeS2C2H3C2S2C3SCHSHFeCSFeSFeS2FeS2FeS2FeSHS2HNCH2C2SCH2SCHCHC2H3CHCHFeHCHNCHCSH2C2H5CHCSCHFeCH4C6H6C6H4C7H4CH2C2HNSH3CHC3H2C8H2C2HC6H4C2HCFeH2FeCNFeSFeSC5H4C2HC3H3C2SH3C2FeSH2C4HC2HC3HCH2NCNH3C2SHNHC2H8FeS2FeSFeSFeS3FeS2FeSHFeHFeS3FeS2FeHCFeS2C2HFeHSFeS2CHCHS2FeS2FeS2FeSFeS3HSC2NHCHNCHCHCHCHSFeHSHCH2S2H5C5H4NCHNSCHNCH2SH2C2SH4CH3C6H6FeC4HC6H4CHC4H4C2H2NC3H2C2H3C2NH4NCHCHCH2FeC8H4C2HC6H4C7H2CH5FeCHCH3C2H4CH3C2FeH2C2NHCSHCHCH2C4H2C2SC4SCH4CFeC2NHC3HCH9C2HC2H2C2FeS2FeSHFeSFeHS2CFeS2FeS2FeSFeS3HC2NCSCHCH2NHFeSFeSHFeS2FeS2FeSFeS3CHSHFeCSH5CH4CHCH3C6H4C3HC2H3CNC2HNC6H4C2H3NC10H3NC2H3CHC3HC4HCHCH2C6H4CH5C6H4CH2SC2HCH2CHSHSNSCNCSHSCH2CNCSC2HCH2SCHCHCHCHCH2C3NH8C3H2CH5C3NH4C4H6CSH2CSHCSCSC7SC2HCHNHC3H3NH3CHFeC2HFeC2HC3HCSCH2SHSCHC7HCNHSHFeS2FeSFeS3HSCFeCSFeH3S2H3FeS2CFeCS2CSFeSFeSCHFeS2FeS2Fe2S3CH3CNSH2FeHCH2CHSHCFeCHCHCHC6H4C6H4C6H4SNC3H3NH3C6H4CH2CFeC2H4FeC2H4NH2C6H4C4HSC2SC4HC2SHCNHC2HCHCHCHS2H3NH5C2H2CHCFeHNCSHCH2C2SHCHFeH2CH2C2HC3H2C2SH2CH2CFeS2FeS2HFeS3HC2HC3S2H4FeCHFe2CSH3SHSC3H2CHSC2HC2H2FeCSFeCHCSFeS2FeS2FeSFeS3FeS2FeS2FeSFeS3FeSCFeS2FeSFeS3H2S2FeSHSCFeS2FeS2FeSFeS3NC3HC6H3C5HC7H4C3H2C6H4NC2H2C6H2SH3C6H2C6H5SHCHC3H2C6H4SNHC5SHC3HCHC2HS2C3H2FeHCHSCH3C3SCH2C3H2C2NH3CH3C2HC3H2C2HC7H4FeSHSH4SHC6SH4NHFe2H2FeCSCH2SNCHSFeCNH2CH9SCH2NSC2H3CHCHC2SHCH2C3HC2H3SHNC6H8C2H2FeHNSCSCH2CHSCH4CHCNHCSH2CNC5H7CH2CHFeH2C2H2NC5H3SHSHFeCNC6H8SFeHCHC3H2CSCFeCH4SC3FeH6CH3NC2HNCH5FeHNC2H2CHCH2C5H2C3H4CSCNC2H3CHNS2NC6H2CH3FeCHC2NHC5HCNH2SFeC2HCHSHCFeCHCHCH6SNH4C2H2CH4CHFeS3CSHFeSH4C2FeS2FeSCFeSFeSCSCSHSH2FeSCHC2FeHSHCH3CHFeSFeSFeS2FeS2FeS2FeSFeS3FeSFeS2FeS3FeS2FeS2H2FeS3Fe2S2FeSHSCH6S3HFeC6H4C6H4C4HCH4C6H3C3H2C6H4C4H2C6H4C16H8CSCHNHC3S2CH2C2NH2SC2SHNCFeH3CH4C2H2Fe2HSH2C3H4C3HC2HCHC7H4C5H3CHC2H4SCSCHC2H2NHCH2NSHCH2CSHCSH2C2HFeHC2HNH5SC5H2CFeNC6H8S2HCH2C2FeH4C2FeSCHCHCH2C2HC2H3CHCSH2CHCH2CH5CHC2FeHCHNHC2NHCHCHSCHS2CHCHNCHCH2CNFeCHCHC2HC2HC2NC4H4N2CSH3CSHFeC3SC4HFeCHCHC3HC4FeHCSCSHCHCHCHCHCH2SCH3CNHFeH2CH2C4SCHCHCH2CH3CHCHSC2H4SCFeCH2SFeS2FeSFeC2NCNHSH3FeS2FeS2FeSFeS3FeS2HCFeSCFeHS2HFeSFeSFeS2FeS2FeSFeS3C2HSHFeS2FeS2FeSFeS3FeS2FeS2FeSFeS3FeS2CFeSCSCHC6H4C6H4C7H3C4HCH4S2C8H4C6H7CHC2HNC7H4C3HNCH2NC7H4C6H4C6H4C6FeH3C6H4CH2C8H4FeSC2HCH3FeC5NC6H5SH2C2HCHFeHSH3CH2C3H2CH8CHCSCH2NHC4H6CH6C2H3CNC2NCH2C2HC2HCH2C2H3CNC4SCH2SHCH2NC6H8C2H2CHSHNCHCHC2H3C4HCH3CSCH2CHCSH2NSHC2HCH4CHC2HC2HCHC2HC3NCHCH2NC6H9C2H2SH2CHCHCHCH3C2HSHCSHNH2SC2HNH2CH2C7H2FeHCHCH3NHCHFeH2C2H3CFeCH2FeH2C4HC2HFeHSCFeS2CHFeSFeS2FeSNSFeS2CFeS4HFeS2FeCFeSHSFeS2FeS2FeSFeS3FeSFeS2FeSC2S2FeS2FeS2FeSFeS3H2SC2SH3C6H4C6H4C6H4C5HC2HC6H4SFeHNH3C8H4C6H4C6SH3C5H3C6H4C6H5CSCHNS2C3HCHC2H3CNC6HCH3C2HCH3C2H2C3SCHFe2HCHC2H5CHSNSH5C3SCHC2HFeSCNH2CH3CFeHC3H3CSH2SHFeCH3CHFeHC2HC2NHNC6H5CH2NC4HCH4CH3NC6H4SCFeSHFeSH4FeHCSCH2FeCHSCH2CNHCHCH2SCSHCHS2HC2H4CHCHCSCH2C2HC3HFeCHC2NFeCNC5H5C2H2SCH2FeSH3CH3N2H3CHC2HSH3CHSH2CHCH2C2H2FeHSH2S2CHCH2SH2SHCHC2HFeSC3FeS2FeSCFeSFeS3FeS2Fe2HFeSFeCS2H2FeS2Fe2SFeHS3HC2HSC2HFeS2HFeS2CFeHC3H4C6H4C3HCFeHCH2FeH2CHCH2CHC2HC3SH2C3H2C6H2CHSC6H5S2C2HCH2SC6H5SH2C2SH3C7FeH4CSHCH3NCNC3HCH3C2H3CSH3CHS2C2HSFeC2H2SH2CHC2NFeC2HFeSHC2HCHCHCNCFeNC2HCHSH2NC6H9SCHC2H2CNH2CH3S2HCHC5H2CHC2H2SHFeCFeH2CFeH2SFeC2HCSHNC6H8SH2CHSC3SCHC2HNC4H2C3HC2H2SCHSFeHC7H2NCHC2H2SH2C3NC5SC4HCHSHC4HCH2C2HCH3SC2Fe2H4NHCH2S2C3HSC2S2CNCNC3H2CHCH2CHC2HCH2C2H2SCHS2NHSHSHNCH4CNSH4CH4FeCHC3HCNHCHFe3H2SNC3SFeS2FeSHSCH5C2FeSH2FeS2FeS2FeSFeS3FeS2HSHFe2S2H2CHC3HSHCH2CH2SC2S2FeS2FeS2FeHFeSHCS2H2C2H2S2H2CSCFeS2CH2C2SH3Fe2C2HC8H4C6H5CH3C2HCNFeCH5SC2SH5C4HCHCH2FeH8C6H3CSC6H4C7H5C3SCH3CHCH3C2H3C4H2FeCNC3H4CNH2CN2CS2CHCHC2N2C5FeH2CHFeCHCNC6H8NH3C2HCH3SHSC2HCHNC2HC3HCHSHSHC2HCHCSHSC3FeCH2C2FeCH6CNC2H2NC2HNC4NH4CHNC3HCHCH2CH4NH2SFeNC2HCHCHFeCH2FeCHC2H2C2FeHSHC2H2S2CS2CHCHC2SH2C2HCHC5HCHSC2H4C3H3C3FeHSC3H3C3H2SCHC3HCHSHSCHCH2C2HC2SCSHCH2SHC2S2HFeS2FeS2FeSFeS3FeS2FeSCFeSFeS3CSHFeS2FeS2FeSFeS3FeS2FeS2FeSFeS3H2FeSFeS2FeSHCSHFeSFeSCSCSCH5FeSHSH2CH2C2HC2H2CH3C6H4C6H4C6H4C6H4C6H6CH4CHC5H3C5NH2SC7H4CHCH2C6HCH2C6H4C2H2CH2C6H4C6H3SH2SHC3NC5H4CH2NH2CHC2HCHC3HCS2CFeHNH2CH3CSC2SHCH4NC6H8NC4FeCH2C2HFeHCH3CH2SH6CHNCH3SHCHFeH3SCH2NC5FeCSHCHCSCNC6H8NC4HCH2C2HCH3C2NH4CHNC2NCH3CHNCH2NHC4H2SHC4HCS2C3H3C2HSHC4NHCH2Fe2CH7C2FeCHC2H5CFeHCHSHSC2SC2H2NFeH2CSFeC3H2FeSC2SCFeS2FeS2FeSFeS3FeS2FeS2FeSFeS4HSCHSCH2SHC2HSH3FeS2FeS2FeSFeS3FeS2FeS2FeSFeS3FeS2FeSFeSFeS2FeS2FeSFeNS2C3H3C6H4C6H4C6H4C7H7C8H4CHSHC3H2SCNC6H3C7H4C6H4C2FeCHCH2CHC6H4C2HC2H3C6H9CH4CH2C2HC6H4NHFeHCHNHC2SC2H9C2HCNHN2C6H8SNH3CH3C2H2CH3CNHCNC5HSCHCHCNC6HC2H3CNC6H8NC6H10CHNH3CH2CHCH2C4HCHS2HCH2C6NCHCH3CH2CH2NCHCH3CHCSHCNC6H2SHCHCHC2SC2HC2HCH2NHC2NC3H2CH6CHC3H2FeHCHCSCH2C2NC3H5CHCH2
_chemical_formula_sum              "C3744 H3744 S1248 Fe624 N312"
_cell_length_a       90.6128
_cell_length_b       90.7622
_cell_length_c       90.6684
_cell_angle_alpha    73.9163
_cell_angle_beta     73.9466
_cell_angle_gamma    73.9971

_space_group_name_H-M_alt    "P 1"
_space_group_IT_number       1

loop_
  _space_group_symop_operation_xyz
  'x, y, z'

loop_
  _atom_site_type_symbol
  _atom_site_label
  _atom_site_symmetry_multiplicity
  _atom_site_fract_x
  _atom_site_fract_y
  _atom_site_fract_z
  _atom_site_occupancy
  C   C1        1.0  0.99642  0.31540  0.40813  1.0000
  C   C2        1.0  0.06198  0.26507  0.00656  1.0000
  H   H1        1.0  0.05920  0.33900  0.29967  1.0000
  H   H2        1.0  0.17925  0.12488  0.12028  1.0000
  S   S1        1.0  0.00986  0.27480  0.18486  1.0000
  H   H3        1.0  0.06099  0.29773  0.11820  1.0000
  H   H4        1.0  0.10044  0.42265  0.08815  1.0000
  C   C3        1.0  0.03246  0.24473  0.10940  1.0000
  S   S2        1.0  0.00978  0.23586  0.13500  1.0000
  H   H5        1.0  0.99770  0.16685  0.32514  1.0000
  H   H6        1.0  0.02760  0.32282  0.35527  1.0000
  C   C4        1.0  0.02277  0.27656  0.11018  1.0000
  C   C5        1.0  0.03475  0.35754  0.32023  1.0000
  C   C6        1.0  0.09277  0.26805  0.99184  1.0000
  C   C7        1.0  0.11183  0.21411  0.99688  1.0000
  H   H7        1.0  0.17102  0.20640  0.06305  1.0000
  S   S3        1.0  0.16592  0.41568  0.05095  1.0000
  H   H8        1.0  0.04999  0.26408  0.01223  1.0000
  H   H9        1.0  0.01898  0.28888  0.11052  1.0000
  S   S4        1.0  0.18203  0.04412  0.14219  1.0000
  H   H10       1.0  0.04311  0.20484  0.42627  1.0000
  Fe  Fe1       1.0  0.11647  0.02060  0.28224  1.0000
  S   S5        1.0  0.11969  0.03390  0.25716  1.0000
  Fe  Fe2       1.0  0.11857  0.04833  0.29403  1.0000
  S   S6        1.0  0.12188  0.06381  0.26989  1.0000
  S   S7        1.0  0.11672  0.05923  0.31412  1.0000
  Fe  Fe3       1.0  0.10303  0.05408  0.26682  1.0000
  S   S8        1.0  0.08319  0.06888  0.25531  1.0000
  Fe  Fe4       1.0  0.13819  0.04229  0.26275  1.0000
  S   S9        1.0  0.16215  0.04283  0.24725  1.0000
  S   S10       1.0  0.09833  0.04020  0.29159  1.0000
  S   S11       1.0  0.13641  0.02735  0.28719  1.0000
  Fe  Fe5       1.0  0.17291  0.10810  0.34609  1.0000
  H   H11       1.0  0.02117  0.25089  0.24638  1.0000
  S   S12       1.0  0.15254  0.12258  0.36051  1.0000
  H   H12       1.0  0.11719  0.05031  0.34876  1.0000
  C   C8        1.0  0.05498  0.26315  0.31857  1.0000
  S   S13       1.0  0.17057  0.10258  0.32436  1.0000
  Fe  Fe6       1.0  0.01224  0.12522  0.29509  1.0000
  C   C9        1.0  0.14955  0.21016  0.08039  1.0000
  S   S14       1.0  0.03134  0.10519  0.30319  1.0000
  C   C10       1.0  0.10570  0.36935  0.08854  1.0000
  N   N1        1.0  0.03885  0.34256  0.31785  1.0000
  S   S15       1.0  0.01053  0.14734  0.30254  1.0000
  Fe  Fe7       1.0  0.06789  0.16755  0.34628  1.0000
  S   S16       1.0  0.04682  0.16914  0.33694  1.0000
  S   S17       1.0  0.08687  0.14657  0.34012  1.0000
  Fe  Fe8       1.0  0.05215  0.19721  0.35915  1.0000
  S   S18       1.0  0.03009  0.20064  0.35098  1.0000
  S   S19       1.0  0.05267  0.21734  0.36885  1.0000
  Fe  Fe9       1.0  0.03275  0.17477  0.35988  1.0000
  S   S20       1.0  0.01194  0.16473  0.37433  1.0000
  Fe  Fe10      1.0  0.04626  0.19482  0.32880  1.0000
  S   S21       1.0  0.03958  0.20868  0.30602  1.0000
  S   S22       1.0  0.05366  0.17146  0.37010  1.0000
  S   S23       1.0  0.06842  0.19307  0.33620  1.0000
  Fe  Fe11      1.0  0.02176  0.29684  0.25568  1.0000
  S   S24       1.0  0.04706  0.29375  0.24292  1.0000
  H   H13       1.0  0.04475  0.04632  0.31778  1.0000
  Fe  Fe12      1.0  0.02618  0.31442  0.27845  1.0000
  S   S25       1.0  0.05184  0.31290  0.26715  1.0000
  S   S26       1.0  0.01580  0.31865  0.30314  1.0000
  Fe  Fe13      1.0  0.04415  0.31881  0.24421  1.0000
  S   S27       1.0  0.05224  0.33653  0.22240  1.0000
  Fe  Fe14      1.0  0.05237  0.28813  0.26685  1.0000
  S   S28       1.0  0.07033  0.26772  0.27633  1.0000
  S   S29       1.0  0.01817  0.32238  0.25553  1.0000
  S   S30       1.0  0.02736  0.28924  0.27944  1.0000
  Fe  Fe15      1.0  0.10452  0.27433  0.06866  1.0000
  S   S31       1.0  0.08891  0.25892  0.08556  1.0000
  S   S32       1.0  0.12321  0.28018  0.07659  1.0000
  Fe  Fe16      1.0  0.09161  0.27468  0.04071  1.0000
  S   S33       1.0  0.07464  0.25962  0.05552  1.0000
  S   S34       1.0  0.09621  0.28085  0.01425  1.0000
  Fe  Fe17      1.0  0.07034  0.27465  0.07288  1.0000
  Fe  Fe18      1.0  0.09492  0.24552  0.06653  1.0000
  S   S35       1.0  0.10149  0.21913  0.07139  1.0000
  S   S36       1.0  0.08563  0.29110  0.05707  1.0000
  S   S37       1.0  0.11217  0.25965  0.05070  1.0000
  C   C11       1.0  0.02542  0.34786  0.34800  1.0000
  S   S38       1.0  0.18596  0.16782  0.06874  1.0000
  C   C12       1.0  0.01509  0.47385  0.38185  1.0000
  H   H14       1.0  0.99650  0.19288  0.38574  1.0000
  H   H15       1.0  0.00060  0.19678  0.29059  1.0000
  H   H16       1.0  0.02088  0.19122  0.29211  1.0000
  H   H17       1.0  0.00120  0.21883  0.21603  1.0000
  S   S39       1.0  0.16968  0.19866  0.03218  1.0000
  C   C13       1.0  0.06133  0.02689  0.30896  1.0000
  S   S40       1.0  0.00212  0.34489  0.39415  1.0000
  C   C14       1.0  0.11280  0.98506  0.27695  1.0000
  Fe  Fe19      1.0  0.13175  0.36121  0.12771  1.0000
  S   S41       1.0  0.13573  0.34738  0.10955  1.0000
  S   S42       1.0  0.13420  0.38655  0.12076  1.0000
  Fe  Fe20      1.0  0.12666  0.33288  0.15479  1.0000
  S   S43       1.0  0.13128  0.31672  0.13837  1.0000
  S   S44       1.0  0.12131  0.32157  0.18072  1.0000
  Fe  Fe21      1.0  0.15084  0.32890  0.12439  1.0000
  H   H18       1.0  0.07549  0.22014  0.98970  1.0000
  Fe  Fe22      1.0  0.11586  0.33674  0.12521  1.0000
  S   S45       1.0  0.09672  0.33281  0.11643  1.0000
  S   S46       1.0  0.14793  0.34320  0.14194  1.0000
  S   S47       1.0  0.11009  0.35235  0.14226  1.0000
  H   H19       1.0  0.04129  0.34941  0.29295  1.0000
  H   H20       1.0  0.07258  0.22652  0.33275  1.0000
  H   H21       1.0  0.05391  0.29612  0.98633  1.0000
  H   H22       1.0  0.06492  0.26871  0.31536  1.0000
  H   H23       1.0  0.01770  0.27087  0.31326  1.0000
  C   C15       1.0  0.07063  0.23928  0.33217  1.0000
  S   S48       1.0  0.18041  0.15291  0.04186  1.0000
  N   N2        1.0  0.18551  0.26138  0.12362  1.0000
  H   H24       1.0  0.18637  0.13630  0.01782  1.0000
  C   C16       1.0  0.00586  0.28236  0.23374  1.0000
  N   N3        1.0  0.14856  0.02775  0.18917  1.0000
  C   C17       1.0  0.13667  0.03561  0.19906  1.0000
  H   H25       1.0  0.00085  0.32684  0.33262  1.0000
  C   C18       1.0  0.10033  0.21403  0.98938  1.0000
  H   H26       1.0  0.12160  0.41723  0.08173  1.0000
  C   C19       1.0  0.00135  0.33768  0.32386  1.0000
  C   C20       1.0  0.10071  0.37430  0.10272  1.0000
  C   C21       1.0  0.04083  0.25558  0.09854  1.0000
  H   H27       1.0  0.99660  0.40993  0.40141  1.0000
  C   C22       1.0  0.11568  0.29477  0.08769  1.0000
  C   C23       1.0  0.12598  0.29991  0.09318  1.0000
  C   C24       1.0  0.12020  0.31158  0.10201  1.0000
  C   C25       1.0  0.10407  0.31816  0.10539  1.0000
  C   C26       1.0  0.09375  0.31302  0.09991  1.0000
  C   C27       1.0  0.09954  0.30131  0.09110  1.0000
  H   H28       1.0  0.13846  0.29492  0.09050  1.0000
  H   H29       1.0  0.12826  0.31558  0.10606  1.0000
  H   H30       1.0  0.08129  0.31815  0.10241  1.0000
  H   H31       1.0  0.09153  0.29742  0.08687  1.0000
  C   C28       1.0  0.11948  0.21223  0.05928  1.0000
  C   C29       1.0  0.12866  0.19739  0.06426  1.0000
  C   C30       1.0  0.14395  0.19273  0.05558  1.0000
  C   C31       1.0  0.14996  0.20294  0.04192  1.0000
  C   C32       1.0  0.14041  0.21730  0.03644  1.0000
  C   C33       1.0  0.12515  0.22185  0.04503  1.0000
  H   H32       1.0  0.12420  0.18976  0.07514  1.0000
  H   H33       1.0  0.15123  0.18149  0.05973  1.0000
  H   H34       1.0  0.14495  0.22511  0.02574  1.0000
  H   H35       1.0  0.11783  0.23285  0.04061  1.0000
  C   C34       1.0  0.07173  0.33269  0.21138  1.0000
  C   C35       1.0  0.07569  0.34224  0.19643  1.0000
  C   C36       1.0  0.09090  0.33908  0.18701  1.0000
  C   C37       1.0  0.10233  0.32644  0.19255  1.0000
  C   C38       1.0  0.09845  0.31707  0.20765  1.0000
  C   C39       1.0  0.08316  0.32008  0.21699  1.0000
  H   H36       1.0  0.06693  0.35207  0.19208  1.0000
  H   H37       1.0  0.09377  0.34648  0.17551  1.0000
  H   H38       1.0  0.10725  0.30730  0.21205  1.0000
  H   H39       1.0  0.08024  0.31269  0.22854  1.0000
  C   C40       1.0  0.00759  0.33717  0.30798  1.0000
  C   C41       1.0  0.13646  0.22122  0.08579  1.0000
  C   C42       1.0  0.99629  0.35205  0.32860  1.0000
  C   C43       1.0  0.02794  0.36042  0.33529  1.0000
  C   C44       1.0  0.16126  0.06252  0.19551  1.0000
  C   C45       1.0  0.00818  0.35121  0.29674  1.0000
  N   N4        1.0  0.13125  0.05757  0.35976  1.0000
  H   H40       1.0  0.06258  0.01976  0.32051  1.0000
  H   H41       1.0  0.01290  0.35094  0.28444  1.0000
  C   C46       1.0  0.04112  0.21879  0.38777  1.0000
  C   C47       1.0  0.02724  0.23042  0.38965  1.0000
  S   S49       1.0  0.17402  0.31989  0.10933  1.0000
  C   C48       1.0  0.01902  0.23277  0.40477  1.0000
  C   C49       1.0  0.03853  0.21189  0.41609  1.0000
  C   C50       1.0  0.04661  0.20942  0.40106  1.0000
  H   H42       1.0  0.02308  0.23789  0.37940  1.0000
  H   H43       1.0  0.03960  0.31830  0.32832  1.0000
  H   H44       1.0  0.09931  0.39239  0.11440  1.0000
  H   H45       1.0  0.05745  0.20064  0.39971  1.0000
  C   C51       1.0  0.04900  0.22442  0.29683  1.0000
  C   C52       1.0  0.04185  0.23726  0.28662  1.0000
  C   C53       1.0  0.04871  0.25032  0.27977  1.0000
  C   C54       1.0  0.06270  0.25066  0.28324  1.0000
  C   C55       1.0  0.07022  0.23755  0.29295  1.0000
  C   C56       1.0  0.06335  0.22445  0.29977  1.0000
  H   H46       1.0  0.03082  0.23728  0.28425  1.0000
  H   H47       1.0  0.04315  0.26010  0.27179  1.0000
  H   H48       1.0  0.08123  0.23764  0.29537  1.0000
  H   H49       1.0  0.06924  0.21438  0.30717  1.0000
  H   H50       1.0  0.02826  0.17202  0.21454  1.0000
  H   H51       1.0  0.14730  0.41410  0.10768  1.0000
  H   H52       1.0  0.13652  0.07172  0.20337  1.0000
  C   C57       1.0  0.01825  0.28565  0.20599  1.0000
  C   C58       1.0  0.01710  0.28806  0.22095  1.0000
  H   H53       1.0  0.06507  0.30294  0.99549  1.0000
  H   H54       1.0  0.99328  0.23022  0.28974  1.0000
  H   H55       1.0  0.02690  0.29011  0.19609  1.0000
  H   H56       1.0  0.02481  0.29438  0.22260  1.0000
  H   H57       1.0  0.05105  0.25161  0.08992  1.0000
  H   H58       1.0  0.15191  0.08095  0.33003  1.0000
  H   H59       1.0  0.01614  0.20747  0.23733  1.0000
  H   H60       1.0  0.04230  0.30081  0.11317  1.0000
  H   H61       1.0  0.16004  0.42568  0.08043  1.0000
  C   C59       1.0  0.00396  0.16634  0.34659  1.0000
  C   C60       1.0  0.04995  0.05078  0.29250  1.0000
  H   H62       1.0  0.04461  0.22879  0.33710  1.0000
  C   C61       1.0  0.02484  0.22368  0.41801  1.0000
  H   H63       1.0  0.01352  0.17223  0.34062  1.0000
  Fe  Fe23      1.0  0.18248  0.05350  0.16240  1.0000
  H   H64       1.0  0.03629  0.36743  0.31039  1.0000
  C   C62       1.0  0.00297  0.36566  0.30148  1.0000
  C   C63       1.0  0.13403  0.12875  0.35534  1.0000
  C   C64       1.0  0.13059  0.12216  0.34481  1.0000
  C   C65       1.0  0.11591  0.12751  0.34060  1.0000
  C   C66       1.0  0.10467  0.13972  0.34662  1.0000
  C   C67       1.0  0.10802  0.14628  0.35726  1.0000
  C   C68       1.0  0.12263  0.14069  0.36171  1.0000
  H   H65       1.0  0.13914  0.11286  0.33996  1.0000
  H   H66       1.0  0.11338  0.12236  0.33239  1.0000
  H   H67       1.0  0.09937  0.15561  0.36206  1.0000
  H   H68       1.0  0.12516  0.14575  0.36998  1.0000
  C   C69       1.0  0.06930  0.08023  0.26790  1.0000
  C   C70       1.0  0.07159  0.07917  0.28281  1.0000
  C   C71       1.0  0.05985  0.08695  0.29348  1.0000
  C   C72       1.0  0.04594  0.09626  0.28914  1.0000
  C   C73       1.0  0.04377  0.09774  0.27406  1.0000
  C   C74       1.0  0.05541  0.08961  0.26348  1.0000
  H   H69       1.0  0.08236  0.07226  0.28623  1.0000
  H   H70       1.0  0.06159  0.08572  0.30513  1.0000
  H   H71       1.0  0.03300  0.10484  0.27069  1.0000
  H   H72       1.0  0.05359  0.09046  0.25195  1.0000
  C   C75       1.0  0.13516  0.05943  0.31662  1.0000
  C   C76       1.0  0.14767  0.04645  0.31527  1.0000
  C   C77       1.0  0.16162  0.04577  0.31956  1.0000
  C   C78       1.0  0.16326  0.05823  0.32484  1.0000
  C   C79       1.0  0.15096  0.07148  0.32559  1.0000
  C   C80       1.0  0.13688  0.07201  0.32165  1.0000
  H   H73       1.0  0.14633  0.03659  0.31163  1.0000
  H   H74       1.0  0.17106  0.03545  0.31904  1.0000
  C   C81       1.0  0.11443  0.39356  0.07591  1.0000
  H   H75       1.0  0.12719  0.08203  0.32278  1.0000
  C   C82       1.0  0.01788  0.16749  0.21619  1.0000
  S   S50       1.0  0.01408  0.18055  0.26339  1.0000
  H   H76       1.0  0.04647  0.12990  0.30442  1.0000
  C   C83       1.0  0.02842  0.26445  0.31722  1.0000
  C   C84       1.0  0.17539  0.05481  0.20017  1.0000
  C   C85       1.0  0.17555  0.04885  0.21610  1.0000
  C   C86       1.0  0.16164  0.05105  0.22749  1.0000
  C   C87       1.0  0.14763  0.05972  0.22297  1.0000
  H   H77       1.0  0.02373  0.45271  0.39783  1.0000
  C   C88       1.0  0.00334  0.22897  0.28002  1.0000
  H   H78       1.0  0.10427  0.35798  0.08810  1.0000
  H   H79       1.0  0.13689  0.06173  0.23178  1.0000
  C   C89       1.0  0.10289  0.38881  0.10324  1.0000
  H   H80       1.0  0.10465  0.26934  0.98603  1.0000
  C   C90       1.0  0.14842  0.03160  0.17240  1.0000
  C   C91       1.0  0.11116  0.41373  0.09051  1.0000
  H   H81       1.0  0.09351  0.24165  0.02891  1.0000
  C   C92       1.0  0.08593  0.27224  0.00635  1.0000
  C   C93       1.0  0.07060  0.27051  0.01384  1.0000
  H   H82       1.0  0.12533  0.24581  0.08280  1.0000
  H   H83       1.0  0.06515  0.27398  0.02494  1.0000
  C   C94       1.0  0.15856  0.40717  0.07067  1.0000
  C   C95       1.0  0.15377  0.39296  0.07399  1.0000
  C   C96       1.0  0.14695  0.38622  0.08942  1.0000
  C   C97       1.0  0.14442  0.39385  0.10162  1.0000
  C   C98       1.0  0.14931  0.40805  0.09833  1.0000
  C   C99       1.0  0.15655  0.41460  0.08292  1.0000
  H   H84       1.0  0.15526  0.38718  0.06455  1.0000
  H   H85       1.0  0.14315  0.37543  0.09168  1.0000
  C   C100      1.0  0.99857  0.20189  0.41856  1.0000
  C   C101      1.0  0.17035  0.28297  0.10803  1.0000
  C   C102      1.0  0.17182  0.23541  0.04653  1.0000
  H   H86       1.0  0.13562  0.14215  0.29231  1.0000
  C   C103      1.0  0.04635  0.33980  0.30201  1.0000
  H   H87       1.0  0.03547  0.31683  0.19175  1.0000
  H   H88       1.0  0.02425  0.37238  0.33697  1.0000
  C   C104      1.0  0.03600  0.27151  0.09899  1.0000
  H   H89       1.0  0.18360  0.25865  0.14819  1.0000
  H   H90       1.0  0.09533  0.36682  0.11327  1.0000
  C   C105      1.0  0.18279  0.10913  0.09112  1.0000
  C   C106      1.0  0.05134  0.04174  0.30744  1.0000
  H   H91       1.0  0.03380  0.20165  0.26662  1.0000
  C   C107      1.0  0.02973  0.24889  0.32559  1.0000
  H   H92       1.0  0.12554  0.14444  0.98697  1.0000
  C   C108      1.0  0.01966  0.18808  0.40021  1.0000
  C   C109      1.0  0.99504  0.16321  0.33780  1.0000
  C   C110      1.0  0.04107  0.27168  0.31380  1.0000
  H   H93       1.0  0.06971  0.24085  0.34415  1.0000
  H   H94       1.0  0.08108  0.24335  0.32401  1.0000
  N   N5        1.0  0.00326  0.19598  0.40524  1.0000
  H   H95       1.0  0.18353  0.07751  0.12202  1.0000
  H   H96       1.0  0.00394  0.41835  0.42180  1.0000
  C   C111      1.0  0.02601  0.21305  0.26716  1.0000
  C   C112      1.0  0.02282  0.46532  0.39394  1.0000
  H   H97       1.0  0.02517  0.19515  0.38896  1.0000
  H   H98       1.0  0.00999  0.46788  0.37630  1.0000
  H   H99       1.0  0.11288  0.41366  0.10223  1.0000
  H   H100      1.0  0.99199  0.35218  0.34091  1.0000
  Fe  Fe24      1.0  0.18415  0.43051  0.04412  1.0000
  H   H101      1.0  0.99810  0.25358  0.26856  1.0000
  S   S51       1.0  0.18582  0.08379  0.35590  1.0000
  H   H102      1.0  0.00898  0.31152  0.40726  1.0000
  C   C113      1.0  0.02899  0.22602  0.25505  1.0000
  H   H103      1.0  0.18938  0.13658  0.12573  1.0000
  H   H104      1.0  0.15045  0.19777  0.08576  1.0000
  H   H105      1.0  0.14606  0.25403  0.06023  1.0000
  C   C114      1.0  0.00040  0.16191  0.36304  1.0000
  H   H106      1.0  0.18286  0.07784  0.26194  1.0000
  C   C115      1.0  0.13653  0.03241  0.21508  1.0000
  C   C116      1.0  0.13536  0.23708  0.07861  1.0000
  C   C117      1.0  0.12605  0.08376  0.36388  1.0000
  C   C118      1.0  0.01034  0.20103  0.29214  1.0000
  H   H107      1.0  0.02009  0.24303  0.32812  1.0000
  C   C119      1.0  0.03657  0.33015  0.33025  1.0000
  H   H108      1.0  0.05786  0.05216  0.26767  1.0000
  C   C120      1.0  0.06172  0.30441  0.98416  1.0000
  C   C121      1.0  0.04369  0.24083  0.33050  1.0000
  C   C122      1.0  0.01892  0.24068  0.25558  1.0000
  H   H109      1.0  0.15387  0.04325  0.36218  1.0000
  H   H110      1.0  0.04023  0.28374  0.30718  1.0000
  C   C123      1.0  0.18480  0.29915  0.13468  1.0000
  N   N6        1.0  0.05985  0.31630  0.18773  1.0000
  C   C124      1.0  0.06416  0.32431  0.17258  1.0000
  C   C125      1.0  0.07053  0.30441  0.19458  1.0000
  C   C126      1.0  0.07959  0.32065  0.16395  1.0000
  C   C127      1.0  0.08607  0.30047  0.18631  1.0000
  C   C128      1.0  0.09062  0.30872  0.17095  1.0000
  C   C129      1.0  0.04362  0.32050  0.19649  1.0000
  H   H111      1.0  0.05571  0.33379  0.16720  1.0000
  H   H112      1.0  0.06724  0.29827  0.20670  1.0000
  H   H113      1.0  0.08310  0.32721  0.15204  1.0000
  H   H114      1.0  0.09470  0.29156  0.19202  1.0000
  H   H115      1.0  0.10278  0.30618  0.16466  1.0000
  H   H116      1.0  0.04230  0.31490  0.20922  1.0000
  H   H117      1.0  0.04010  0.33338  0.19580  1.0000
  H   H118      1.0  0.18144  0.17283  0.99542  1.0000
  H   H119      1.0  0.00849  0.24192  0.40613  1.0000
  H   H120      1.0  0.18627  0.05346  0.19150  1.0000
  N   N7        1.0  0.15159  0.15321  0.32224  1.0000
  C   C130      1.0  0.16172  0.14505  0.31149  1.0000
  C   C131      1.0  0.13592  0.15803  0.32204  1.0000
  C   C132      1.0  0.15615  0.14096  0.30056  1.0000
  C   C133      1.0  0.12993  0.15413  0.31130  1.0000
  C   C134      1.0  0.14013  0.14544  0.30057  1.0000
  C   C135      1.0  0.15768  0.15743  0.33354  1.0000
  C   C136      1.0  0.99409  0.44295  0.41406  1.0000
  H   H121      1.0  0.12787  0.16458  0.33049  1.0000
  Fe  Fe25      1.0  0.99625  0.24317  0.15758  1.0000
  H   H122      1.0  0.11740  0.15751  0.31158  1.0000
  C   C137      1.0  0.99362  0.42221  0.40188  1.0000
  Fe  Fe26      1.0  0.99450  0.26016  0.18250  1.0000
  H   H123      1.0  0.18648  0.04243  0.21958  1.0000
  H   H124      1.0  0.16151  0.16872  0.32833  1.0000
  C   C138      1.0  0.14744  0.06546  0.20692  1.0000
  H   H125      1.0  0.03446  0.46659  0.41113  1.0000
  C   C139      1.0  0.02977  0.33261  0.34549  1.0000
  H   H126      1.0  0.04432  0.32878  0.30056  1.0000
  N   N8        1.0  0.10969  0.39822  0.08993  1.0000
  H   H127      1.0  0.17916  0.28665  0.08296  1.0000
  H   H128      1.0  0.17011  0.01058  0.18699  1.0000
  C   C140      1.0  0.12607  0.04523  0.35621  1.0000
  H   H129      1.0  0.11777  0.00314  0.25635  1.0000
  C   C141      1.0  0.00074  0.14982  0.23118  1.0000
  H   H130      1.0  0.00366  0.37650  0.29277  1.0000
  S   S52       1.0  0.18002  0.05627  0.33198  1.0000
  H   H131      1.0  0.09118  0.22250  0.04092  1.0000
  H   H132      1.0  0.06496  0.12986  0.30796  1.0000
  H   H133      1.0  0.11667  0.37521  0.06397  1.0000
  C   C142      1.0  0.07004  0.02140  0.29544  1.0000
  S   S53       1.0  0.11185  0.99603  0.29064  1.0000
  S   S54       1.0  0.00564  0.48219  0.44468  1.0000
  N   N9        1.0  0.15963  0.23064  0.06016  1.0000
  S   S55       1.0  0.00431  0.28488  0.25269  1.0000
  H   H134      1.0  0.11824  0.09520  0.36413  1.0000
  C   C143      1.0  0.14894  0.02149  0.22089  1.0000
  H   H135      1.0  0.18375  0.14225  0.10689  1.0000
  N   N10       1.0  0.01343  0.21469  0.27954  1.0000
  H   H136      1.0  0.05842  0.11164  0.31258  1.0000
  C   C144      1.0  0.00823  0.27747  0.20378  1.0000
  H   H137      1.0  0.04317  0.30424  0.13162  1.0000
  H   H138      1.0  0.17517  0.22718  0.03846  1.0000
  H   H139      1.0  0.04233  0.06242  0.29115  1.0000
  H   H140      1.0  0.07801  0.00995  0.29670  1.0000
  S   S56       1.0  0.16073  0.06736  0.17553  1.0000
  Fe  Fe27      1.0  0.18475  0.07886  0.33328  1.0000
  C   C145      1.0  0.00322  0.18917  0.24867  1.0000
  C   C146      1.0  0.00744  0.17447  0.20619  1.0000
  H   H141      1.0  0.00465  0.26973  0.12987  1.0000
  C   C147      1.0  0.17285  0.27373  0.12266  1.0000
  C   C148      1.0  0.12130  0.07192  0.36036  1.0000
  N   N11       1.0  0.04776  0.28015  0.13029  1.0000
  C   C149      1.0  0.05764  0.26857  0.12308  1.0000
  C   C150      1.0  0.03653  0.27653  0.14354  1.0000
  C   C151      1.0  0.05643  0.25289  0.12909  1.0000
  C   C152      1.0  0.03507  0.26097  0.14990  1.0000
  C   C153      1.0  0.04499  0.24911  0.14255  1.0000
  C   C154      1.0  0.04857  0.29657  0.12303  1.0000
  H   H142      1.0  0.06608  0.27154  0.11223  1.0000
  H   H143      1.0  0.02845  0.28566  0.14919  1.0000
  H   H144      1.0  0.06388  0.24385  0.12296  1.0000
  H   H145      1.0  0.02604  0.25821  0.16027  1.0000
  H   H146      1.0  0.04351  0.23709  0.14703  1.0000
  S   S57       1.0  0.00604  0.23556  0.17931  1.0000
  H   H147      1.0  0.14864  0.15842  0.34458  1.0000
  S   S58       1.0  0.04691  0.28517  0.08658  1.0000
  N   N12       1.0  0.04667  0.12645  0.32860  1.0000
  C   C155      1.0  0.03124  0.12542  0.33419  1.0000
  C   C156      1.0  0.05488  0.12882  0.33803  1.0000
  C   C157      1.0  0.02344  0.12747  0.34935  1.0000
  C   C158      1.0  0.04749  0.13076  0.35332  1.0000
  C   C159      1.0  0.03163  0.13022  0.35894  1.0000
  C   C160      1.0  0.05458  0.12436  0.31263  1.0000
  H   H148      1.0  0.02484  0.12311  0.32689  1.0000
  H   H149      1.0  0.06715  0.12950  0.33369  1.0000
  H   H150      1.0  0.01105  0.12719  0.35353  1.0000
  H   H151      1.0  0.05396  0.13309  0.36058  1.0000
  H   H152      1.0  0.02563  0.13212  0.37062  1.0000
  C   C161      1.0  0.00675  0.20237  0.23712  1.0000
  C   C162      1.0  0.18700  0.01414  0.11481  1.0000
  H   H153      1.0  0.02022  0.17629  0.39841  1.0000
  N   N13       1.0  0.05617  0.24789  0.32676  1.0000
  H   H154      1.0  0.12722  0.03891  0.22277  1.0000
  H   H155      1.0  0.99798  0.14046  0.24124  1.0000
  H   H156      1.0  0.17420  0.14153  0.31138  1.0000
  H   H157      1.0  0.17376  0.30369  0.14205  1.0000
  H   H158      1.0  0.08956  0.01656  0.26923  1.0000
  H   H159      1.0  0.18079  0.46002  0.98543  1.0000
  S   S59       1.0  0.00007  0.44852  0.42833  1.0000
  H   H160      1.0  0.11989  0.40100  0.06536  1.0000
  C   C163      1.0  0.11563  0.99144  0.26077  1.0000
  H   H161      1.0  0.13609  0.03787  0.34937  1.0000
  H   H162      1.0  0.07178  0.01886  0.26270  1.0000
  H   H163      1.0  0.11633  0.22008  0.01635  1.0000
  C   C164      1.0  0.18086  0.27943  0.09435  1.0000
  C   C165      1.0  0.16062  0.01678  0.19481  1.0000
  H   H164      1.0  0.12707  0.21749  0.09534  1.0000
  C   C166      1.0  0.17740  0.36080  0.10546  1.0000
  H   H165      1.0  0.11745  0.98778  0.23775  1.0000
  H   H166      1.0  0.18437  0.39491  0.10752  1.0000
  H   H167      1.0  0.18772  0.18905  0.99820  1.0000
  H   H168      1.0  0.15039  0.04370  0.16708  1.0000
  H   H169      1.0  0.03625  0.23240  0.10907  1.0000
  C   C167      1.0  0.99722  0.36610  0.31746  1.0000
  H   H170      1.0  0.08206  0.03480  0.25716  1.0000
  H   H171      1.0  0.17002  0.13550  0.00031  1.0000
  H   H172      1.0  0.15776  0.02341  0.16594  1.0000
  H   H173      1.0  0.10976  0.07437  0.35779  1.0000
  C   C168      1.0  0.18226  0.13602  0.99561  1.0000
  C   C169      1.0  0.14715  0.24164  0.06577  1.0000
  S   S60       1.0  0.00880  0.13780  0.27085  1.0000
  C   C170      1.0  0.99711  0.27164  0.21661  1.0000
  H   H174      1.0  0.00688  0.20078  0.42563  1.0000
  H   H175      1.0  0.01989  0.34995  0.35973  1.0000
  C   C171      1.0  0.17806  0.09969  0.10592  1.0000
  H   H176      1.0  0.00735  0.30773  0.45533  1.0000
  C   C172      1.0  0.05883  0.04493  0.27925  1.0000
  C   C173      1.0  0.07852  0.02490  0.26677  1.0000
  S   S61       1.0  0.00137  0.38511  0.36349  1.0000
  C   C174      1.0  0.16111  0.21511  0.06750  1.0000
  Fe  Fe28      1.0  0.00447  0.15989  0.27929  1.0000
  Fe  Fe29      1.0  0.18352  0.17591  0.04362  1.0000
  H   H177      1.0  0.16271  0.06364  0.36854  1.0000
  H   H178      1.0  0.16778  0.14813  0.33707  1.0000
  N   N14       1.0  0.06900  0.03060  0.28083  1.0000
  C   C175      1.0  0.14102  0.08081  0.36687  1.0000
  H   H179      1.0  0.13695  0.03092  0.17076  1.0000
  C   C176      1.0  0.14584  0.05450  0.36294  1.0000
  C   C177      1.0  0.99827  0.20883  0.22511  1.0000
  C   C178      1.0  0.01465  0.26569  0.12120  1.0000
  H   H180      1.0  0.17154  0.37324  0.12408  1.0000
  C   C179      1.0  0.08756  0.23185  0.03088  1.0000
  H   H181      1.0  0.12740  0.04468  0.19450  1.0000
  H   H182      1.0  0.06813  0.23010  0.01402  1.0000
  H   H183      1.0  0.12093  0.03765  0.36727  1.0000
  N   N15       1.0  0.09182  0.22560  0.01663  1.0000
  C   C180      1.0  0.16108  0.01361  0.21070  1.0000
  C   C181      1.0  0.06867  0.26133  0.99180  1.0000
  C   C182      1.0  0.08045  0.22545  0.00942  1.0000
  H   H184      1.0  0.12415  0.20976  0.99206  1.0000
  H   H185      1.0  0.16765  0.10422  0.11404  1.0000
  C   C183      1.0  0.15096  0.06607  0.36647  1.0000
  H   H186      1.0  0.14494  0.08998  0.36937  1.0000
  C   C184      1.0  0.10734  0.21998  0.01059  1.0000
  C   C185      1.0  0.08453  0.21977  0.99564  1.0000
  Fe  Fe30      1.0  0.18570  0.14405  0.06597  1.0000
  H   H187      1.0  0.07470  0.23655  0.03429  1.0000
  S   S62       1.0  0.17256  0.12873  0.08648  1.0000
  C   C186      1.0  0.11266  0.37900  0.07503  1.0000
  H   H188      1.0  0.16478  0.27676  0.13323  1.0000
  S   S63       1.0  0.01554  0.22649  0.43719  1.0000
  C   C187      1.0  0.01951  0.24974  0.12091  1.0000
  H   H189      1.0  0.17091  0.00529  0.21503  1.0000
  C   C188      1.0  0.08416  0.26263  0.98456  1.0000
  H   H190      1.0  0.02673  0.18648  0.40900  1.0000
  H   H191      1.0  0.03906  0.22471  0.24535  1.0000
  H   H192      1.0  0.16763  0.24732  0.03962  1.0000
  H   H193      1.0  0.99160  0.29237  0.41948  1.0000
  C   C189      1.0  0.99274  0.19754  0.39632  1.0000
  C   C190      1.0  0.18728  0.07330  0.22966  1.0000
  H   H194      1.0  0.05506  0.31661  0.98076  1.0000
  C   C191      1.0  0.00595  0.24218  0.26808  1.0000
  C   C192      1.0  0.18722  0.06666  0.25780  1.0000
  C   C193      1.0  0.18471  0.38526  0.10249  1.0000
  H   H195      1.0  0.16426  0.13428  0.29222  1.0000
  S   S64       1.0  0.18543  0.00035  0.15804  1.0000
  C   C194      1.0  0.02891  0.47311  0.40137  1.0000
  C   C195      1.0  0.99589  0.27414  0.23155  1.0000
  S   S65       1.0  0.05738  0.25516  0.98270  1.0000
  S   S66       1.0  0.99200  0.38423  0.32324  1.0000
  S   S67       1.0  0.18564  0.45068  0.02308  1.0000
  H   H196      1.0  0.17474  0.07368  0.23266  1.0000
  C   C196      1.0  0.99776  0.42702  0.41341  1.0000
  C   C197      1.0  0.18431  0.36101  0.08964  1.0000
  C   C198      1.0  0.99369  0.16900  0.20900  1.0000
  H   H197      1.0  0.18241  0.23534  0.05048  1.0000
  C   C199      1.0  0.18703  0.08455  0.11043  1.0000
  H   H198      1.0  0.16056  0.29305  0.10733  1.0000
  H   H199      1.0  0.17627  0.01904  0.12239  1.0000
  H   H200      1.0  0.14934  0.01944  0.23318  1.0000
  H   H201      1.0  0.17172  0.35133  0.11259  1.0000
  H   H202      1.0  0.00952  0.18460  0.19680  1.0000
  C   C200      1.0  0.01459  0.15503  0.22872  1.0000
  Fe  Fe31      1.0  0.99162  0.24220  0.44315  1.0000
  H   H203      1.0  0.02246  0.14980  0.23678  1.0000
  H   H204      1.0  0.17912  0.99353  0.11552  1.0000
  H   H205      1.0  0.00732  0.20407  0.30384  1.0000
  C   C201      1.0  0.17748  0.37302  0.11194  1.0000
  Fe  Fe32      1.0  0.99211  0.47318  0.43278  1.0000
  H   H206      1.0  0.18425  0.40838  0.99140  1.0000
  H   H207      1.0  0.17706  0.06127  0.25943  1.0000
  H   H208      1.0  0.18124  0.24199  0.14238  1.0000
  C   C202      1.0  0.99538  0.30606  0.45828  1.0000
  H   H209      1.0  0.18395  0.35166  0.08452  1.0000
  H   H210      1.0  0.09068  0.30774  0.98200  1.0000
  C   C203      1.0  0.18826  0.13218  0.11592  1.0000
  H   H211      1.0  0.18844  0.07885  0.20465  1.0000
  C   C204      1.0  0.18773  0.25157  0.13901  1.0000
  C   C205      1.0  0.18796  0.30548  0.11849  1.0000
  C   C206      1.0  0.18858  0.99985  0.11093  1.0000
  C   C207      1.0  0.99111  0.18262  0.24828  1.0000
  H   H212      1.0  0.99835  0.28809  0.47925  1.0000
  H   H213      1.0  0.16838  0.21702  0.92263  1.0000
  H   H214      1.0  0.06538  0.10943  0.75670  1.0000
  H   H215      1.0  0.02538  0.39526  0.64731  1.0000
  S   S68       1.0  0.03639  0.35644  0.66720  1.0000
  H   H216      1.0  0.04902  0.10896  0.74933  1.0000
  H   H217      1.0  0.09962  0.16723  0.94520  1.0000
  H   H218      1.0  0.09812  0.37496  0.82287  1.0000
  C   C208      1.0  0.10299  0.30085  0.96021  1.0000
  C   C209      1.0  0.17498  0.08038  0.71310  1.0000
  S   S69       1.0  0.16537  0.38995  0.90497  1.0000
  H   H219      1.0  0.04204  0.24468  0.77085  1.0000
  Fe  Fe33      1.0  0.06458  0.24706  0.92782  1.0000
  S   S70       1.0  0.06854  0.26654  0.93624  1.0000
  Fe  Fe34      1.0  0.08918  0.22252  0.94339  1.0000
  S   S71       1.0  0.09508  0.23981  0.95291  1.0000
  S   S72       1.0  0.10322  0.19814  0.95073  1.0000
  Fe  Fe35      1.0  0.06920  0.24907  0.95913  1.0000
  C   C210      1.0  0.13564  0.14384  0.97672  1.0000
  Fe  Fe36      1.0  0.09413  0.25567  0.92932  1.0000
  S   S73       1.0  0.11438  0.26779  0.91913  1.0000
  S   S74       1.0  0.06305  0.23039  0.95150  1.0000
  S   S75       1.0  0.09035  0.23762  0.91899  1.0000
  C   C211      1.0  0.12158  0.15478  0.93329  1.0000
  C   C212      1.0  0.05280  0.11480  0.75650  1.0000
  S   S76       1.0  0.16604  0.18273  0.90065  1.0000
  C   C213      1.0  0.17868  0.11546  0.77460  1.0000
  H   H220      1.0  0.01195  0.23914  0.88942  1.0000
  H   H221      1.0  0.18635  0.07832  0.70447  1.0000
  C   C214      1.0  0.00194  0.18853  0.82449  1.0000
  H   H222      1.0  0.10137  0.98902  0.77311  1.0000
  C   C215      1.0  0.00103  0.31528  0.62195  1.0000
  H   H223      1.0  0.00193  0.43867  0.63040  1.0000
  Fe  Fe37      1.0  0.15068  0.35552  0.84244  1.0000
  S   S77       1.0  0.14773  0.33531  0.86306  1.0000
  S   S78       1.0  0.16383  0.37375  0.84170  1.0000
  Fe  Fe38      1.0  0.13573  0.34316  0.82292  1.0000
  S   S79       1.0  0.13218  0.32183  0.84186  1.0000
  S   S80       1.0  0.12821  0.34747  0.79990  1.0000
  Fe  Fe39      1.0  0.12396  0.33844  0.85810  1.0000
  S   S81       1.0  0.10136  0.33547  0.87558  1.0000
  Fe  Fe40      1.0  0.15615  0.32064  0.84494  1.0000
  S   S82       1.0  0.17281  0.29740  0.84989  1.0000
  S   S83       1.0  0.12601  0.36012  0.83897  1.0000
  S   S84       1.0  0.16076  0.34051  0.82443  1.0000
  H   H224      1.0  0.13726  0.31706  0.75897  1.0000
  H   H225      1.0  0.05195  0.22020  0.92232  1.0000
  H   H226      1.0  0.99785  0.21870  0.55971  1.0000
  S   S85       1.0  0.14441  0.08130  0.81573  1.0000
  S   S86       1.0  0.15927  0.05765  0.85531  1.0000
  C   C216      1.0  0.00093  0.20206  0.74592  1.0000
  Fe  Fe41      1.0  0.06361  0.06697  0.77924  1.0000
  S   S87       1.0  0.06990  0.07154  0.75290  1.0000
  S   S88       1.0  0.04079  0.07663  0.79443  1.0000
  Fe  Fe42      1.0  0.09682  0.04983  0.78260  1.0000
  S   S89       1.0  0.10606  0.05303  0.75658  1.0000
  S   S90       1.0  0.11175  0.03616  0.80017  1.0000
  Fe  Fe43      1.0  0.09140  0.07755  0.75525  1.0000
  S   S91       1.0  0.09910  0.09961  0.74036  1.0000
  Fe  Fe44      1.0  0.08384  0.04662  0.75665  1.0000
  S   S92       1.0  0.08632  0.03022  0.74112  1.0000
  S   S93       1.0  0.08404  0.07494  0.78133  1.0000
  S   S94       1.0  0.07566  0.04146  0.78289  1.0000
  S   S95       1.0  0.01441  0.22554  0.85416  1.0000
  H   H227      1.0  0.02076  0.22452  0.79714  1.0000
  C   C217      1.0  0.99202  0.17667  0.80935  1.0000
  C   C218      1.0  0.01717  0.30001  0.74809  1.0000
  S   S96       1.0  0.16867  0.16901  0.70141  1.0000
  C   C219      1.0  0.06274  0.13855  0.74184  1.0000
  H   H228      1.0  0.01035  0.36838  0.69103  1.0000
  S   S97       1.0  0.99954  0.34372  0.66356  1.0000
  S   S98       1.0  0.17429  0.08794  0.83389  1.0000
  C   C220      1.0  0.07032  0.35758  0.82163  1.0000
  Fe  Fe45      1.0  0.08560  0.20739  0.68673  1.0000
  S   S99       1.0  0.08177  0.23126  0.67056  1.0000
  S   S100      1.0  0.10440  0.18669  0.67942  1.0000
  Fe  Fe46      1.0  0.06085  0.21827  0.71362  1.0000
  S   S101      1.0  0.05529  0.24320  0.70038  1.0000
  S   S102      1.0  0.05044  0.20906  0.73898  1.0000
  Fe  Fe47      1.0  0.05590  0.23272  0.68030  1.0000
  S   S103      1.0  0.03718  0.24796  0.66681  1.0000
  Fe  Fe48      1.0  0.08128  0.24034  0.69134  1.0000
  S   S104      1.0  0.09638  0.25805  0.68498  1.0000
  S   S105      1.0  0.05958  0.20775  0.69446  1.0000
  S   S106      1.0  0.08685  0.21657  0.70673  1.0000
  Fe  Fe49      1.0  0.06533  0.31764  0.77748  1.0000
  S   S107      1.0  0.04020  0.31935  0.77696  1.0000
  S   S108      1.0  0.07078  0.32063  0.79930  1.0000
  Fe  Fe50      1.0  0.07770  0.30625  0.74706  1.0000
  S   S109      1.0  0.05390  0.30684  0.74399  1.0000
  S   S110      1.0  0.09991  0.29859  0.73008  1.0000
  Fe  Fe51      1.0  0.04699  0.32989  0.75120  1.0000
  S   S111      1.0  0.02928  0.34958  0.74016  1.0000
  Fe  Fe52      1.0  0.04913  0.29622  0.76982  1.0000
  S   S112      1.0  0.03712  0.27580  0.77833  1.0000
  S   S113      1.0  0.07138  0.33037  0.75226  1.0000
  S   S114      1.0  0.07369  0.29355  0.77228  1.0000
  S   S115      1.0  0.04706  0.25432  0.91215  1.0000
  H   H229      1.0  0.02049  0.16389  0.74663  1.0000
  C   C221      1.0  0.08923  0.36795  0.82689  1.0000
  C   C222      1.0  0.18564  0.34203  0.87067  1.0000
  Fe  Fe53      1.0  0.01566  0.36047  0.65636  1.0000
  H   H230      1.0  0.00866  0.45125  0.58008  1.0000
  S   S116      1.0  0.17555  0.42215  0.92025  1.0000
  H   H231      1.0  0.14486  0.14215  0.92457  1.0000
  C   C223      1.0  0.00122  0.29990  0.62156  1.0000
  C   C224      1.0  0.04610  0.34491  0.69494  1.0000
  C   C225      1.0  0.04471  0.34332  0.71109  1.0000
  C   C226      1.0  0.03110  0.35111  0.71996  1.0000
  C   C227      1.0  0.01870  0.36013  0.71267  1.0000
  N   N16       1.0  0.16204  0.08897  0.70517  1.0000
  H   H232      1.0  0.05689  0.33928  0.68805  1.0000
  H   H233      1.0  0.05439  0.33646  0.71656  1.0000
  H   H234      1.0  0.00821  0.36633  0.71943  1.0000
  C   C228      1.0  0.03144  0.24311  0.65193  1.0000
  C   C229      1.0  0.03928  0.22961  0.64613  1.0000
  C   C230      1.0  0.03499  0.22668  0.63359  1.0000
  C   C231      1.0  0.02280  0.23717  0.62680  1.0000
  C   C232      1.0  0.01482  0.25058  0.63273  1.0000
  C   C233      1.0  0.01915  0.25353  0.64524  1.0000
  H   H235      1.0  0.04876  0.22150  0.65119  1.0000
  C   C234      1.0  0.01985  0.23506  0.75879  1.0000
  C   C235      1.0  0.13653  0.14583  0.93474  1.0000
  H   H236      1.0  0.01301  0.26399  0.64967  1.0000
  C   C236      1.0  0.09677  0.26883  0.69822  1.0000
  C   C237      1.0  0.08557  0.26948  0.71234  1.0000
  C   C238      1.0  0.08627  0.27871  0.72225  1.0000
  C   C239      1.0  0.09831  0.28705  0.71810  1.0000
  C   C240      1.0  0.10953  0.28613  0.70409  1.0000
  C   C241      1.0  0.10867  0.27722  0.69413  1.0000
  H   H237      1.0  0.07638  0.26295  0.71560  1.0000
  H   H238      1.0  0.07770  0.27916  0.73320  1.0000
  H   H239      1.0  0.11883  0.29253  0.70082  1.0000
  H   H240      1.0  0.11730  0.27683  0.68320  1.0000
  C   C242      1.0  0.13940  0.08695  0.75591  1.0000
  C   C243      1.0  0.00927  0.25934  0.81943  1.0000
  C   C244      1.0  0.01904  0.26081  0.80436  1.0000
  C   C245      1.0  0.02501  0.27436  0.79728  1.0000
  C   C246      1.0  0.02104  0.28655  0.80527  1.0000
  C   C247      1.0  0.01103  0.28521  0.82026  1.0000
  Fe  Fe54      1.0  0.18945  0.14072  0.94183  1.0000
  H   H241      1.0  0.02213  0.25135  0.79827  1.0000
  H   H242      1.0  0.02566  0.29699  0.79999  1.0000
  H   H243      1.0  0.99355  0.22261  0.79947  1.0000
  C   C248      1.0  0.00794  0.21093  0.73176  1.0000
  C   C249      1.0  0.02338  0.21265  0.72940  1.0000
  C   C250      1.0  0.03170  0.20577  0.74135  1.0000
  C   C251      1.0  0.02474  0.19682  0.75552  1.0000
  C   C252      1.0  0.00939  0.19484  0.75776  1.0000
  C   C253      1.0  0.11107  0.15975  0.94633  1.0000
  H   H244      1.0  0.02866  0.21963  0.71846  1.0000
  H   H245      1.0  0.03114  0.19159  0.76484  1.0000
  C   C254      1.0  0.02626  0.29895  0.58419  1.0000
  H   H246      1.0  0.02558  0.28719  0.65250  1.0000
  H   H247      1.0  0.04379  0.00024  0.74503  1.0000
  C   C255      1.0  0.14996  0.17102  0.69783  1.0000
  C   C256      1.0  0.14806  0.16386  0.68683  1.0000
  C   C257      1.0  0.13378  0.16823  0.68175  1.0000
  C   C258      1.0  0.12132  0.17970  0.68769  1.0000
  C   C259      1.0  0.12302  0.18611  0.69932  1.0000
  C   C260      1.0  0.13728  0.18190  0.70428  1.0000
  H   H248      1.0  0.15785  0.15558  0.68164  1.0000
  H   H249      1.0  0.13259  0.16314  0.67278  1.0000
  H   H250      1.0  0.11358  0.19464  0.70426  1.0000
  H   H251      1.0  0.13864  0.18747  0.71279  1.0000
  C   C261      1.0  0.08238  0.01159  0.75042  1.0000
  C   C262      1.0  0.08906  0.99935  0.74247  1.0000
  H   H252      1.0  0.05215  0.02513  0.74057  1.0000
  H   H253      1.0  0.17405  0.07856  0.79333  1.0000
  Fe  Fe55      1.0  0.99230  0.24412  0.85579  1.0000
  C   C263      1.0  0.07177  0.00908  0.76491  1.0000
  H   H254      1.0  0.09718  0.00127  0.73120  1.0000
  H   H255      1.0  0.14207  0.27073  0.88516  1.0000
  H   H256      1.0  0.00790  0.29005  0.62859  1.0000
  H   H257      1.0  0.06633  0.01858  0.77099  1.0000
  C   C264      1.0  0.02688  0.08972  0.78411  1.0000
  C   C265      1.0  0.01567  0.10125  0.79116  1.0000
  C   C266      1.0  0.00476  0.11213  0.78293  1.0000
  C   C267      1.0  0.00487  0.11133  0.76772  1.0000
  C   C268      1.0  0.01602  0.09975  0.76069  1.0000
  C   C269      1.0  0.02706  0.08899  0.76885  1.0000
  H   H258      1.0  0.01545  0.10186  0.80297  1.0000
  H   H259      1.0  0.04124  0.21630  0.62904  1.0000
  H   H260      1.0  0.01611  0.09908  0.74893  1.0000
  H   H261      1.0  0.03551  0.07997  0.76343  1.0000
  C   C270      1.0  0.11718  0.09995  0.74367  1.0000
  C   C271      1.0  0.12468  0.08717  0.75363  1.0000
  H   H262      1.0  0.17679  0.10082  0.68540  1.0000
  C   C272      1.0  0.14684  0.09942  0.74800  1.0000
  C   C273      1.0  0.13941  0.11226  0.73795  1.0000
  C   C274      1.0  0.12449  0.11258  0.73588  1.0000
  H   H263      1.0  0.11921  0.07734  0.75946  1.0000
  N   N17       1.0  0.05024  0.13176  0.74994  1.0000
  H   H264      1.0  0.14503  0.12202  0.73192  1.0000
  H   H265      1.0  0.11874  0.12252  0.72813  1.0000
  C   C275      1.0  0.13692  0.06802  0.81060  1.0000
  C   C276      1.0  0.12851  0.07356  0.79864  1.0000
  C   C277      1.0  0.12128  0.06359  0.79509  1.0000
  C   C278      1.0  0.12222  0.04810  0.80356  1.0000
  C   C279      1.0  0.13076  0.04247  0.81545  1.0000
  C   C280      1.0  0.13825  0.05238  0.81891  1.0000
  H   H266      1.0  0.12746  0.08564  0.79217  1.0000
  H   H267      1.0  0.11474  0.06800  0.78595  1.0000
  H   H268      1.0  0.13121  0.03058  0.82221  1.0000
  H   H269      1.0  0.14454  0.04813  0.82834  1.0000
  C   C281      1.0  0.11240  0.33976  0.79975  1.0000
  C   C282      1.0  0.10789  0.34199  0.78552  1.0000
  C   C283      1.0  0.09527  0.33601  0.78510  1.0000
  C   C284      1.0  0.08707  0.32781  0.79896  1.0000
  C   C285      1.0  0.09163  0.32554  0.81315  1.0000
  C   C286      1.0  0.10421  0.33152  0.81356  1.0000
  H   H270      1.0  0.11416  0.34841  0.77479  1.0000
  H   H271      1.0  0.09174  0.33793  0.77413  1.0000
  H   H272      1.0  0.08531  0.31922  0.82392  1.0000
  H   H273      1.0  0.10743  0.32988  0.82462  1.0000
  C   C287      1.0  0.17732  0.25821  0.89590  1.0000
  Fe  Fe56      1.0  0.16273  0.07082  0.83019  1.0000
  H   H274      1.0  0.05839  0.34219  0.84123  1.0000
  H   H275      1.0  0.99675  0.17972  0.84955  1.0000
  H   H276      1.0  0.01638  0.29527  0.58216  1.0000
  C   C288      1.0  0.16514  0.26826  0.88901  1.0000
  H   H277      1.0  0.00139  0.21654  0.72260  1.0000
  H   H278      1.0  0.16025  0.10498  0.89973  1.0000
  H   H279      1.0  0.13740  0.22699  0.70493  1.0000
  H   H280      1.0  0.00700  0.42445  0.57997  1.0000
  Fe  Fe57      1.0  0.99933  0.24896  0.59800  1.0000
  H   H281      1.0  0.11212  0.29292  0.93839  1.0000
  C   C289      1.0  0.07156  0.00650  0.71200  1.0000
  C   C290      1.0  0.04311  0.22436  0.91531  1.0000
  C   C291      1.0  0.13007  0.23090  0.69598  1.0000
  C   C292      1.0  0.06761  0.99441  0.77119  1.0000
  C   C293      1.0  0.04635  0.25918  0.60331  1.0000
  C   C294      1.0  0.11577  0.15587  0.96064  1.0000
  C   C295      1.0  0.16251  0.01072  0.80586  1.0000
  C   C296      1.0  0.17109  0.10330  0.78329  1.0000
  C   C297      1.0  0.11025  0.28666  0.90731  1.0000
  C   C298      1.0  0.09535  0.29340  0.90395  1.0000
  C   C299      1.0  0.09245  0.30861  0.89452  1.0000
  C   C300      1.0  0.10457  0.31687  0.88815  1.0000
  C   C301      1.0  0.11941  0.31009  0.89157  1.0000
  C   C302      1.0  0.12217  0.29513  0.90131  1.0000
  H   H282      1.0  0.08610  0.28689  0.90848  1.0000
  H   H283      1.0  0.08096  0.31381  0.89186  1.0000
  H   H284      1.0  0.12871  0.31648  0.88693  1.0000
  H   H285      1.0  0.13361  0.29012  0.90415  1.0000
  C   C303      1.0  0.12089  0.19458  0.93686  1.0000
  C   C304      1.0  0.12152  0.20099  0.92085  1.0000
  C   C305      1.0  0.13548  0.19745  0.90977  1.0000
  C   C306      1.0  0.14878  0.18729  0.91466  1.0000
  C   C307      1.0  0.14820  0.18093  0.93069  1.0000
  C   C308      1.0  0.13431  0.18470  0.94178  1.0000
  H   H286      1.0  0.11112  0.20829  0.91693  1.0000
  H   H287      1.0  0.13587  0.20232  0.89737  1.0000
  H   H288      1.0  0.15841  0.17306  0.93456  1.0000
  H   H289      1.0  0.13395  0.17988  0.95416  1.0000
  C   C309      1.0  0.16413  0.38676  0.88704  1.0000
  C   C310      1.0  0.17302  0.39320  0.87260  1.0000
  C   C311      1.0  0.17245  0.38951  0.85870  1.0000
  C   C312      1.0  0.16309  0.37930  0.85914  1.0000
  C   C313      1.0  0.15397  0.37312  0.87354  1.0000
  C   C314      1.0  0.15450  0.37684  0.88741  1.0000
  H   H290      1.0  0.01111  0.29946  0.66474  1.0000
  H   H291      1.0  0.99359  0.28532  0.61126  1.0000
  H   H292      1.0  0.14657  0.36540  0.87400  1.0000
  H   H293      1.0  0.14750  0.37192  0.89853  1.0000
  H   H294      1.0  0.05961  0.26122  0.87817  1.0000
  C   C315      1.0  0.19040  0.29978  0.85244  1.0000
  C   C316      1.0  0.12602  0.22182  0.67469  1.0000
  H   H295      1.0  0.14512  0.07700  0.76368  1.0000
  H   H296      1.0  0.04896  0.24715  0.60194  1.0000
  H   H297      1.0  0.14464  0.07947  0.72383  1.0000
  H   H298      1.0  0.11783  0.23006  0.70233  1.0000
  H   H299      1.0  0.17607  0.08725  0.72100  1.0000
  C   C317      1.0  0.17578  0.24301  0.90410  1.0000
  C   C318      1.0  0.05907  0.30172  0.67537  1.0000
  H   H300      1.0  0.04988  0.32537  0.66388  1.0000
  H   H301      1.0  0.04595  0.11234  0.76881  1.0000
  C   C319      1.0  0.07442  0.29581  0.95942  1.0000
  S   S117      1.0  0.01907  0.20509  0.89658  1.0000
  C   C320      1.0  0.01099  0.30828  0.76015  1.0000
  H   H302      1.0  0.15833  0.10547  0.78664  1.0000
  N   N18       1.0  0.13572  0.22131  0.68409  1.0000
  H   H303      1.0  0.11424  0.22909  0.67613  1.0000
  C   C321      1.0  0.16491  0.09931  0.69105  1.0000
  H   H304      1.0  0.07736  0.01567  0.70424  1.0000
  S   S118      1.0  0.00433  0.26878  0.57745  1.0000
  H   H305      1.0  0.02109  0.30162  0.72319  1.0000
  Fe  Fe58      1.0  0.00610  0.34252  0.63813  1.0000
  H   H306      1.0  0.10777  0.16047  0.97047  1.0000
  H   H307      1.0  0.01245  0.30231  0.77197  1.0000
  H   H308      1.0  0.06336  0.29356  0.95910  1.0000
  H   H309      1.0  0.18798  0.26207  0.89485  1.0000
  C   C322      1.0  0.01590  0.30775  0.73273  1.0000
  H   H310      1.0  0.13010  0.24342  0.69023  1.0000
  H   H311      1.0  0.17217  0.45569  0.92954  1.0000
  Fe  Fe59      1.0  0.18301  0.04281  0.84751  1.0000
  N   N19       1.0  0.16241  0.23799  0.90553  1.0000
  C   C323      1.0  0.00526  0.44681  0.60526  1.0000
  C   C324      1.0  0.15044  0.24775  0.89878  1.0000
  H   H312      1.0  0.18401  0.34858  0.89810  1.0000
  C   C325      1.0  0.99499  0.22932  0.77440  1.0000
  H   H313      1.0  0.99613  0.32464  0.78142  1.0000
  H   H314      1.0  0.00800  0.29464  0.82641  1.0000
  C   C326      1.0  0.13812  0.31066  0.78340  1.0000
  C   C327      1.0  0.11464  0.99109  0.80383  1.0000
  C   C328      1.0  0.99541  0.17892  0.83834  1.0000
  H   H315      1.0  0.11828  0.15819  0.92199  1.0000
  C   C329      1.0  0.08593  0.36032  0.84273  1.0000
  C   C330      1.0  0.04179  0.23250  0.77087  1.0000
  C   C331      1.0  0.02660  0.24573  0.90059  1.0000
  H   H316      1.0  0.07264  0.34461  0.86013  1.0000
  H   H317      1.0  0.14261  0.15248  0.97597  1.0000
  N   N20       1.0  0.00353  0.32375  0.75705  1.0000
  C   C332      1.0  0.03810  0.24048  0.90964  1.0000
  C   C333      1.0  0.10603  0.98502  0.78368  1.0000
  N   N21       1.0  0.17587  0.99793  0.80945  1.0000
  C   C334      1.0  0.99802  0.33255  0.76959  1.0000
  H   H318      1.0  0.10618  0.00854  0.78469  1.0000
  N   N22       1.0  0.05996  0.00955  0.72482  1.0000
  S   S119      1.0  0.16448  0.08445  0.87930  1.0000
  H   H319      1.0  0.09204  0.36151  0.85095  1.0000
  N   N23       1.0  0.07509  0.06506  0.82284  1.0000
  C   C335      1.0  0.06676  0.08012  0.81894  1.0000
  C   C336      1.0  0.08901  0.06224  0.82735  1.0000
  C   C337      1.0  0.07271  0.09286  0.81880  1.0000
  C   C338      1.0  0.09520  0.07470  0.82753  1.0000
  C   C339      1.0  0.08709  0.09009  0.82302  1.0000
  C   C340      1.0  0.06883  0.05178  0.82285  1.0000
  H   H320      1.0  0.05557  0.08238  0.81564  1.0000
  H   H321      1.0  0.09557  0.05030  0.83055  1.0000
  H   H322      1.0  0.06624  0.10479  0.81534  1.0000
  H   H323      1.0  0.10639  0.07243  0.83083  1.0000
  H   H324      1.0  0.09199  0.09983  0.82278  1.0000
  H   H325      1.0  0.06035  0.05536  0.81502  1.0000
  H   H326      1.0  0.07846  0.04238  0.81840  1.0000
  H   H327      1.0  0.06275  0.04696  0.83495  1.0000
  N   N24       1.0  0.05373  0.24463  0.86925  1.0000
  C   C341      1.0  0.05277  0.25941  0.87095  1.0000
  C   C342      1.0  0.04498  0.24235  0.86029  1.0000
  C   C343      1.0  0.04243  0.27232  0.86400  1.0000
  C   C344      1.0  0.03472  0.25504  0.85298  1.0000
  C   C345      1.0  0.03333  0.27007  0.85499  1.0000
  C   C346      1.0  0.06455  0.23116  0.87662  1.0000
  C   C347      1.0  0.07635  0.99141  0.70890  1.0000
  H   H328      1.0  0.04568  0.23062  0.85899  1.0000
  H   H329      1.0  0.04135  0.28393  0.86581  1.0000
  H   H330      1.0  0.02772  0.25324  0.84595  1.0000
  H   H331      1.0  0.02511  0.27990  0.84964  1.0000
  H   H332      1.0  0.00548  0.25877  0.62754  1.0000
  C   C348      1.0  0.17994  0.08811  0.78701  1.0000
  H   H333      1.0  0.06747  0.23365  0.88671  1.0000
  S   S120      1.0  0.99684  0.38216  0.65135  1.0000
  C   C349      1.0  0.00078  0.22623  0.78794  1.0000
  H   H334      1.0  0.04414  0.03177  0.72302  1.0000
  H   H335      1.0  0.08939  0.25990  0.97316  1.0000
  H   H336      1.0  0.17908  0.11564  0.90692  1.0000
  C   C350      1.0  0.18758  0.00065  0.81451  1.0000
  H   H337      1.0  0.02733  0.23826  0.74731  1.0000
  Fe  Fe60      1.0  0.18274  0.40269  0.90715  1.0000
  C   C351      1.0  0.00070  0.18700  0.80997  1.0000
  H   H338      1.0  0.18038  0.40095  0.87217  1.0000
  H   H339      1.0  0.08576  0.98883  0.69893  1.0000
  H   H340      1.0  0.16195  0.02112  0.81037  1.0000
  H   H341      1.0  0.15488  0.11682  0.67282  1.0000
  H   H342      1.0  0.14331  0.13190  0.97895  1.0000
  S   S121      1.0  0.01890  0.23371  0.61011  1.0000
  C   C352      1.0  0.00208  0.33137  0.74205  1.0000
  C   C353      1.0  0.08752  0.29284  0.94729  1.0000
  S   S122      1.0  0.00184  0.25663  0.54034  1.0000
  H   H343      1.0  0.12744  0.11388  0.68583  1.0000
  H   H344      1.0  0.17182  0.12718  0.77112  1.0000
  C   C354      1.0  0.01625  0.22727  0.78656  1.0000
  S   S123      1.0  0.01111  0.20295  0.82511  1.0000
  C   C355      1.0  0.00287  0.43563  0.61939  1.0000
  C   C356      1.0  0.17267  0.10209  0.89450  1.0000
  C   C357      1.0  0.00208  0.42041  0.61934  1.0000
  C   C358      1.0  0.08494  0.98473  0.74876  1.0000
  H   H345      1.0  0.10362  0.20968  0.97863  1.0000
  C   C359      1.0  0.15164  0.26299  0.89041  1.0000
  H   H346      1.0  0.15125  0.00682  0.81160  1.0000
  C   C360      1.0  0.03520  0.14064  0.75157  1.0000
  C   C361      1.0  0.06036  0.15472  0.73539  1.0000
  C   C362      1.0  0.03241  0.15684  0.74527  1.0000
  C   C363      1.0  0.04510  0.16389  0.73716  1.0000
  H   H347      1.0  0.02526  0.13520  0.75775  1.0000
  H   H348      1.0  0.07028  0.16012  0.72905  1.0000
  H   H349      1.0  0.99615  0.12101  0.78847  1.0000
  H   H350      1.0  0.04312  0.17644  0.73219  1.0000
  H   H351      1.0  0.00056  0.41182  0.63026  1.0000
  S   S124      1.0  0.18493  0.13583  0.73365  1.0000
  H   H352      1.0  0.17290  0.06874  0.72024  1.0000
  H   H353      1.0  0.02257  0.25819  0.89629  1.0000
  C   C364      1.0  0.99635  0.25514  0.51265  1.0000
  H   H354      1.0  0.17275  0.05919  0.90586  1.0000
  H   H355      1.0  0.08661  0.28852  0.93764  1.0000
  H   H356      1.0  0.03487  0.26847  0.58392  1.0000
  H   H357      1.0  0.04671  0.22430  0.78084  1.0000
  N   N25       1.0  0.03990  0.40473  0.62601  1.0000
  C   C365      1.0  0.04035  0.41949  0.62663  1.0000
  C   C366      1.0  0.04066  0.40136  0.61197  1.0000
  C   C367      1.0  0.04191  0.43126  0.61290  1.0000
  C   C368      1.0  0.04235  0.41281  0.59801  1.0000
  C   C369      1.0  0.04297  0.42785  0.59851  1.0000
  H   H358      1.0  0.18970  0.44284  0.93515  1.0000
  H   H359      1.0  0.03917  0.42233  0.63782  1.0000
  H   H360      1.0  0.16407  0.03038  0.90438  1.0000
  H   H361      1.0  0.04166  0.44314  0.61346  1.0000
  H   H362      1.0  0.04245  0.41022  0.58699  1.0000
  H   H363      1.0  0.04361  0.43704  0.58788  1.0000
  C   C370      1.0  0.04659  0.27800  0.61746  1.0000
  C   C371      1.0  0.15255  0.10840  0.68386  1.0000
  H   H364      1.0  0.00393  0.18819  0.76882  1.0000
  N   N26       1.0  0.12024  0.30359  0.77265  1.0000
  C   C372      1.0  0.13230  0.31082  0.77056  1.0000
  C   C373      1.0  0.11342  0.29645  0.78740  1.0000
  H   H365      1.0  0.00759  0.32981  0.71772  1.0000
  C   C374      1.0  0.11903  0.29596  0.80048  1.0000
  C   C375      1.0  0.13148  0.30311  0.79843  1.0000
  C   C376      1.0  0.11383  0.30441  0.75920  1.0000
  H   H366      1.0  0.10330  0.29146  0.78916  1.0000
  H   H367      1.0  0.11336  0.29062  0.81219  1.0000
  H   H368      1.0  0.13555  0.30338  0.80854  1.0000
  H   H369      1.0  0.12281  0.30553  0.74799  1.0000
  H   H370      1.0  0.10965  0.29359  0.76054  1.0000
  H   H371      1.0  0.10381  0.31465  0.75811  1.0000
  N   N27       1.0  0.03454  0.29396  0.66829  1.0000
  C   C377      1.0  0.03633  0.30917  0.66380  1.0000
  C   C378      1.0  0.04507  0.28249  0.67573  1.0000
  H   H372      1.0  0.00899  0.25327  0.50851  1.0000
  C   C379      1.0  0.05738  0.28619  0.67952  1.0000
  H   H373      1.0  0.01828  0.27918  0.67293  1.0000
  C   C380      1.0  0.02176  0.28976  0.66443  1.0000
  H   H374      1.0  0.02831  0.31820  0.65742  1.0000
  H   H375      1.0  0.05901  0.22079  0.88144  1.0000
  C   C381      1.0  0.00522  0.27155  0.82738  1.0000
  C   C382      1.0  0.00649  0.44281  0.59107  1.0000
  H   H376      1.0  0.15827  0.21146  0.68985  1.0000
  Fe  Fe61      1.0  0.17941  0.11402  0.73157  1.0000
  H   H377      1.0  0.00488  0.24873  0.82483  1.0000
  C   C383      1.0  0.18035  0.47488  0.94132  1.0000
  H   H378      1.0  0.06860  0.30472  0.67824  1.0000
  H   H379      1.0  0.17052  0.03170  0.88343  1.0000
  S   S125      1.0  0.18532  0.05459  0.82197  1.0000
  N   N28       1.0  0.13046  0.14705  0.96197  1.0000
  H   H380      1.0  0.14731  0.31687  0.78184  1.0000
  S   S126      1.0  0.00452  0.39688  0.60442  1.0000
  C   C384      1.0  0.05479  0.02548  0.72775  1.0000
  H   H381      1.0  0.07466  0.13146  0.74031  1.0000
  H   H382      1.0  0.18691  0.01215  0.81638  1.0000
  H   H383      1.0  0.16037  0.04908  0.89067  1.0000
  Fe  Fe62      1.0  0.18377  0.16336  0.91156  1.0000
  H   H384      1.0  0.18908  0.32316  0.83794  1.0000
  C   C385      1.0  0.03690  0.21358  0.91158  1.0000
  H   H385      1.0  0.12290  0.21241  0.65661  1.0000
  C   C386      1.0  0.99307  0.29720  0.61181  1.0000
  C   C387      1.0  0.15796  0.99015  0.84674  1.0000
  C   C388      1.0  0.16131  0.22176  0.91344  1.0000
  C   C389      1.0  0.17768  0.44925  0.93974  1.0000
  H   H386      1.0  0.04091  0.20111  0.91584  1.0000
  C   C390      1.0  0.15061  0.21215  0.68225  1.0000
  C   C391      1.0  0.13095  0.21259  0.66345  1.0000
  C   C392      1.0  0.15596  0.20284  0.67105  1.0000
  C   C393      1.0  0.14599  0.20297  0.66171  1.0000
  H   H387      1.0  0.16748  0.19497  0.67022  1.0000
  H   H388      1.0  0.14971  0.19526  0.65351  1.0000
  H   H389      1.0  0.11673  0.99961  0.80900  1.0000
  S   S127      1.0  0.18876  0.40562  0.95980  1.0000
  C   C394      1.0  0.07488  0.35091  0.84793  1.0000
  H   H390      1.0  0.04565  0.39259  0.64816  1.0000
  C   C395      1.0  0.04855  0.31329  0.66735  1.0000
  C   C396      1.0  0.14083  0.14208  0.94925  1.0000
  C   C397      1.0  0.02578  0.21884  0.90207  1.0000
  H   H391      1.0  0.12247  0.09481  0.71132  1.0000
  N   N29       1.0  0.02565  0.23138  0.77209  1.0000
  H   H392      1.0  0.04952  0.28068  0.62710  1.0000
  N   N30       1.0  0.07565  0.30106  0.97171  1.0000
  H   H393      1.0  0.03456  0.30182  0.57279  1.0000
  C   C398      1.0  0.08965  0.30376  0.97215  1.0000
  H   H394      1.0  0.00614  0.19400  0.79918  1.0000
  H   H395      1.0  0.17064  0.44046  0.94711  1.0000
  S   S128      1.0  0.00784  0.46520  0.60561  1.0000
  C   C399      1.0  0.00450  0.23397  0.75973  1.0000
  Fe  Fe63      1.0  0.00333  0.37814  0.62684  1.0000
  C   C400      1.0  0.01988  0.36129  0.69661  1.0000
  C   C401      1.0  0.06693  0.34958  0.83736  1.0000
  C   C402      1.0  0.17801  0.09239  0.88362  1.0000
  H   H396      1.0  0.03950  0.38990  0.61153  1.0000
  C   C403      1.0  0.03774  0.39279  0.64064  1.0000
  H   H397      1.0  0.16569  0.21418  0.90470  1.0000
  N   N31       1.0  0.08159  0.36636  0.81654  1.0000
  H   H398      1.0  0.16338  0.01442  0.79297  1.0000
  H   H399      1.0  0.09805  0.37409  0.79587  1.0000
  Fe  Fe64      1.0  0.17302  0.07336  0.85834  1.0000
  H   H400      1.0  0.11413  0.30273  0.96075  1.0000
  H   H401      1.0  0.04396  0.27039  0.67875  1.0000
  C   C404      1.0  0.08518  0.37459  0.80003  1.0000
  Fe  Fe65      1.0  0.00075  0.21270  0.84686  1.0000
  C   C405      1.0  0.03371  0.35388  0.68766  1.0000
  C   C406      1.0  0.02056  0.23497  0.89668  1.0000
  H   H402      1.0  0.06429  0.35623  0.81343  1.0000
  H   H403      1.0  0.07878  0.38705  0.79868  1.0000
  S   S129      1.0  0.17527  0.12325  0.70719  1.0000
  H   H404      1.0  0.08189  0.36902  0.79227  1.0000
  H   H405      1.0  0.04968  0.22921  0.75993  1.0000
  S   S130      1.0  0.17710  0.13569  0.96727  1.0000
  H   H406      1.0  0.13978  0.24386  0.89996  1.0000
  C   C407      1.0  0.00370  0.41629  0.60513  1.0000
  H   H407      1.0  0.06416  0.03231  0.72225  1.0000
  H   H408      1.0  0.00018  0.23615  0.74911  1.0000
  H   H409      1.0  0.03573  0.30187  0.60858  1.0000
  H   H410      1.0  0.15260  0.13543  0.95026  1.0000
  N   N32       1.0  0.17858  0.45996  0.94878  1.0000
  H   H411      1.0  0.17943  0.39444  0.84758  1.0000
  C   C408      1.0  0.17688  0.00649  0.85318  1.0000
  C   C409      1.0  0.14701  0.08732  0.71242  1.0000
  S   S131      1.0  0.16558  0.09836  0.75061  1.0000
  H   H412      1.0  0.14894  0.22095  0.91931  1.0000
  C   C410      1.0  0.15345  0.00646  0.84522  1.0000
  N   N33       1.0  0.03444  0.28641  0.59519  1.0000
  C   C411      1.0  0.05275  0.99793  0.73469  1.0000
  H   H413      1.0  0.17389  0.34232  0.87875  1.0000
  C   C412      1.0  0.13439  0.09604  0.70543  1.0000
  Fe  Fe66      1.0  0.18270  0.14442  0.70836  1.0000
  H   H414      1.0  0.14265  0.01278  0.84153  1.0000
  S   S132      1.0  0.17897  0.13937  0.92263  1.0000
  H   H415      1.0  0.15957  0.02728  0.84666  1.0000
  H   H416      1.0  0.02099  0.30980  0.58888  1.0000
  H   H417      1.0  0.99674  0.34380  0.73949  1.0000
  C   C413      1.0  0.13719  0.10675  0.69114  1.0000
  C   C414      1.0  0.03872  0.28989  0.60698  1.0000
  H   H418      1.0  0.00126  0.22183  0.53102  1.0000
  H   H419      1.0  0.07556  0.22817  0.86788  1.0000
  Fe  Fe67      1.0  0.00367  0.21478  0.87881  1.0000
  C   C415      1.0  0.00563  0.42761  0.59103  1.0000
  C   C416      1.0  0.10188  0.29534  0.94772  1.0000
  S   S133      1.0  0.01283  0.31842  0.63274  1.0000
  H   H420      1.0  0.99222  0.33981  0.61298  1.0000
  C   C417      1.0  0.05045  0.26256  0.61556  1.0000
  H   H421      1.0  0.06563  0.27706  0.68554  1.0000
  S   S134      1.0  0.02350  0.35787  0.63128  1.0000
  H   H422      1.0  0.05913  0.99259  0.78223  1.0000
  C   C418      1.0  0.18109  0.99010  0.85535  1.0000
  C   C419      1.0  0.03824  0.27130  0.59322  1.0000
  H   H423      1.0  0.04051  0.38079  0.63837  1.0000
  C   C420      1.0  0.16299  0.01466  0.84820  1.0000
  H   H424      1.0  0.05630  0.25316  0.62377  1.0000
  H   H425      1.0  0.02335  0.28783  0.75060  1.0000
  H   H426      1.0  0.18025  0.47907  0.92894  1.0000
  C   C421      1.0  0.10872  0.99611  0.79018  1.0000
  C   C422      1.0  0.17870  0.45465  0.96442  1.0000
  C   C423      1.0  0.00827  0.32352  0.72967  1.0000
  H   H427      1.0  0.99234  0.25253  0.49117  1.0000
  C   C424      1.0  0.16899  0.03776  0.89306  1.0000
  C   C425      1.0  0.18332  0.10812  0.89860  1.0000
  H   H428      1.0  0.00693  0.33919  0.76891  1.0000
  H   H429      1.0  0.16614  0.28010  0.88259  1.0000
  N   N34       1.0  0.18393  0.04058  0.89374  1.0000
  H   H430      1.0  0.18538  0.23532  0.90931  1.0000
  S   S135      1.0  0.18939  0.01662  0.85614  1.0000
  C   C426      1.0  0.18381  0.05200  0.90098  1.0000
  C   C427      1.0  0.18244  0.47964  0.96549  1.0000
  H   H431      1.0  0.19050  0.17788  0.96727  1.0000
  C   C428      1.0  0.18062  0.46438  0.97303  1.0000
  S   S136      1.0  0.99130  0.12487  0.75730  1.0000
  S   S137      1.0  0.99351  0.26945  0.84649  1.0000
  S   S138      1.0  0.99181  0.20002  0.87142  1.0000
  C   C429      1.0  0.99224  0.32793  0.61297  1.0000
  S   S139      1.0  0.19002  0.45882  0.89387  1.0000
  H   H432      1.0  0.17731  0.44281  0.97031  1.0000
  H   H433      1.0  0.18349  0.34567  0.85853  1.0000
  Fe  Fe68      1.0  0.99137  0.25945  0.56539  1.0000
  S   S140      1.0  0.99178  0.48346  0.56697  1.0000
  C   C430      1.0  0.18885  0.13607  0.97968  1.0000
  S   S141      1.0  0.17977  0.90050  0.13190  1.0000
  C   C431      1.0  0.16036  0.56899  0.98062  1.0000
  H   H434      1.0  0.14312  0.73185  0.01003  1.0000
  H   H435      1.0  0.18517  0.71236  0.14072  1.0000
  H   H436      1.0  0.01294  0.57768  0.39144  1.0000
  C   C432      1.0  0.02740  0.48939  0.39641  1.0000
  H   H437      1.0  0.18444  0.94316  0.17108  1.0000
  H   H438      1.0  0.06725  0.77940  0.24286  1.0000
  Fe  Fe69      1.0  0.01600  0.62629  0.35321  1.0000
  S   S142      1.0  0.04024  0.61857  0.33895  1.0000
  Fe  Fe70      1.0  0.18818  0.67910  0.14045  1.0000
  S   S143      1.0  0.01052  0.62078  0.37979  1.0000
  H   H439      1.0  0.99711  0.72746  0.13276  1.0000
  S   S144      1.0  0.01155  0.70379  0.44118  1.0000
  H   H440      1.0  0.03829  0.53780  0.44486  1.0000
  Fe  Fe71      1.0  0.02426  0.74297  0.41932  1.0000
  S   S145      1.0  0.04173  0.72057  0.42513  1.0000
  S   S146      1.0  0.03106  0.76551  0.40451  1.0000
  Fe  Fe72      1.0  0.02668  0.70973  0.41712  1.0000
  S   S147      1.0  0.03750  0.69356  0.40022  1.0000
  Fe  Fe73      1.0  0.02492  0.71696  0.44863  1.0000
  H   H441      1.0  0.11601  0.77625  0.27461  1.0000
  S   S148      1.0  0.01033  0.73245  0.40960  1.0000
  S   S149      1.0  0.00848  0.74030  0.44351  1.0000
  H   H442      1.0  0.14128  0.81937  0.34156  1.0000
  C   C433      1.0  0.11127  0.73346  0.29441  1.0000
  H   H443      1.0  0.00279  0.75172  0.11468  1.0000
  H   H444      1.0  0.15277  0.68372  0.17903  1.0000
  Fe  Fe74      1.0  0.12906  0.90095  0.23981  1.0000
  S   S150      1.0  0.13677  0.91582  0.25090  1.0000
  H   H445      1.0  0.11935  0.75544  0.26029  1.0000
  Fe  Fe75      1.0  0.09705  0.90300  0.26182  1.0000
  S   S151      1.0  0.10182  0.91833  0.27492  1.0000
  S   S152      1.0  0.07470  0.89393  0.26954  1.0000
  Fe  Fe76      1.0  0.11270  0.93105  0.25106  1.0000
  S   S153      1.0  0.11226  0.95694  0.24227  1.0000
  Fe  Fe77      1.0  0.12548  0.90195  0.27370  1.0000
  S   S154      1.0  0.13548  0.89167  0.29531  1.0000
  S   S155      1.0  0.10569  0.91722  0.23791  1.0000
  S   S156      1.0  0.11989  0.88559  0.26261  1.0000
  Fe  Fe78      1.0  0.04076  0.81217  0.22904  1.0000
  S   S157      1.0  0.02023  0.81169  0.24957  1.0000
  S   S158      1.0  0.04885  0.79275  0.21579  1.0000
  Fe  Fe79      1.0  0.04791  0.84125  0.23374  1.0000
  S   S159      1.0  0.02780  0.84342  0.25459  1.0000
  S   S160      1.0  0.06628  0.85600  0.22445  1.0000
  Fe  Fe80      1.0  0.03562  0.81734  0.26177  1.0000
  S   S161      1.0  0.03726  0.80452  0.28633  1.0000
  Fe  Fe81      1.0  0.01408  0.83774  0.24044  1.0000
  S   S162      1.0  0.05680  0.81546  0.24213  1.0000
  S   S163      1.0  0.03354  0.83790  0.21870  1.0000
  N   N35       1.0  0.12615  0.81899  0.01269  1.0000
  C   C434      1.0  0.01356  0.65910  0.29567  1.0000
  H   H446      1.0  0.16135  0.62355  0.08998  1.0000
  Fe  Fe82      1.0  0.03000  0.74555  0.16000  1.0000
  S   S164      1.0  0.02975  0.77101  0.14930  1.0000
  S   S165      1.0  0.05249  0.73061  0.16671  1.0000
  Fe  Fe83      1.0  0.00599  0.77517  0.16525  1.0000
  C   C435      1.0  0.12316  0.80208  0.99797  1.0000
  Fe  Fe84      1.0  0.01705  0.76813  0.13267  1.0000
  S   S166      1.0  0.02228  0.78035  0.10721  1.0000
  S   S167      1.0  0.00700  0.74996  0.17723  1.0000
  S   S168      1.0  0.01933  0.74219  0.14192  1.0000
  Fe  Fe85      1.0  0.10187  0.80329  0.32223  1.0000
  S   S169      1.0  0.11342  0.80367  0.34109  1.0000
  S   S170      1.0  0.08643  0.82439  0.31006  1.0000
  Fe  Fe86      1.0  0.11884  0.77021  0.31932  1.0000
  S   S171      1.0  0.13225  0.76767  0.33762  1.0000
  S   S172      1.0  0.12328  0.75042  0.30703  1.0000
  Fe  Fe87      1.0  0.10917  0.77917  0.35102  1.0000
  S   S173      1.0  0.10277  0.76827  0.37681  1.0000
  Fe  Fe88      1.0  0.13552  0.79224  0.32629  1.0000
  H   H447      1.0  0.12247  0.79059  0.99722  1.0000
  S   S174      1.0  0.09551  0.77983  0.33358  1.0000
  S   S175      1.0  0.12428  0.79368  0.30658  1.0000
  Fe  Fe89      1.0  0.08035  0.68178  0.27325  1.0000
  S   S176      1.0  0.09697  0.69759  0.26914  1.0000
  S   S177      1.0  0.08647  0.65689  0.28666  1.0000
  Fe  Fe90      1.0  0.06115  0.70502  0.25096  1.0000
  S   S178      1.0  0.07603  0.72279  0.24499  1.0000
  S   S179      1.0  0.04020  0.70865  0.24072  1.0000
  Fe  Fe91      1.0  0.09629  0.70199  0.24367  1.0000
  Fe  Fe92      1.0  0.07530  0.71681  0.27092  1.0000
  S   S180      1.0  0.06971  0.73646  0.28378  1.0000
  S   S181      1.0  0.08143  0.68469  0.24764  1.0000
  S   S182      1.0  0.05860  0.70060  0.27706  1.0000
  Fe  Fe93      1.0  0.08338  0.74907  0.04291  1.0000
  S   S183      1.0  0.10171  0.73748  0.02476  1.0000
  S   S184      1.0  0.06158  0.74041  0.05660  1.0000
  Fe  Fe94      1.0  0.10277  0.77156  0.04227  1.0000
  S   S185      1.0  0.12263  0.76221  0.02393  1.0000
  S   S186      1.0  0.10359  0.79052  0.05340  1.0000
  Fe  Fe95      1.0  0.10387  0.76216  0.01225  1.0000
  C   C436      1.0  0.16990  0.91864  0.21219  1.0000
  Fe  Fe96      1.0  0.11879  0.73860  0.03798  1.0000
  S   S187      1.0  0.13931  0.71887  0.04284  1.0000
  S   S188      1.0  0.08413  0.77376  0.02941  1.0000
  S   S189      1.0  0.10028  0.74791  0.05724  1.0000
  H   H448      1.0  0.08888  0.72390  0.32735  1.0000
  H   H449      1.0  0.02742  0.74584  0.21625  1.0000
  C   C437      1.0  0.16453  0.81146  0.32835  1.0000
  C   C438      1.0  0.08117  0.72577  0.33852  1.0000
  H   H450      1.0  0.18176  0.58144  0.10242  1.0000
  C   C439      1.0  0.14311  0.71794  0.06111  1.0000
  C   C440      1.0  0.13132  0.67531  0.18620  1.0000
  H   H451      1.0  0.14680  0.77362  0.10530  1.0000
  C   C441      1.0  0.14829  0.71651  0.09066  1.0000
  C   C442      1.0  0.13998  0.73037  0.08262  1.0000
  C   C443      1.0  0.13733  0.73101  0.06794  1.0000
  C   C444      1.0  0.12770  0.66655  0.25805  1.0000
  H   H452      1.0  0.02305  0.54201  0.43433  1.0000
  H   H453      1.0  0.13552  0.74061  0.08772  1.0000
  H   H454      1.0  0.13094  0.74169  0.06182  1.0000
  C   C445      1.0  0.12191  0.78740  0.05810  1.0000
  C   C446      1.0  0.13392  0.77470  0.05433  1.0000
  C   C447      1.0  0.14880  0.77265  0.05731  1.0000
  C   C448      1.0  0.15186  0.78356  0.06371  1.0000
  H   H455      1.0  0.13072  0.93795  0.18290  1.0000
  C   C449      1.0  0.12476  0.79798  0.06512  1.0000
  H   H456      1.0  0.13185  0.76655  0.04892  1.0000
  H   H457      1.0  0.15808  0.76284  0.05424  1.0000
  C   C450      1.0  0.04269  0.75256  0.23393  1.0000
  H   H458      1.0  0.14403  0.94688  0.27637  1.0000
  C   C451      1.0  0.18035  0.89656  0.27615  1.0000
  C   C452      1.0  0.19086  0.89576  0.20670  1.0000
  H   H459      1.0  0.10910  0.66849  0.19664  1.0000
  H   H460      1.0  0.04335  0.74564  0.38012  1.0000
  C   C453      1.0  0.08430  0.73939  0.29144  1.0000
  C   C454      1.0  0.08077  0.75171  0.29927  1.0000
  C   C455      1.0  0.09252  0.75503  0.30447  1.0000
  C   C456      1.0  0.10786  0.74601  0.30187  1.0000
  H   H461      1.0  0.04590  0.74008  0.23301  1.0000
  H   H462      1.0  0.99178  0.77835  0.10103  1.0000
  H   H463      1.0  0.06899  0.75895  0.30098  1.0000
  H   H464      1.0  0.08977  0.76482  0.31008  1.0000
  H   H465      1.0  0.17180  0.94120  0.27866  1.0000
  C   C457      1.0  0.15428  0.70340  0.08385  1.0000
  S   S190      1.0  0.16326  0.69212  0.14588  1.0000
  C   C458      1.0  0.03339  0.76896  0.09343  1.0000
  C   C459      1.0  0.03967  0.77655  0.07820  1.0000
  C   C460      1.0  0.04872  0.76778  0.06699  1.0000
  C   C461      1.0  0.05102  0.75141  0.07080  1.0000
  C   C462      1.0  0.04465  0.74382  0.08600  1.0000
  C   C463      1.0  0.03609  0.75256  0.09740  1.0000
  H   H466      1.0  0.03758  0.78924  0.07505  1.0000
  H   H467      1.0  0.05351  0.77371  0.05523  1.0000
  H   H468      1.0  0.04651  0.73114  0.08899  1.0000
  H   H469      1.0  0.03151  0.74656  0.10912  1.0000
  C   C464      1.0  0.04937  0.72387  0.18722  1.0000
  C   C465      1.0  0.03508  0.71997  0.19584  1.0000
  C   C466      1.0  0.03248  0.71497  0.21225  1.0000
  C   C467      1.0  0.04422  0.71373  0.22010  1.0000
  C   C468      1.0  0.05867  0.71733  0.21146  1.0000
  C   C469      1.0  0.06119  0.72247  0.19504  1.0000
  H   H470      1.0  0.02608  0.72055  0.18986  1.0000
  H   H471      1.0  0.02134  0.71210  0.21888  1.0000
  H   H472      1.0  0.06778  0.71643  0.21745  1.0000
  H   H473      1.0  0.07213  0.72575  0.18842  1.0000
  C   C470      1.0  0.05171  0.80947  0.29229  1.0000
  C   C471      1.0  0.05553  0.80148  0.30676  1.0000
  C   C472      1.0  0.06646  0.80586  0.31207  1.0000
  C   C473      1.0  0.07369  0.81815  0.30287  1.0000
  C   C474      1.0  0.07017  0.82590  0.28819  1.0000
  C   C475      1.0  0.05920  0.82153  0.28288  1.0000
  H   H474      1.0  0.04976  0.79213  0.31403  1.0000
  H   H475      1.0  0.06877  0.80014  0.32359  1.0000
  H   H476      1.0  0.07588  0.83529  0.28093  1.0000
  H   H477      1.0  0.05636  0.82768  0.27162  1.0000
  C   C476      1.0  0.03528  0.79341  0.20495  1.0000
  C   C477      1.0  0.03812  0.78222  0.19593  1.0000
  C   C478      1.0  0.02677  0.78219  0.18807  1.0000
  C   C479      1.0  0.01255  0.79333  0.18925  1.0000
  C   C480      1.0  0.00981  0.80451  0.19820  1.0000
  C   C481      1.0  0.02121  0.80466  0.20588  1.0000
  H   H478      1.0  0.04903  0.77348  0.19514  1.0000
  H   H479      1.0  0.02896  0.77338  0.18134  1.0000
  H   H480      1.0  0.03199  0.49539  0.40240  1.0000
  H   H481      1.0  0.01909  0.81337  0.21268  1.0000
  C   C482      1.0  0.11277  0.96742  0.25577  1.0000
  C   C483      1.0  0.01362  0.49015  0.37732  1.0000
  H   H482      1.0  0.16327  0.86510  0.11160  1.0000
  H   H483      1.0  0.16420  0.57311  0.00151  1.0000
  C   C484      1.0  0.11023  0.96972  0.28248  1.0000
  C   C485      1.0  0.11029  0.96089  0.27192  1.0000
  N   N36       1.0  0.18267  0.91211  0.20203  1.0000
  H   H484      1.0  0.05740  0.72491  0.44970  1.0000
  H   H485      1.0  0.10797  0.96474  0.29499  1.0000
  H   H486      1.0  0.10804  0.94920  0.27629  1.0000
  C   C486      1.0  0.07247  0.88354  0.25684  1.0000
  C   C487      1.0  0.05818  0.87912  0.25931  1.0000
  C   C488      1.0  0.05627  0.87040  0.24963  1.0000
  C   C489      1.0  0.06855  0.86634  0.23720  1.0000
  C   C490      1.0  0.08278  0.87097  0.23457  1.0000
  C   C491      1.0  0.08480  0.87944  0.24445  1.0000
  H   H487      1.0  0.04848  0.88275  0.26853  1.0000
  H   H488      1.0  0.04514  0.86727  0.25144  1.0000
  H   H489      1.0  0.09227  0.86783  0.22496  1.0000
  H   H490      1.0  0.09587  0.88278  0.24250  1.0000
  C   C492      1.0  0.16993  0.87075  0.10065  1.0000
  S   S191      1.0  0.19026  0.84471  0.04445  1.0000
  H   H491      1.0  0.04418  0.75273  0.24563  1.0000
  C   C493      1.0  0.13976  0.79611  0.06783  1.0000
  H   H492      1.0  0.02948  0.82127  0.33197  1.0000
  C   C494      1.0  0.16907  0.59160  0.98125  1.0000
  C   C495      1.0  0.09545  0.76259  0.25700  1.0000
  H   H493      1.0  0.12893  0.92091  0.20962  1.0000
  C   C496      1.0  0.99611  0.77382  0.22799  1.0000
  H   H494      1.0  0.13137  0.80991  0.38742  1.0000
  H   H495      1.0  0.18518  0.52097  0.02728  1.0000
  H   H496      1.0  0.11548  0.80778  0.06818  1.0000
  H   H497      1.0  0.14923  0.66680  0.23142  1.0000
  C   C497      1.0  0.13679  0.73200  0.98889  1.0000
  C   C498      1.0  0.07224  0.73971  0.35960  1.0000
  H   H498      1.0  0.09228  0.74624  0.99537  1.0000
  Fe  Fe97      1.0  0.17597  0.83557  0.06810  1.0000
  H   H499      1.0  0.05093  0.75902  0.22460  1.0000
  C   C499      1.0  0.06019  0.71917  0.36058  1.0000
  H   H500      1.0  0.02698  0.55026  0.40075  1.0000
  C   C500      1.0  0.11549  0.98269  0.25024  1.0000
  C   C501      1.0  0.16605  0.81665  0.01140  1.0000
  C   C502      1.0  0.05110  0.76568  0.39668  1.0000
  C   C503      1.0  0.06278  0.75520  0.40405  1.0000
  C   C504      1.0  0.07864  0.75604  0.39786  1.0000
  C   C505      1.0  0.08290  0.76712  0.38410  1.0000
  C   C506      1.0  0.07125  0.77732  0.37652  1.0000
  C   C507      1.0  0.05538  0.77671  0.38290  1.0000
  H   H501      1.0  0.05957  0.74671  0.41469  1.0000
  H   H502      1.0  0.08764  0.74811  0.40374  1.0000
  H   H503      1.0  0.07441  0.78598  0.36598  1.0000
  H   H504      1.0  0.04636  0.78487  0.37719  1.0000
  H   H505      1.0  0.06905  0.70753  0.34105  1.0000
  C   C508      1.0  0.06788  0.77136  0.25452  1.0000
  C   C509      1.0  0.00087  0.65289  0.30556  1.0000
  H   H506      1.0  0.10163  0.68397  0.21725  1.0000
  H   H507      1.0  0.02306  0.77598  0.24645  1.0000
  S   S192      1.0  0.11873  0.70276  0.22505  1.0000
  H   H508      1.0  0.18867  0.90879  0.30853  1.0000
  C   C510      1.0  0.17401  0.83158  0.34112  1.0000
  H   H509      1.0  0.18460  0.78559  0.34901  1.0000
  C   C511      1.0  0.08236  0.73735  0.34527  1.0000
  C   C512      1.0  0.05270  0.63077  0.32602  1.0000
  C   C513      1.0  0.04737  0.64680  0.31983  1.0000
  C   C514      1.0  0.05761  0.65527  0.30784  1.0000
  C   C515      1.0  0.07315  0.64768  0.30226  1.0000
  C   C516      1.0  0.07840  0.63186  0.30884  1.0000
  C   C517      1.0  0.06826  0.62347  0.32056  1.0000
  H   H510      1.0  0.03533  0.65251  0.32399  1.0000
  H   H511      1.0  0.05350  0.66755  0.30287  1.0000
  H   H512      1.0  0.09037  0.62593  0.30469  1.0000
  H   H513      1.0  0.07246  0.61112  0.32525  1.0000
  C   C518      1.0  0.00127  0.67062  0.39382  1.0000
  C   C519      1.0  0.00052  0.84278  0.17869  1.0000
  C   C520      1.0  0.00767  0.68936  0.40448  1.0000
  C   C521      1.0  0.02357  0.68484  0.39759  1.0000
  C   C522      1.0  0.02829  0.67335  0.38858  1.0000
  C   C523      1.0  0.01715  0.66620  0.38672  1.0000
  H   H514      1.0  0.15719  0.55781  0.98668  1.0000
  H   H515      1.0  0.00394  0.69826  0.41135  1.0000
  H   H516      1.0  0.04059  0.66981  0.38323  1.0000
  H   H517      1.0  0.02088  0.65716  0.37999  1.0000
  H   H518      1.0  0.05665  0.77434  0.26308  1.0000
  C   C524      1.0  0.16565  0.80539  0.00372  1.0000
  H   H519      1.0  0.17259  0.88863  0.11046  1.0000
  C   C525      1.0  0.09955  0.73017  0.28919  1.0000
  C   C526      1.0  0.02038  0.75489  0.22252  1.0000
  C   C527      1.0  0.12776  0.82128  0.02751  1.0000
  C   C528      1.0  0.11693  0.67535  0.19714  1.0000
  S   S193      1.0  0.15088  0.71598  0.10927  1.0000
  N   N37       1.0  0.12854  0.65899  0.24542  1.0000
  Fe  Fe98      1.0  0.18134  0.65853  0.12304  1.0000
  H   H520      1.0  0.18667  0.90317  0.26561  1.0000
  H   H521      1.0  0.04285  0.72519  0.38694  1.0000
  H   H522      1.0  0.09109  0.74445  0.33942  1.0000
  C   C529      1.0  0.15591  0.88942  0.29194  1.0000
  C   C530      1.0  0.11833  0.64351  0.23459  1.0000
  C   C531      1.0  0.01793  0.77170  0.23939  1.0000
  H   H523      1.0  0.01845  0.73879  0.47361  1.0000
  C   C532      1.0  0.11979  0.83942  0.29082  1.0000
  S   S194      1.0  0.15538  0.66974  0.12687  1.0000
  C   C533      1.0  0.00509  0.76183  0.22033  1.0000
  H   H524      1.0  0.15630  0.69401  0.06374  1.0000
  H   H525      1.0  0.09014  0.79492  0.27927  1.0000
  H   H526      1.0  0.01282  0.84345  0.17501  1.0000
  S   S195      1.0  0.15960  0.79802  0.32065  1.0000
  C   C534      1.0  0.14434  0.73700  0.99755  1.0000
  C   C535      1.0  0.05617  0.73671  0.45189  1.0000
  N   N38       1.0  0.05874  0.73561  0.46748  1.0000
  H   H527      1.0  0.16674  0.81320  0.02362  1.0000
  S   S196      1.0  0.18045  0.60134  0.07139  1.0000
  C   C536      1.0  0.07934  0.78434  0.26757  1.0000
  H   H528      1.0  0.14187  0.85621  0.31091  1.0000
  H   H529      1.0  0.06807  0.79231  0.26984  1.0000
  H   H530      1.0  0.13550  0.77078  0.36756  1.0000
  C   C537      1.0  0.17714  0.63112  0.09890  1.0000
  C   C538      1.0  0.02832  0.64907  0.29254  1.0000
  N   N39       1.0  0.15300  0.74827  0.99043  1.0000
  C   C539      1.0  0.01762  0.51484  0.37998  1.0000
  N   N40       1.0  0.01993  0.49768  0.38444  1.0000
  C   C540      1.0  0.17531  0.88404  0.10007  1.0000
  C   C541      1.0  0.99737  0.85712  0.19898  1.0000
  C   C542      1.0  0.16919  0.56659  0.08878  1.0000
  H   H531      1.0  0.18674  0.92958  0.30639  1.0000
  C   C543      1.0  0.16365  0.93487  0.28757  1.0000
  N   N41       1.0  0.16352  0.78944  0.36643  1.0000
  H   H532      1.0  0.01980  0.61482  0.31466  1.0000
  H   H533      1.0  0.16785  0.63882  0.10536  1.0000
  C   C544      1.0  0.01808  0.62723  0.30911  1.0000
  N   N42       1.0  0.12588  0.89756  0.17500  1.0000
  C   C545      1.0  0.11449  0.91105  0.17540  1.0000
  C   C546      1.0  0.12683  0.88600  0.18833  1.0000
  C   C547      1.0  0.10378  0.91331  0.18947  1.0000
  C   C548      1.0  0.11637  0.88791  0.20260  1.0000
  C   C549      1.0  0.10473  0.90163  0.20313  1.0000
  C   C550      1.0  0.13663  0.89515  0.16004  1.0000
  H   H534      1.0  0.11385  0.92029  0.16487  1.0000
  H   H535      1.0  0.13592  0.87536  0.18808  1.0000
  H   H536      1.0  0.09491  0.92411  0.18981  1.0000
  H   H537      1.0  0.11747  0.87894  0.21325  1.0000
  H   H538      1.0  0.09657  0.90324  0.21415  1.0000
  H   H539      1.0  0.14829  0.88786  0.16194  1.0000
  H   H540      1.0  0.13157  0.88931  0.15395  1.0000
  H   H541      1.0  0.13885  0.90652  0.15219  1.0000
  N   N43       1.0  0.07549  0.76925  0.09626  1.0000
  C   C551      1.0  0.06511  0.76398  0.10960  1.0000
  C   C552      1.0  0.09006  0.76007  0.09209  1.0000
  C   C553      1.0  0.06909  0.74901  0.11898  1.0000
  C   C554      1.0  0.09438  0.74497  0.10109  1.0000
  C   C555      1.0  0.08379  0.73943  0.11460  1.0000
  C   C556      1.0  0.07115  0.78474  0.08618  1.0000
  H   H542      1.0  0.05362  0.77129  0.11302  1.0000
  H   H543      1.0  0.09835  0.76439  0.08163  1.0000
  H   H544      1.0  0.06079  0.74485  0.12953  1.0000
  H   H545      1.0  0.10581  0.73759  0.09749  1.0000
  H   H546      1.0  0.08694  0.72772  0.12165  1.0000
  H   H547      1.0  0.05899  0.79096  0.09071  1.0000
  H   H548      1.0  0.07944  0.79215  0.08522  1.0000
  H   H549      1.0  0.07175  0.78342  0.07417  1.0000
  H   H550      1.0  0.16945  0.90322  0.16506  1.0000
  H   H551      1.0  0.05165  0.71187  0.36657  1.0000
  H   H552      1.0  0.18989  0.53988  0.08554  1.0000
  C   C557      1.0  0.13496  0.83143  0.29280  1.0000
  H   H553      1.0  0.13645  0.81130  0.03267  1.0000
  H   H554      1.0  0.11701  0.66534  0.26757  1.0000
  C   C558      1.0  0.18507  0.92062  0.30114  1.0000
  H   H555      1.0  0.15747  0.87373  0.31444  1.0000
  C   C559      1.0  0.00595  0.54095  0.40897  1.0000
  C   C560      1.0  0.05447  0.74883  0.47346  1.0000
  N   N44       1.0  0.04132  0.85188  0.30427  1.0000
  C   C561      1.0  0.03222  0.85350  0.29388  1.0000
  C   C562      1.0  0.04030  0.84055  0.31788  1.0000
  C   C563      1.0  0.02171  0.84367  0.29706  1.0000
  C   C564      1.0  0.02990  0.83055  0.32143  1.0000
  C   C565      1.0  0.02061  0.83210  0.31089  1.0000
  C   C566      1.0  0.05254  0.86206  0.30042  1.0000
  H   H556      1.0  0.03328  0.86219  0.28291  1.0000
  H   H557      1.0  0.04793  0.83882  0.32585  1.0000
  H   H558      1.0  0.01478  0.84469  0.28866  1.0000
  H   H559      1.0  0.16226  0.90702  0.32097  1.0000
  C   C567      1.0  0.18030  0.93637  0.18270  1.0000
  H   H560      1.0  0.06172  0.85967  0.28983  1.0000
  H   H561      1.0  0.04644  0.87463  0.29796  1.0000
  H   H562      1.0  0.05857  0.86010  0.31013  1.0000
  Fe  Fe99      1.0  0.17573  0.83469  0.03486  1.0000
  H   H563      1.0  0.18415  0.72167  0.10608  1.0000
  C   C568      1.0  0.09696  0.86132  0.29378  1.0000
  H   H564      1.0  0.17312  0.75357  0.99378  1.0000
  H   H565      1.0  0.04812  0.61328  0.30570  1.0000
  C   C569      1.0  0.12490  0.80457  0.01190  1.0000
  C   C570      1.0  0.00311  0.63686  0.31224  1.0000
  N   N45       1.0  0.18409  0.56095  0.09402  1.0000
  C   C571      1.0  0.16423  0.89761  0.27815  1.0000
  H   H566      1.0  0.17589  0.97486  0.15350  1.0000
  C   C572      1.0  0.14256  0.91894  0.31027  1.0000
  H   H567      1.0  0.15638  0.74728  0.09913  1.0000
  H   H568      1.0  0.14042  0.82050  0.28896  1.0000
  H   H569      1.0  0.06900  0.75914  0.25354  1.0000
  H   H570      1.0  0.09686  0.75320  0.25115  1.0000
  H   H571      1.0  0.15993  0.80865  0.37722  1.0000
  S   S197      1.0  0.18214  0.65541  0.14836  1.0000
  S   S198      1.0  0.13649  0.66389  0.17194  1.0000
  C   C573      1.0  0.17335  0.86462  0.08723  1.0000
  C   C574      1.0  0.12259  0.81447  0.98485  1.0000
  H   H572      1.0  0.03813  0.65397  0.28480  1.0000
  S   S199      1.0  0.18369  0.93661  0.11352  1.0000
  H   H573      1.0  0.05548  0.62926  0.29191  1.0000
  C   C575      1.0  0.11740  0.65091  0.24656  1.0000
  C   C576      1.0  0.14077  0.77923  0.36955  1.0000
  C   C577      1.0  0.05081  0.73357  0.38190  1.0000
  H   H574      1.0  0.99880  0.81297  0.19933  1.0000
  S   S200      1.0  0.99302  0.77487  0.14759  1.0000
  S   S201      1.0  0.17090  0.78155  0.06616  1.0000
  C   C578      1.0  0.16180  0.93413  0.20770  1.0000
  C   C579      1.0  0.16342  0.83678  0.98780  1.0000
  C   C580      1.0  0.16511  0.83233  0.00343  1.0000
  C   C581      1.0  0.18023  0.81297  0.32435  1.0000
  H   H575      1.0  0.02698  0.51890  0.38256  1.0000
  S   S202      1.0  0.03350  0.70631  0.47127  1.0000
  H   H576      1.0  0.01199  0.67156  0.29039  1.0000
  H   H577      1.0  0.99593  0.71986  0.11673  1.0000
  C   C582      1.0  0.09530  0.74940  0.98269  1.0000
  H   H578      1.0  0.13210  0.83210  0.02580  1.0000
  H   H579      1.0  0.16244  0.55717  0.09246  1.0000
  N   N46       1.0  0.03044  0.63337  0.29933  1.0000
  H   H580      1.0  0.15475  0.83149  0.30153  1.0000
  C   C583      1.0  0.15461  0.80031  0.37505  1.0000
  H   H581      1.0  0.16727  0.88597  0.19159  1.0000
  H   H582      1.0  0.16078  0.69267  0.08999  1.0000
  C   C584      1.0  0.12060  0.85906  0.30308  1.0000
  Fe  Fe100     1.0  0.16316  0.69249  0.12118  1.0000
  C   C585      1.0  0.04577  0.62288  0.29535  1.0000
  C   C586      1.0  0.17349  0.62245  0.09019  1.0000
  H   H583      1.0  0.18369  0.79967  0.35984  1.0000
  C   C587      1.0  0.15819  0.83035  0.34487  1.0000
  C   C588      1.0  0.14299  0.83754  0.29997  1.0000
  H   H584      1.0  0.17272  0.59806  0.98759  1.0000
  C   C589      1.0  0.00645  0.56844  0.39669  1.0000
  H   H585      1.0  0.01299  0.82399  0.31313  1.0000
  S   S203      1.0  0.16766  0.84710  0.08886  1.0000
  Fe  Fe101     1.0  0.17366  0.92413  0.13780  1.0000
  H   H586      1.0  0.15458  0.76604  0.00055  1.0000
  C   C590      1.0  0.10637  0.77556  0.27007  1.0000
  H   H587      1.0  0.11348  0.83446  0.28550  1.0000
  C   C591      1.0  0.15016  0.92169  0.17220  1.0000
  H   H588      1.0  0.00375  0.84809  0.20746  1.0000
  C   C592      1.0  0.16382  0.87999  0.30366  1.0000
  H   H589      1.0  0.04605  0.61768  0.28553  1.0000
  C   C593      1.0  0.09185  0.78594  0.27281  1.0000
  S   S204      1.0  0.99779  0.61453  0.35174  1.0000
  S   S205      1.0  0.00068  0.65057  0.35026  1.0000
  N   N47       1.0  0.10077  0.69958  0.16774  1.0000
  C   C594      1.0  0.10826  0.69604  0.15342  1.0000
  C   C595      1.0  0.10540  0.70993  0.17308  1.0000
  C   C596      1.0  0.12068  0.70300  0.14400  1.0000
  C   C597      1.0  0.11785  0.71702  0.16400  1.0000
  C   C598      1.0  0.12541  0.71362  0.14931  1.0000
  C   C599      1.0  0.08726  0.69276  0.17702  1.0000
  H   H590      1.0  0.10478  0.68765  0.14929  1.0000
  H   H591      1.0  0.09967  0.71256  0.18454  1.0000
  H   H592      1.0  0.12674  0.70004  0.13272  1.0000
  H   H593      1.0  0.12168  0.72496  0.16842  1.0000
  H   H594      1.0  0.13508  0.71903  0.14210  1.0000
  H   H595      1.0  0.07657  0.69940  0.17241  1.0000
  H   H596      1.0  0.08948  0.68022  0.17649  1.0000
  H   H597      1.0  0.08488  0.69317  0.18962  1.0000
  N   N48       1.0  0.02651  0.75969  0.23214  1.0000
  N   N49       1.0  0.06133  0.73069  0.36701  1.0000
  H   H598      1.0  0.07318  0.74877  0.36479  1.0000
  C   C600      1.0  0.01437  0.55292  0.40198  1.0000
  H   H599      1.0  0.10241  0.72068  0.28318  1.0000
  C   C601      1.0  0.11271  0.68406  0.20888  1.0000
  C   C602      1.0  0.07004  0.71659  0.34620  1.0000
  H   H600      1.0  0.12312  0.72643  0.29239  1.0000
  H   H601      1.0  0.11507  0.86984  0.30720  1.0000
  C   C603      1.0  0.13768  0.91697  0.19992  1.0000
  H   H602      1.0  0.05778  0.73224  0.39068  1.0000
  H   H603      1.0  0.12736  0.67930  0.25326  1.0000
  C   C604      1.0  0.13876  0.92666  0.18482  1.0000
  H   H604      1.0  0.13811  0.66115  0.26339  1.0000
  H   H605      1.0  0.15155  0.65365  0.21005  1.0000
  S   S206      1.0  0.16677  0.84625  0.01265  1.0000
  H   H606      1.0  0.10765  0.65025  0.25672  1.0000
  C   C605      1.0  0.12297  0.69261  0.20986  1.0000
  C   C606      1.0  0.14070  0.65998  0.23254  1.0000
  N   N50       1.0  0.11294  0.85321  0.29568  1.0000
  S   S207      1.0  0.14638  0.88971  0.22096  1.0000
  H   H607      1.0  0.10937  0.63732  0.23542  1.0000
  C   C607      1.0  0.14784  0.90222  0.20234  1.0000
  C   C608      1.0  0.13080  0.64432  0.22148  1.0000
  H   H608      1.0  0.06473  0.74278  0.44260  1.0000
  H   H609      1.0  0.14190  0.80430  0.07326  1.0000
  H   H610      1.0  0.13154  0.63894  0.21190  1.0000
  C   C609      1.0  0.14209  0.65257  0.22044  1.0000
  C   C610      1.0  0.15344  0.82036  0.33846  1.0000
  H   H611      1.0  0.03334  0.52199  0.43993  1.0000
  H   H612      1.0  0.12538  0.79489  0.02206  1.0000
  S   S208      1.0  0.15082  0.93327  0.15317  1.0000
  H   H613      1.0  0.14964  0.83701  0.35291  1.0000
  H   H614      1.0  0.15821  0.90517  0.26923  1.0000
  H   H615      1.0  0.04401  0.74328  0.45094  1.0000
  H   H616      1.0  0.11625  0.82195  0.03604  1.0000
  Fe  Fe102     1.0  0.99391  0.64438  0.37670  1.0000
  C   C611      1.0  0.13730  0.69263  0.19887  1.0000
  C   C612      1.0  0.15177  0.70416  0.06899  1.0000
  H   H617      1.0  0.18588  0.87154  0.31079  1.0000
  N   N51       1.0  0.16865  0.92372  0.29987  1.0000
  H   H618      1.0  0.12535  0.93216  0.29652  1.0000
  C   C613      1.0  0.15935  0.89735  0.18975  1.0000
  H   H619      1.0  0.00612  0.52027  0.38677  1.0000
  H   H620      1.0  0.18423  0.86768  0.06258  1.0000
  C   C614      1.0  0.13576  0.85138  0.30525  1.0000
  H   H621      1.0  0.16381  0.77043  0.35670  1.0000
  C   C615      1.0  0.14148  0.68400  0.18710  1.0000
  C   C616      1.0  0.18581  0.76881  0.10314  1.0000
  H   H622      1.0  0.00265  0.82866  0.16218  1.0000
  N   N52       1.0  0.08118  0.77267  0.25997  1.0000
  H   H623      1.0  0.08834  0.85700  0.30435  1.0000
  C   C617      1.0  0.18802  0.97440  0.14729  1.0000
  C   C618      1.0  0.16063  0.90715  0.17474  1.0000
  C   C619      1.0  0.10824  0.76385  0.26206  1.0000
  C   C620      1.0  0.00186  0.53089  0.45832  1.0000
  H   H624      1.0  0.00723  0.49676  0.36820  1.0000
  H   H625      1.0  0.99583  0.78838  0.24332  1.0000
  H   H626      1.0  0.14535  0.69913  0.19961  1.0000
  C   C621      1.0  0.14798  0.93816  0.28621  1.0000
  S   S209      1.0  0.01574  0.52165  0.41622  1.0000
  C   C622      1.0  0.13743  0.93003  0.29760  1.0000
  H   H627      1.0  0.09446  0.85931  0.28324  1.0000
  H   H628      1.0  0.17159  0.57047  0.07576  1.0000
  H   H629      1.0  0.16556  0.91169  0.22363  1.0000
  C   C623      1.0  0.15830  0.91593  0.31126  1.0000
  S   S210      1.0  0.15982  0.82790  0.05820  1.0000
  S   S211      1.0  0.99793  0.79334  0.17990  1.0000
  Fe  Fe103     1.0  0.15694  0.66876  0.15154  1.0000
  C   C624      1.0  0.12541  0.83129  0.99994  1.0000
  H   H630      1.0  0.18301  0.88884  0.21607  1.0000
  C   C625      1.0  0.13153  0.79043  0.37810  1.0000
  Fe  Fe104     1.0  0.99622  0.72744  0.43429  1.0000
  H   H631      1.0  0.09527  0.87424  0.29213  1.0000
  H   H632      1.0  0.12650  0.84270  0.00054  1.0000
  C   C626      1.0  0.17995  0.87884  0.30163  1.0000
  H   H633      1.0  0.15133  0.93909  0.21558  1.0000
  S   S212      1.0  0.10827  0.77194  0.98605  1.0000
  H   H634      1.0  0.16263  0.84893  0.98160  1.0000
  Fe  Fe105     1.0  0.99908  0.50533  0.42816  1.0000
  H   H635      1.0  0.16582  0.78762  0.10766  1.0000
  H   H636      1.0  0.99863  0.53252  0.44721  1.0000
  C   C627      1.0  0.18496  0.82291  0.33074  1.0000
  C   C628      1.0  0.99657  0.68236  0.40249  1.0000
  C   C629      1.0  0.16985  0.77591  0.10533  1.0000
  H   H637      1.0  0.11903  0.79077  0.38255  1.0000
  C   C630      1.0  0.16428  0.57759  0.98908  1.0000
  C   C631      1.0  0.16423  0.80976  0.98803  1.0000
  H   H638      1.0  0.18889  0.80601  0.31664  1.0000
  H   H639      1.0  0.18687  0.77905  0.36919  1.0000
  C   C632      1.0  0.15917  0.76802  0.10410  1.0000
  H   H640      1.0  0.12970  0.72329  0.99464  1.0000
  C   C633      1.0  0.16057  0.75377  0.99963  1.0000
  C   C634      1.0  0.18547  0.61247  0.08170  1.0000
  H   H641      1.0  0.16013  0.74634  0.01172  1.0000
  H   H642      1.0  0.00861  0.48506  0.47882  1.0000
  H   H643      1.0  0.18691  0.74031  0.13371  1.0000
  C   C635      1.0  0.02850  0.53333  0.44374  1.0000
  S   S213      1.0  0.18879  0.68168  0.11510  1.0000
  H   H644      1.0  0.06847  0.71094  0.47135  1.0000
  H   H645      1.0  0.16063  0.95488  0.18898  1.0000
  C   C636      1.0  0.16698  0.94297  0.19278  1.0000
  H   H646      1.0  0.16631  0.79328  0.01002  1.0000
  H   H647      1.0  0.01790  0.51926  0.36722  1.0000
  C   C637      1.0  0.18178  0.87212  0.07306  1.0000
  H   H648      1.0  0.99327  0.63194  0.31983  1.0000
  C   C638      1.0  0.00256  0.77884  0.23756  1.0000
  Fe  Fe106     1.0  0.17735  0.80496  0.06004  1.0000
  H   H649      1.0  0.13452  0.91229  0.31897  1.0000
  C   C639      1.0  0.13846  0.80110  0.38085  1.0000
  H   H650      1.0  0.04897  0.75995  0.46687  1.0000
  C   C640      1.0  0.18051  0.78836  0.36089  1.0000
  C   C641      1.0  0.15680  0.77899  0.36363  1.0000
  N   N53       1.0  0.18038  0.74638  0.09813  1.0000
  C   C642      1.0  0.99484  0.83445  0.17135  1.0000
  H   H651      1.0  0.99708  0.82167  0.23021  1.0000
  H   H652      1.0  0.16169  0.57685  0.09366  1.0000
  C   C643      1.0  0.18892  0.57003  0.10079  1.0000
  S   S214      1.0  0.18688  0.48784  0.03389  1.0000
  Fe  Fe107     1.0  0.99611  0.74912  0.15811  1.0000
  H   H653      1.0  0.00559  0.86426  0.19059  1.0000
  C   C644      1.0  0.06544  0.72152  0.47590  1.0000
  S   S215      1.0  0.17998  0.84284  0.35063  1.0000
  C   C645      1.0  0.18714  0.88545  0.07247  1.0000
  C   C646      1.0  0.16468  0.75318  0.10045  1.0000
  C   C647      1.0  0.12369  0.82920  0.98581  1.0000
  H   H654      1.0  0.18933  0.95468  0.13782  1.0000
  N   N54       1.0  0.01682  0.53115  0.45858  1.0000
  C   C648      1.0  0.18817  0.88731  0.28798  1.0000
  C   C649      1.0  0.18415  0.89128  0.08605  1.0000
  H   H655      1.0  0.03308  0.52817  0.47287  1.0000
  H   H656      1.0  0.17896  0.72903  0.08713  1.0000
  C   C650      1.0  0.18579  0.73058  0.09488  1.0000
  H   H657      1.0  0.00040  0.75815  0.21248  1.0000
  C   C651      1.0  0.02109  0.52856  0.47259  1.0000
  C   C652      1.0  0.18813  0.92087  0.18760  1.0000
  C   C653      1.0  0.19090  0.75391  0.09961  1.0000
  C   C654      1.0  0.16311  0.82547  0.98005  1.0000
  H   H658      1.0  0.08451  0.73228  0.97986  1.0000
  C   C655      1.0  0.99105  0.75425  0.11258  1.0000
  N   N55       1.0  0.13897  0.66388  0.71725  1.0000
  C   C656      1.0  0.11484  0.96435  0.80408  1.0000
  Fe  Fe108     1.0  0.00441  0.51966  0.57094  1.0000
  S   S216      1.0  0.00970  0.54247  0.57119  1.0000
  C   C657      1.0  0.17785  0.68113  0.83677  1.0000
  Fe  Fe109     1.0  0.01559  0.58412  0.63111  1.0000
  C   C658      1.0  0.00393  0.48723  0.49054  1.0000
  S   S217      1.0  0.01306  0.55948  0.63302  1.0000
  Fe  Fe110     1.0  0.03135  0.61121  0.61247  1.0000
  S   S218      1.0  0.01823  0.62702  0.62920  1.0000
  S   S219      1.0  0.05008  0.61558  0.59079  1.0000
  Fe  Fe111     1.0  0.02375  0.60530  0.64782  1.0000
  S   S220      1.0  0.03326  0.60331  0.66905  1.0000
  Fe  Fe112     1.0  0.16996  0.81911  0.91979  1.0000
  Fe  Fe113     1.0  0.16215  0.78687  0.92865  1.0000
  S   S221      1.0  0.03811  0.59002  0.63095  1.0000
  S   S222      1.0  0.01022  0.60413  0.61107  1.0000
  Fe  Fe114     1.0  0.02765  0.73317  0.58152  1.0000
  S   S223      1.0  0.02608  0.70805  0.59228  1.0000
  S   S224      1.0  0.02494  0.74803  0.59894  1.0000
  Fe  Fe115     1.0  0.02758  0.72977  0.54860  1.0000
  S   S225      1.0  0.02642  0.70437  0.55697  1.0000
  Fe  Fe116     1.0  0.00863  0.71198  0.57754  1.0000
  C   C659      1.0  0.06802  0.78186  0.96764  1.0000
  Fe  Fe117     1.0  0.04403  0.70297  0.57075  1.0000
  S   S226      1.0  0.06503  0.68308  0.57249  1.0000
  S   S227      1.0  0.00852  0.73755  0.56849  1.0000
  S   S228      1.0  0.04693  0.72789  0.56070  1.0000
  H   H659      1.0  0.03581  0.71003  0.52319  1.0000
  C   C660      1.0  0.07053  0.81815  0.67623  1.0000
  Fe  Fe118     1.0  0.09649  0.77093  0.89218  1.0000
  S   S229      1.0  0.11303  0.75163  0.90488  1.0000
  S   S230      1.0  0.09883  0.79598  0.88307  1.0000
  Fe  Fe119     1.0  0.07508  0.74986  0.89367  1.0000
  S   S231      1.0  0.08956  0.72865  0.90669  1.0000
  S   S232      1.0  0.05229  0.74929  0.88854  1.0000
  Fe  Fe120     1.0  0.09104  0.74482  0.92075  1.0000
  S   S233      1.0  0.08714  0.73655  0.94701  1.0000
  Fe  Fe121     1.0  0.11021  0.73723  0.88974  1.0000
  S   S234      1.0  0.13099  0.72070  0.87864  1.0000
  S   S235      1.0  0.07461  0.76534  0.90933  1.0000
  S   S236      1.0  0.09568  0.75717  0.87543  1.0000
  S   S237      1.0  0.11233  0.82783  0.93018  1.0000
  S   S238      1.0  0.10821  0.67646  0.85058  1.0000
  C   C661      1.0  0.14335  0.82915  0.61258  1.0000
  H   H660      1.0  0.01893  0.85402  0.77462  1.0000
  S   S239      1.0  0.12575  0.92151  0.83068  1.0000
  S   S240      1.0  0.08809  0.91994  0.77104  1.0000
  Fe  Fe122     1.0  0.09721  0.93674  0.72627  1.0000
  S   S241      1.0  0.10610  0.91145  0.73649  1.0000
  S   S242      1.0  0.09927  0.94802  0.70072  1.0000
  Fe  Fe123     1.0  0.08189  0.91304  0.75191  1.0000
  S   S243      1.0  0.07181  0.89195  0.75523  1.0000
  Fe  Fe124     1.0  0.11167  0.92032  0.75464  1.0000
  S   S244      1.0  0.13491  0.91249  0.76191  1.0000
  S   S245      1.0  0.07251  0.93787  0.74045  1.0000
  S   S246      1.0  0.10532  0.94556  0.74270  1.0000
  S   S247      1.0  0.13257  0.90204  0.65452  1.0000
  Fe  Fe125     1.0  0.01494  0.83931  0.74562  1.0000
  C   C662      1.0  0.09082  0.74156  0.97388  1.0000
  S   S248      1.0  0.02911  0.82295  0.76274  1.0000
  Fe  Fe126     1.0  0.00552  0.87389  0.73217  1.0000
  H   H661      1.0  0.15305  0.72277  0.89643  1.0000
  S   S249      1.0  0.01020  0.89695  0.73257  1.0000
  C   C663      1.0  0.16483  0.72467  0.88942  1.0000
  Fe  Fe127     1.0  0.00852  0.85046  0.71285  1.0000
  S   S250      1.0  0.01542  0.84580  0.68855  1.0000
  H   H662      1.0  0.12346  0.83885  0.97560  1.0000
  S   S251      1.0  0.02553  0.85508  0.72391  1.0000
  Fe  Fe128     1.0  0.02024  0.73903  0.79315  1.0000
  S   S252      1.0  0.00793  0.71922  0.79945  1.0000
  S   S253      1.0  0.01583  0.75649  0.77110  1.0000
  Fe  Fe129     1.0  0.03772  0.72481  0.81978  1.0000
  S   S254      1.0  0.02628  0.70408  0.82851  1.0000
  S   S255      1.0  0.05914  0.72426  0.82809  1.0000
  Fe  Fe130     1.0  0.03101  0.70379  0.80305  1.0000
  S   S256      1.0  0.04163  0.68220  0.79338  1.0000
  C   C664      1.0  0.00926  0.88441  0.77570  1.0000
  S   S257      1.0  0.04378  0.72332  0.79444  1.0000
  S   S258      1.0  0.01511  0.74276  0.81772  1.0000
  Fe  Fe131     1.0  0.08364  0.77828  0.62721  1.0000
  S   S259      1.0  0.08415  0.75903  0.64898  1.0000
  S   S260      1.0  0.08153  0.77326  0.60484  1.0000
  Fe  Fe132     1.0  0.09408  0.80019  0.64127  1.0000
  S   S261      1.0  0.09544  0.78239  0.66374  1.0000
  S   S262      1.0  0.09928  0.82392  0.63877  1.0000
  Fe  Fe133     1.0  0.10668  0.76497  0.64861  1.0000
  S   S263      1.0  0.12964  0.74841  0.65108  1.0000
  Fe  Fe134     1.0  0.07271  0.77868  0.66177  1.0000
  S   S264      1.0  0.05447  0.77727  0.68435  1.0000
  S   S265      1.0  0.10710  0.78296  0.62607  1.0000
  S   S266      1.0  0.07045  0.79768  0.64003  1.0000
  Fe  Fe135     1.0  0.07082  0.68289  0.70942  1.0000
  S   S267      1.0  0.09507  0.67509  0.71394  1.0000
  S   S268      1.0  0.05454  0.70294  0.71933  1.0000
  Fe  Fe136     1.0  0.07552  0.65804  0.69092  1.0000
  S   S269      1.0  0.10000  0.64725  0.69516  1.0000
  S   S270      1.0  0.06567  0.65589  0.67128  1.0000
  Fe  Fe137     1.0  0.09019  0.65104  0.71997  1.0000
  S   S271      1.0  0.09835  0.63480  0.74173  1.0000
  Fe  Fe138     1.0  0.10285  0.67203  0.68928  1.0000
  S   S272      1.0  0.12565  0.67728  0.67412  1.0000
  S   S273      1.0  0.06521  0.65905  0.71643  1.0000
  S   S274      1.0  0.07918  0.68281  0.68388  1.0000
  C   C665      1.0  0.12820  0.72879  0.65863  1.0000
  C   C666      1.0  0.11384  0.72471  0.66690  1.0000
  C   C667      1.0  0.11299  0.70882  0.67224  1.0000
  C   C668      1.0  0.12643  0.69712  0.66896  1.0000
  C   C669      1.0  0.14075  0.70124  0.66087  1.0000
  C   C670      1.0  0.14166  0.71704  0.65583  1.0000
  H   H663      1.0  0.10346  0.73378  0.66923  1.0000
  H   H664      1.0  0.10190  0.70564  0.67853  1.0000
  H   H665      1.0  0.15115  0.69220  0.65832  1.0000
  H   H666      1.0  0.15276  0.72016  0.64945  1.0000
  C   C671      1.0  0.04513  0.68788  0.77282  1.0000
  C   C672      1.0  0.03795  0.70286  0.76552  1.0000
  C   C673      1.0  0.04056  0.70731  0.74909  1.0000
  C   C674      1.0  0.05075  0.69701  0.73989  1.0000
  C   C675      1.0  0.05809  0.68212  0.74720  1.0000
  C   C676      1.0  0.05516  0.67749  0.76364  1.0000
  H   H667      1.0  0.03020  0.71098  0.77247  1.0000
  H   H668      1.0  0.03466  0.71872  0.74351  1.0000
  H   H669      1.0  0.06597  0.67406  0.74023  1.0000
  H   H670      1.0  0.06074  0.66588  0.76917  1.0000
  C   C677      1.0  0.02505  0.82629  0.68788  1.0000
  C   C678      1.0  0.02902  0.81554  0.70133  1.0000
  C   C679      1.0  0.03749  0.80022  0.70036  1.0000
  C   C680      1.0  0.04232  0.79578  0.68586  1.0000
  C   C681      1.0  0.03806  0.80644  0.67251  1.0000
  C   C682      1.0  0.02938  0.82165  0.67353  1.0000
  H   H671      1.0  0.02600  0.81912  0.71236  1.0000
  H   H672      1.0  0.04079  0.79203  0.71072  1.0000
  H   H673      1.0  0.04124  0.80291  0.66142  1.0000
  H   H674      1.0  0.02619  0.82987  0.66313  1.0000
  C   C683      1.0  0.02768  0.80368  0.76450  1.0000
  C   C684      1.0  0.02429  0.79971  0.75217  1.0000
  C   C685      1.0  0.02087  0.78508  0.75424  1.0000
  C   C686      1.0  0.02133  0.77417  0.76850  1.0000
  C   C687      1.0  0.02558  0.77775  0.78060  1.0000
  C   C688      1.0  0.02868  0.79259  0.77862  1.0000
  H   H675      1.0  0.02426  0.80794  0.74103  1.0000
  H   H676      1.0  0.00478  0.57189  0.57927  1.0000
  H   H677      1.0  0.02610  0.76928  0.79159  1.0000
  H   H678      1.0  0.11708  0.95197  0.80971  1.0000
  H   H679      1.0  0.12609  0.73750  0.84603  1.0000
  C   C689      1.0  0.11828  0.83900  0.64555  1.0000
  C   C690      1.0  0.11400  0.82467  0.64776  1.0000
  C   C691      1.0  0.02533  0.73243  0.51034  1.0000
  H   H680      1.0  0.11194  0.84964  0.63910  1.0000
  C   C692      1.0  0.05545  0.89400  0.74743  1.0000
  C   C693      1.0  0.04517  0.90852  0.74400  1.0000
  C   C694      1.0  0.03152  0.90943  0.73897  1.0000
  C   C695      1.0  0.02804  0.89583  0.73749  1.0000
  C   C696      1.0  0.03846  0.88139  0.74076  1.0000
  C   C697      1.0  0.05216  0.88051  0.74557  1.0000
  H   H681      1.0  0.04751  0.91897  0.74559  1.0000
  H   H682      1.0  0.02344  0.92063  0.73657  1.0000
  H   H683      1.0  0.03580  0.87081  0.74001  1.0000
  H   H684      1.0  0.06002  0.86923  0.74829  1.0000
  C   C698      1.0  0.10945  0.93529  0.68798  1.0000
  C   C699      1.0  0.12001  0.92133  0.69275  1.0000
  C   C700      1.0  0.12763  0.91119  0.68236  1.0000
  C   C701      1.0  0.12451  0.91499  0.66730  1.0000
  C   C702      1.0  0.11396  0.92892  0.66261  1.0000
  C   C703      1.0  0.10655  0.93911  0.67286  1.0000
  H   H685      1.0  0.12256  0.91849  0.70427  1.0000
  H   H686      1.0  0.11153  0.93186  0.65098  1.0000
  H   H687      1.0  0.09846  0.94990  0.66910  1.0000
  C   C704      1.0  0.13294  0.91406  0.78127  1.0000
  C   C705      1.0  0.11906  0.91219  0.79242  1.0000
  C   C706      1.0  0.11708  0.91431  0.80761  1.0000
  C   C707      1.0  0.12904  0.91818  0.81179  1.0000
  C   C708      1.0  0.14313  0.91972  0.80081  1.0000
  C   C709      1.0  0.14510  0.91758  0.78555  1.0000
  H   H688      1.0  0.10994  0.90881  0.78946  1.0000
  H   H689      1.0  0.10623  0.91295  0.81612  1.0000
  H   H690      1.0  0.15246  0.92261  0.80402  1.0000
  H   H691      1.0  0.15594  0.91890  0.77700  1.0000
  C   C710      1.0  0.11556  0.65626  0.77260  1.0000
  C   C711      1.0  0.10371  0.64311  0.75456  1.0000
  C   C712      1.0  0.10065  0.65936  0.75291  1.0000
  C   C713      1.0  0.10672  0.66589  0.76166  1.0000
  H   H692      1.0  0.09348  0.66698  0.74498  1.0000
  H   H693      1.0  0.10455  0.67852  0.75990  1.0000
  C   C714      1.0  0.03162  0.71628  0.51262  1.0000
  N   N56       1.0  0.14855  0.81327  0.62156  1.0000
  Fe  Fe139     1.0  0.08133  0.94480  0.75784  1.0000
  C   C715      1.0  0.09414  0.74589  0.95744  1.0000
  C   C716      1.0  0.02026  0.74044  0.49635  1.0000
  C   C717      1.0  0.10224  0.75794  0.94977  1.0000
  H   H694      1.0  0.14545  0.90214  0.73123  1.0000
  H   H695      1.0  0.10475  0.76143  0.93708  1.0000
  C   C718      1.0  0.05411  0.74387  0.87086  1.0000
  C   C719      1.0  0.06894  0.73843  0.86202  1.0000
  C   C720      1.0  0.07028  0.73269  0.84876  1.0000
  C   C721      1.0  0.05681  0.73248  0.84418  1.0000
  C   C722      1.0  0.04193  0.73817  0.85282  1.0000
  C   C723      1.0  0.04058  0.74387  0.86617  1.0000
  H   H696      1.0  0.07936  0.73844  0.86555  1.0000
  H   H697      1.0  0.08179  0.72829  0.84209  1.0000
  H   H698      1.0  0.03148  0.73801  0.84935  1.0000
  H   H699      1.0  0.02907  0.74804  0.87303  1.0000
  C   C724      1.0  0.12461  0.70814  0.87127  1.0000
  C   C725      1.0  0.13546  0.69579  0.86525  1.0000
  C   C726      1.0  0.13054  0.68616  0.85867  1.0000
  C   C727      1.0  0.11474  0.68885  0.85810  1.0000
  C   C728      1.0  0.10397  0.70146  0.86379  1.0000
  C   C729      1.0  0.10885  0.71096  0.87053  1.0000
  H   H700      1.0  0.13272  0.62839  0.71864  1.0000
  C   C730      1.0  0.19036  0.77635  0.89947  1.0000
  H   H701      1.0  0.09187  0.70403  0.86286  1.0000
  H   H702      1.0  0.10048  0.72062  0.87493  1.0000
  C   C731      1.0  0.10248  0.80449  0.89648  1.0000
  C   C732      1.0  0.09706  0.82067  0.89548  1.0000
  C   C733      1.0  0.09977  0.82777  0.90610  1.0000
  C   C734      1.0  0.10840  0.81879  0.91738  1.0000
  C   C735      1.0  0.11406  0.80263  0.91826  1.0000
  C   C736      1.0  0.11085  0.79542  0.90799  1.0000
  H   H703      1.0  0.09059  0.82769  0.88658  1.0000
  Fe  Fe140     1.0  0.13546  0.65591  0.80311  1.0000
  H   H704      1.0  0.12074  0.79563  0.92698  1.0000
  H   H705      1.0  0.11512  0.78293  0.90878  1.0000
  H   H706      1.0  0.07785  0.66966  0.78705  1.0000
  C   C737      1.0  0.06753  0.78904  0.94050  1.0000
  C   C738      1.0  0.04103  0.75439  0.60073  1.0000
  C   C739      1.0  0.03970  0.76029  0.61394  1.0000
  C   C740      1.0  0.05208  0.76596  0.61546  1.0000
  C   C741      1.0  0.06574  0.76608  0.60359  1.0000
  C   C742      1.0  0.06713  0.76003  0.59047  1.0000
  C   C743      1.0  0.05488  0.75409  0.58909  1.0000
  H   H707      1.0  0.02901  0.76058  0.62299  1.0000
  H   H708      1.0  0.05090  0.77055  0.62564  1.0000
  H   H709      1.0  0.07769  0.76002  0.58127  1.0000
  H   H710      1.0  0.05603  0.74961  0.57885  1.0000
  C   C744      1.0  0.04047  0.61875  0.67092  1.0000
  C   C745      1.0  0.03858  0.63338  0.66052  1.0000
  C   C746      1.0  0.04562  0.64500  0.66143  1.0000
  C   C747      1.0  0.05464  0.64208  0.67269  1.0000
  C   C748      1.0  0.05607  0.62766  0.68347  1.0000
  C   C749      1.0  0.04897  0.61604  0.68259  1.0000
  H   H711      1.0  0.03194  0.63565  0.65160  1.0000
  H   H712      1.0  0.04437  0.65617  0.65312  1.0000
  H   H713      1.0  0.06303  0.62528  0.69216  1.0000
  H   H714      1.0  0.05039  0.60476  0.69074  1.0000
  C   C750      1.0  0.05365  0.63457  0.58565  1.0000
  C   C751      1.0  0.04170  0.64749  0.58913  1.0000
  C   C752      1.0  0.04499  0.66258  0.58483  1.0000
  C   C753      1.0  0.06031  0.66459  0.57747  1.0000
  C   C754      1.0  0.07223  0.65160  0.57429  1.0000
  C   C755      1.0  0.06886  0.63667  0.57815  1.0000
  H   H715      1.0  0.02991  0.64591  0.59490  1.0000
  H   H716      1.0  0.03575  0.67260  0.58735  1.0000
  H   H717      1.0  0.08406  0.65314  0.56860  1.0000
  H   H718      1.0  0.07812  0.62671  0.57547  1.0000
  H   H719      1.0  0.11412  0.62076  0.76770  1.0000
  C   C756      1.0  0.05242  0.85411  0.78433  1.0000
  C   C757      1.0  0.00810  0.54705  0.58927  1.0000
  C   C758      1.0  0.00982  0.53535  0.60283  1.0000
  C   C759      1.0  0.01066  0.53935  0.61648  1.0000
  C   C760      1.0  0.00970  0.55502  0.61661  1.0000
  C   C761      1.0  0.00707  0.56673  0.60329  1.0000
  N   N57       1.0  0.16958  0.89138  0.73029  1.0000
  H   H720      1.0  0.01118  0.52318  0.60262  1.0000
  H   H721      1.0  0.01258  0.53021  0.62678  1.0000
  H   H722      1.0  0.03145  0.79560  0.78815  1.0000
  H   H723      1.0  0.02658  0.48648  0.49456  1.0000
  C   C762      1.0  0.18299  0.89238  0.71884  1.0000
  N   N58       1.0  0.06619  0.69147  0.87840  1.0000
  C   C763      1.0  0.05889  0.70397  0.88533  1.0000
  C   C764      1.0  0.07802  0.68021  0.88413  1.0000
  C   C765      1.0  0.06361  0.70564  0.89811  1.0000
  C   C766      1.0  0.08306  0.68151  0.89690  1.0000
  C   C767      1.0  0.07585  0.69437  0.90385  1.0000
  C   C768      1.0  0.06235  0.69079  0.86395  1.0000
  H   H724      1.0  0.04955  0.71292  0.88081  1.0000
  H   H725      1.0  0.08409  0.67049  0.87842  1.0000
  H   H726      1.0  0.05803  0.71583  0.90328  1.0000
  H   H727      1.0  0.09282  0.67285  0.90102  1.0000
  H   H728      1.0  0.07986  0.69574  0.91353  1.0000
  H   H729      1.0  0.07133  0.69501  0.85361  1.0000
  H   H730      1.0  0.06215  0.67860  0.86401  1.0000
  H   H731      1.0  0.05068  0.69837  0.86242  1.0000
  C   C769      1.0  0.17189  0.87926  0.87828  1.0000
  C   C770      1.0  0.15119  0.59865  0.88419  1.0000
  C   C771      1.0  0.06774  0.72037  0.49086  1.0000
  C   C772      1.0  0.18405  0.88732  0.75016  1.0000
  C   C773      1.0  0.01009  0.52622  0.48682  1.0000
  H   H732      1.0  0.17876  0.61274  0.88650  1.0000
  H   H733      1.0  0.14764  0.69363  0.86577  1.0000
  C   C774      1.0  0.15505  0.75175  0.89307  1.0000
  H   H734      1.0  0.17523  0.96939  0.85338  1.0000
  H   H735      1.0  0.16250  0.55248  0.95943  1.0000
  H   H736      1.0  0.14178  0.68769  0.71178  1.0000
  H   H737      1.0  0.14702  0.74764  0.90382  1.0000
  H   H738      1.0  0.05873  0.76239  0.94645  1.0000
  H   H739      1.0  0.10363  0.68831  0.65087  1.0000
  S   S275      1.0  0.15239  0.64996  0.84043  1.0000
  C   C775      1.0  0.16177  0.58445  0.88835  1.0000
  C   C776      1.0  0.04903  0.86975  0.78552  1.0000
  C   C777      1.0  0.07597  0.79370  0.96574  1.0000
  H   H740      1.0  0.01537  0.75294  0.49452  1.0000
  C   C778      1.0  0.03473  0.87955  0.78268  1.0000
  H   H741      1.0  0.16175  0.88409  0.91591  1.0000
  C   C779      1.0  0.04147  0.84843  0.78049  1.0000
  C   C780      1.0  0.07541  0.80101  0.93820  1.0000
  S   S276      1.0  0.16044  0.64367  0.80433  1.0000
  H   H742      1.0  0.05764  0.87442  0.78807  1.0000
  S   S277      1.0  0.99236  0.52091  0.55192  1.0000
  S   S278      1.0  0.99974  0.83278  0.73380  1.0000
  H   H743      1.0  0.07246  0.70908  0.49777  1.0000
  H   H744      1.0  0.03242  0.89180  0.78319  1.0000
  C   C781      1.0  0.17171  0.98195  0.85202  1.0000
  H   H745      1.0  0.07555  0.69513  0.64889  1.0000
  H   H746      1.0  0.10537  0.74855  0.61816  1.0000
  H   H747      1.0  0.08629  0.81223  0.94916  1.0000
  H   H748      1.0  0.08582  0.64367  0.82311  1.0000
  C   C782      1.0  0.17002  0.88870  0.74578  1.0000
  H   H749      1.0  0.08092  0.60967  0.65666  1.0000
  C   C783      1.0  0.13795  0.67964  0.70706  1.0000
  Fe  Fe141     1.0  0.15260  0.88256  0.66108  1.0000
  H   H750      1.0  0.08532  0.63674  0.64713  1.0000
  C   C784      1.0  0.08677  0.72885  0.62696  1.0000
  C   C785      1.0  0.99969  0.68266  0.80619  1.0000
  H   H751      1.0  0.04399  0.83630  0.77943  1.0000
  S   S279      1.0  0.13980  0.93794  0.85708  1.0000
  C   C786      1.0  0.10822  0.71062  0.63653  1.0000
  C   C787      1.0  0.16094  0.59801  0.85653  1.0000
  H   H752      1.0  0.14376  0.56627  0.95937  1.0000
  H   H753      1.0  0.06427  0.78737  0.93053  1.0000
  S   S280      1.0  0.17702  0.93881  0.84980  1.0000
  H   H754      1.0  0.18983  0.95931  0.80912  1.0000
  C   C788      1.0  0.15670  0.56509  0.95632  1.0000
  H   H755      1.0  0.04281  0.77184  0.96018  1.0000
  H   H756      1.0  0.18122  0.85699  0.87146  1.0000
  C   C789      1.0  0.11773  0.97511  0.81086  1.0000
  H   H757      1.0  0.16104  0.76392  0.96914  1.0000
  S   S281      1.0  0.18160  0.67423  0.80794  1.0000
  H   H758      1.0  0.15362  0.70327  0.80834  1.0000
  S   S282      1.0  0.00180  0.59716  0.65001  1.0000
  H   H759      1.0  0.99725  0.66746  0.59683  1.0000
  H   H760      1.0  0.99516  0.64735  0.60069  1.0000
  N   N59       1.0  0.13412  0.86533  0.88710  1.0000
  C   C790      1.0  0.13323  0.86855  0.87166  1.0000
  C   C791      1.0  0.13262  0.87726  0.89427  1.0000
  C   C792      1.0  0.13050  0.88409  0.86306  1.0000
  C   C793      1.0  0.12990  0.89291  0.88601  1.0000
  C   C794      1.0  0.12880  0.89631  0.87034  1.0000
  C   C795      1.0  0.13745  0.84895  0.89569  1.0000
  H   H761      1.0  0.13464  0.85908  0.86592  1.0000
  H   H762      1.0  0.13379  0.87473  0.90636  1.0000
  H   H763      1.0  0.12976  0.88672  0.85080  1.0000
  H   H764      1.0  0.12905  0.90234  0.89163  1.0000
  H   H765      1.0  0.07087  0.80803  0.71516  1.0000
  H   H766      1.0  0.13497  0.84796  0.90860  1.0000
  H   H767      1.0  0.12993  0.84215  0.89371  1.0000
  H   H768      1.0  0.15003  0.84343  0.89179  1.0000
  H   H769      1.0  0.09403  0.95559  0.78984  1.0000
  H   H770      1.0  0.00008  0.88374  0.78674  1.0000
  S   S283      1.0  0.06796  0.96430  0.77051  1.0000
  H   H771      1.0  0.16203  0.82891  0.96793  1.0000
  H   H772      1.0  0.18505  0.78707  0.90363  1.0000
  H   H773      1.0  0.07962  0.79509  0.97563  1.0000
  H   H774      1.0  0.18415  0.73820  0.86472  1.0000
  S   S284      1.0  0.16101  0.60626  0.83650  1.0000
  S   S285      1.0  0.16802  0.76333  0.92252  1.0000
  C   C796      1.0  0.02728  0.85855  0.77774  1.0000
  C   C797      1.0  0.05569  0.76714  0.95724  1.0000
  Fe  Fe142     1.0  0.00412  0.72176  0.82412  1.0000
  Fe  Fe143     1.0  0.16402  0.84763  0.66342  1.0000
  C   C798      1.0  0.99474  0.52625  0.48666  1.0000
  H   H775      1.0  0.16861  0.71355  0.82067  1.0000
  C   C799      1.0  0.12334  0.72494  0.83043  1.0000
  S   S286      1.0  0.16669  0.91009  0.84191  1.0000
  H   H776      1.0  0.13897  0.67657  0.85424  1.0000
  H   H777      1.0  0.18508  0.89009  0.79361  1.0000
  H   H778      1.0  0.07825  0.80839  0.92661  1.0000
  H   H779      1.0  0.12062  0.73580  0.62750  1.0000
  C   C800      1.0  0.15737  0.73071  0.84239  1.0000
  N   N60       1.0  0.06416  0.77949  0.95503  1.0000
  C   C801      1.0  0.14119  0.63378  0.73610  1.0000
  H   H780      1.0  0.17916  0.57786  0.85165  1.0000
  S   S287      1.0  0.12369  0.66552  0.78226  1.0000
  S   S288      1.0  0.13707  0.67590  0.81224  1.0000
  H   H781      1.0  0.17468  0.68770  0.85875  1.0000
  H   H782      1.0  0.16037  0.56902  0.94334  1.0000
  H   H783      1.0  0.05906  0.75698  0.96675  1.0000
  H   H784      1.0  0.12144  0.81258  0.97395  1.0000
  C   C802      1.0  0.06850  0.81515  0.70395  1.0000
  C   C803      1.0  0.03347  0.70833  0.50075  1.0000
  H   H785      1.0  0.17373  0.71861  0.89666  1.0000
  H   H786      1.0  0.18575  0.76620  0.85673  1.0000
  H   H787      1.0  0.13156  0.80413  0.61662  1.0000
  H   H788      1.0  0.11913  0.79990  0.65794  1.0000
  C   C804      1.0  0.14136  0.80159  0.62228  1.0000
  Fe  Fe144     1.0  0.00841  0.49763  0.54947  1.0000
  H   H789      1.0  0.05679  0.74009  0.69103  1.0000
  C   C805      1.0  0.05990  0.83058  0.70290  1.0000
  H   H790      1.0  0.14158  0.62215  0.74367  1.0000
  C   C806      1.0  0.13996  0.82569  0.65865  1.0000
  H   H791      1.0  0.07281  0.96777  0.71667  1.0000
  N   N61       1.0  0.04353  0.57586  0.57976  1.0000
  C   C807      1.0  0.04619  0.57341  0.59447  1.0000
  C   C808      1.0  0.04321  0.56350  0.57406  1.0000
  C   C809      1.0  0.04821  0.55832  0.60407  1.0000
  C   C810      1.0  0.04535  0.54822  0.58329  1.0000
  C   C811      1.0  0.04774  0.54568  0.59844  1.0000
  C   C812      1.0  0.04106  0.59191  0.57022  1.0000
  H   H792      1.0  0.04645  0.58322  0.59894  1.0000
  H   H793      1.0  0.04077  0.56538  0.56254  1.0000
  H   H794      1.0  0.04955  0.55655  0.61602  1.0000
  H   H795      1.0  0.04440  0.53856  0.57898  1.0000
  H   H796      1.0  0.04868  0.53402  0.60599  1.0000
  H   H797      1.0  0.03762  0.59260  0.55916  1.0000
  H   H798      1.0  0.03155  0.59978  0.57695  1.0000
  H   H799      1.0  0.05200  0.59643  0.56720  1.0000
  H   H800      1.0  0.18404  0.49233  0.88982  1.0000
  H   H801      1.0  0.06410  0.73288  0.50907  1.0000
  H   H802      1.0  0.16733  0.78518  0.87228  1.0000
  H   H803      1.0  0.14957  0.83023  0.60006  1.0000
  S   S289      1.0  0.18663  0.84722  0.66955  1.0000
  H   H804      1.0  0.14171  0.80083  0.66768  1.0000
  C   C813      1.0  0.02902  0.71643  0.48652  1.0000
  C   C814      1.0  0.02202  0.73245  0.48449  1.0000
  H   H805      1.0  0.99439  0.67657  0.57047  1.0000
  H   H806      1.0  0.08156  0.72169  0.72018  1.0000
  S   S290      1.0  0.16371  0.79532  0.97889  1.0000
  H   H807      1.0  0.14811  0.64309  0.75200  1.0000
  C   C815      1.0  0.18451  0.76278  0.90687  1.0000
  Fe  Fe145     1.0  0.18406  0.55914  0.91409  1.0000
  H   H808      1.0  0.16747  0.71919  0.87916  1.0000
  H   H809      1.0  0.12044  0.70753  0.63742  1.0000
  H   H810      1.0  0.17277  0.88586  0.86636  1.0000
  C   C816      1.0  0.01407  0.48802  0.49946  1.0000
  H   H811      1.0  0.07498  0.74499  0.69036  1.0000
  H   H812      1.0  0.01056  0.89678  0.77087  1.0000
  H   H813      1.0  0.15081  0.74141  0.84695  1.0000
  N   N62       1.0  0.07374  0.64216  0.62814  1.0000
  H   H814      1.0  0.17506  0.79283  0.64384  1.0000
  C   C817      1.0  0.07948  0.63242  0.64074  1.0000
  C   C818      1.0  0.14743  0.71106  0.81634  1.0000
  C   C819      1.0  0.13509  0.81155  0.66164  1.0000
  H   H815      1.0  0.06360  0.84649  0.78619  1.0000
  H   H816      1.0  0.11059  0.72793  0.83355  1.0000
  N   N63       1.0  0.08645  0.90346  0.70215  1.0000
  C   C820      1.0  0.09502  0.89023  0.71006  1.0000
  C   C821      1.0  0.08768  0.90574  0.68635  1.0000
  C   C822      1.0  0.10541  0.87901  0.70200  1.0000
  C   C823      1.0  0.09775  0.89464  0.67799  1.0000
  C   C824      1.0  0.10675  0.88128  0.68586  1.0000
  C   C825      1.0  0.07559  0.91521  0.71056  1.0000
  H   H817      1.0  0.09398  0.88837  0.72264  1.0000
  H   H818      1.0  0.08115  0.91638  0.68003  1.0000
  H   H819      1.0  0.11254  0.86875  0.70817  1.0000
  H   H820      1.0  0.09919  0.89676  0.66534  1.0000
  H   H821      1.0  0.11500  0.87291  0.67932  1.0000
  H   H822      1.0  0.07711  0.91297  0.72278  1.0000
  H   H823      1.0  0.07777  0.92712  0.70454  1.0000
  H   H824      1.0  0.06325  0.91501  0.71110  1.0000
  H   H825      1.0  0.13043  0.83189  0.61338  1.0000
  H   H826      1.0  0.14778  0.77575  0.89586  1.0000
  H   H827      1.0  0.16876  0.67444  0.84116  1.0000
  H   H828      1.0  0.15946  0.88759  0.75487  1.0000
  C   C826      1.0  0.16575  0.87817  0.90620  1.0000
  H   H829      1.0  0.01063  0.67899  0.81021  1.0000
  C   C827      1.0  0.17142  0.58376  0.86071  1.0000
  H   H830      1.0  0.18279  0.89388  0.70659  1.0000
  H   H831      1.0  0.13223  0.73497  0.96601  1.0000
  C   C828      1.0  0.17672  0.86287  0.88119  1.0000
  H   H832      1.0  0.08965  0.97571  0.74212  1.0000
  C   C829      1.0  0.18111  0.68876  0.84668  1.0000
  H   H833      1.0  0.07295  0.72469  0.69595  1.0000
  S   S291      1.0  0.17995  0.79600  0.93442  1.0000
  H   H834      1.0  0.15564  0.89578  0.71322  1.0000
  C   C830      1.0  0.12222  0.81102  0.65617  1.0000
  N   N64       1.0  0.06177  0.83315  0.67537  1.0000
  C   C831      1.0  0.05853  0.84268  0.66021  1.0000
  H   H835      1.0  0.07472  0.81324  0.66585  1.0000
  H   H836      1.0  0.05784  0.83519  0.65268  1.0000
  H   H837      1.0  0.04703  0.85118  0.66185  1.0000
  H   H838      1.0  0.06812  0.84905  0.65391  1.0000
  H   H839      1.0  0.16997  0.85497  0.92109  1.0000
  H   H840      1.0  0.09541  0.84026  0.90538  1.0000
  C   C832      1.0  0.16976  0.59692  0.96513  1.0000
  H   H841      1.0  0.05568  0.83552  0.71328  1.0000
  H   H842      1.0  0.12459  0.63236  0.78358  1.0000
  H   H843      1.0  0.12674  0.90839  0.86379  1.0000
  C   C833      1.0  0.08981  0.64891  0.81048  1.0000
  H   H844      1.0  0.08375  0.64491  0.80365  1.0000
  Fe  Fe146     1.0  0.13656  0.81576  0.93347  1.0000
  N   N65       1.0  0.06156  0.73830  0.71333  1.0000
  C   C834      1.0  0.07077  0.72988  0.72384  1.0000
  C   C835      1.0  0.04773  0.74834  0.71801  1.0000
  C   C836      1.0  0.06608  0.73122  0.73956  1.0000
  C   C837      1.0  0.04271  0.74999  0.73362  1.0000
  C   C838      1.0  0.05196  0.74139  0.74444  1.0000
  H   H845      1.0  0.15988  0.72097  0.85256  1.0000
  S   S292      1.0  0.16207  0.90761  0.88730  1.0000
  H   H846      1.0  0.04044  0.75506  0.70969  1.0000
  H   H847      1.0  0.07314  0.72415  0.74796  1.0000
  H   H848      1.0  0.03158  0.75768  0.73737  1.0000
  H   H849      1.0  0.04799  0.74237  0.75664  1.0000
  C   C839      1.0  0.18618  0.68247  0.82113  1.0000
  C   C840      1.0  0.16083  0.81011  0.62879  1.0000
  C   C841      1.0  0.10690  0.76568  0.95861  1.0000
  Fe  Fe147     1.0  0.15017  0.63193  0.82899  1.0000
  H   H850      1.0  0.14802  0.75535  0.95326  1.0000
  H   H851      1.0  0.10628  0.96224  0.77108  1.0000
  C   C842      1.0  0.05658  0.83948  0.68843  1.0000
  C   C843      1.0  0.07389  0.80887  0.69054  1.0000
  H   H852      1.0  0.04952  0.85134  0.68778  1.0000
  H   H853      1.0  0.08042  0.79683  0.69126  1.0000
  N   N66       1.0  0.08646  0.66608  0.80773  1.0000
  C   C844      1.0  0.08049  0.67509  0.79501  1.0000
  H   H854      1.0  0.18410  0.49665  0.94335  1.0000
  H   H855      1.0  0.18429  0.88533  0.76247  1.0000
  N   N67       1.0  0.02418  0.87396  0.77861  1.0000
  H   H856      1.0  0.07251  0.69847  0.78216  1.0000
  C   C845      1.0  0.11192  0.63338  0.76609  1.0000
  C   C846      1.0  0.07752  0.69146  0.79212  1.0000
  Fe  Fe148     1.0  0.99745  0.61751  0.62992  1.0000
  H   H857      1.0  0.14019  0.77716  0.63170  1.0000
  H   H858      1.0  0.03887  0.69593  0.50241  1.0000
  H   H859      1.0  0.09478  0.66590  0.82765  1.0000
  C   C847      1.0  0.08986  0.67300  0.81767  1.0000
  C   C848      1.0  0.08077  0.69861  0.80229  1.0000
  S   S293      1.0  0.02531  0.74315  0.52389  1.0000
  C   C849      1.0  0.11787  0.63993  0.77509  1.0000
  H   H860      1.0  0.10265  0.64439  0.80678  1.0000
  H   H861      1.0  0.17695  0.62424  0.85877  1.0000
  H   H862      1.0  0.07835  0.71132  0.80033  1.0000
  S   S294      1.0  0.17372  0.88562  0.66723  1.0000
  H   H863      1.0  0.08956  0.69481  0.82314  1.0000
  C   C850      1.0  0.08701  0.68935  0.81515  1.0000
  C   C851      1.0  0.14613  0.78635  0.63082  1.0000
  C   C852      1.0  0.16583  0.79504  0.63751  1.0000
  C   C853      1.0  0.15836  0.78312  0.63856  1.0000
  C   C854      1.0  0.06312  0.73373  0.49717  1.0000
  C   C855      1.0  0.13126  0.83952  0.65094  1.0000
  C   C856      1.0  0.05650  0.74808  0.48842  1.0000
  H   H864      1.0  0.08807  0.65887  0.62183  1.0000
  H   H865      1.0  0.13137  0.65504  0.70176  1.0000
  H   H866      1.0  0.01768  0.78234  0.74481  1.0000
  C   C857      1.0  0.07560  0.65847  0.62333  1.0000
  H   H867      1.0  0.16185  0.77144  0.64555  1.0000
  H   H868      1.0  0.07207  0.66458  0.61194  1.0000
  C   C858      1.0  0.07706  0.61708  0.64618  1.0000
  H   H869      1.0  0.16638  0.81941  0.62848  1.0000
  H   H870      1.0  0.11305  0.77509  0.95268  1.0000
  C   C859      1.0  0.13529  0.65244  0.71265  1.0000
  C   C860      1.0  0.06690  0.73696  0.69684  1.0000
  C   C861      1.0  0.06874  0.61172  0.63862  1.0000
  H   H871      1.0  0.06819  0.66500  0.63249  1.0000
  H   H872      1.0  0.05235  0.75837  0.49353  1.0000
  C   C862      1.0  0.06566  0.63696  0.62059  1.0000
  H   H873      1.0  0.06479  0.72132  0.63325  1.0000
  C   C863      1.0  0.07698  0.71818  0.63432  1.0000
  H   H874      1.0  0.08201  0.74017  0.62018  1.0000
  C   C864      1.0  0.13626  0.63726  0.72202  1.0000
  H   H875      1.0  0.06618  0.60009  0.64315  1.0000
  Fe  Fe149     1.0  0.14563  0.92808  0.83563  1.0000
  H   H876      1.0  0.06091  0.64472  0.61075  1.0000
  C   C865      1.0  0.06312  0.62167  0.62566  1.0000
  C   C866      1.0  0.08303  0.70351  0.64301  1.0000
  H   H877      1.0  0.13493  0.85050  0.64856  1.0000
  C   C867      1.0  0.15462  0.89281  0.72616  1.0000
  H   H878      1.0  0.13577  0.90040  0.68603  1.0000
  H   H879      1.0  0.05653  0.61768  0.61978  1.0000
  N   N68       1.0  0.10210  0.72509  0.62833  1.0000
  H   H880      1.0  0.11905  0.73359  0.60874  1.0000
  C   C868      1.0  0.09877  0.69966  0.64410  1.0000
  C   C869      1.0  0.11231  0.73627  0.62027  1.0000
  Fe  Fe150     1.0  0.12825  0.66209  0.83601  1.0000
  S   S295      1.0  0.12504  0.64276  0.82693  1.0000
  C   C870      1.0  0.15589  0.71683  0.82343  1.0000
  C   C871      1.0  0.00633  0.56277  0.58967  1.0000
  H   H881      1.0  0.99872  0.73237  0.61334  1.0000
  S   S296      1.0  0.14882  0.86188  0.68089  1.0000
  H   H882      1.0  0.18005  0.56606  0.87965  1.0000
  C   C872      1.0  0.17583  0.74650  0.87129  1.0000
  S   S297      1.0  0.16643  0.86827  0.64317  1.0000
  C   C873      1.0  0.18929  0.97092  0.81064  1.0000
  C   C874      1.0  0.15546  0.76769  0.88863  1.0000
  C   C875      1.0  0.14349  0.66065  0.73123  1.0000
  Fe  Fe151     1.0  0.16027  0.80327  0.95405  1.0000
  Fe  Fe152     1.0  0.17985  0.92908  0.82876  1.0000
  C   C876      1.0  0.10592  0.95792  0.78389  1.0000
  N   N69       1.0  0.16498  0.74144  0.88427  1.0000
  C   C877      1.0  0.16673  0.88700  0.89073  1.0000
  C   C878      1.0  0.07410  0.98223  0.76305  1.0000
  N   N70       1.0  0.10924  0.96935  0.79056  1.0000
  S   S298      1.0  0.15186  0.82744  0.94002  1.0000
  C   C879      1.0  0.17674  0.76233  0.86666  1.0000
  H   H883      1.0  0.14274  0.61649  0.86518  1.0000
  C   C880      1.0  0.17615  0.85410  0.89661  1.0000
  H   H884      1.0  0.14323  0.60436  0.89328  1.0000
  C   C881      1.0  0.14481  0.64553  0.74079  1.0000
  S   S299      1.0  0.15916  0.94612  0.82036  1.0000
  C   C882      1.0  0.05726  0.98272  0.73194  1.0000
  H   H885      1.0  0.12429  0.71046  0.81480  1.0000
  Fe  Fe153     1.0  0.15522  0.95456  0.84247  1.0000
  S   S300      1.0  0.15804  0.82514  0.66283  1.0000
  C   C883      1.0  0.15090  0.60553  0.86830  1.0000
  H   H886      1.0  0.12565  0.68484  0.70572  1.0000
  H   H887      1.0  0.11478  0.94667  0.78530  1.0000
  C   C884      1.0  0.17031  0.86171  0.90916  1.0000
  C   C885      1.0  0.13103  0.71510  0.81995  1.0000
  C   C886      1.0  0.13219  0.73039  0.83739  1.0000
  C   C887      1.0  0.16645  0.77297  0.87540  1.0000
  Fe  Fe154     1.0  0.16095  0.66248  0.81575  1.0000
  H   H888      1.0  0.14596  0.66977  0.73520  1.0000
  Fe  Fe155     1.0  0.16195  0.92122  0.86240  1.0000
  H   H889      1.0  0.18981  0.85438  0.73545  1.0000
  Fe  Fe156     1.0  0.17149  0.86334  0.68531  1.0000
  S   S301      1.0  0.17458  0.86098  0.70970  1.0000
  S   S302      1.0  0.16204  0.57627  0.90835  1.0000
  S   S303      1.0  0.14307  0.79244  0.94928  1.0000
  H   H890      1.0  0.16876  0.73302  0.83468  1.0000
  C   C888      1.0  0.17197  0.57708  0.87655  1.0000
  C   C889      1.0  0.07980  0.80324  0.95088  1.0000
  S   S304      1.0  0.15392  0.80918  0.91225  1.0000
  H   H891      1.0  0.01151  0.68411  0.78179  1.0000
  N   N71       1.0  0.14826  0.72622  0.83392  1.0000
  H   H892      1.0  0.14551  0.67897  0.69519  1.0000
  H   H893      1.0  0.17373  0.60767  0.95891  1.0000
  H   H894      1.0  0.14567  0.83814  0.61736  1.0000
  H   H895      1.0  0.00590  0.57883  0.60332  1.0000
  S   S305      1.0  0.02060  0.49301  0.52531  1.0000
  H   H896      1.0  0.00524  0.88122  0.76670  1.0000
  C   C890      1.0  0.18766  0.60819  0.87712  1.0000
  H   H897      1.0  0.15081  0.88145  0.73084  1.0000
  H   H898      1.0  0.18164  0.91050  0.80829  1.0000
  C   C891      1.0  0.18240  0.48491  0.94949  1.0000
  H   H899      1.0  0.18586  0.62476  0.83199  1.0000
  S   S306      1.0  0.18410  0.83387  0.89973  1.0000
  S   S307      1.0  0.02192  0.49734  0.56706  1.0000
  H   H900      1.0  0.01354  0.52390  0.49796  1.0000
  Fe  Fe157     1.0  0.18750  0.86952  0.65102  1.0000
  C   C892      1.0  0.16564  0.58808  0.95705  1.0000
  H   H901      1.0  0.12224  0.97109  0.82156  1.0000
  H   H902      1.0  0.05191  0.97341  0.74011  1.0000
  H   H903      1.0  0.16723  0.98114  0.80364  1.0000
  C   C893      1.0  0.00802  0.49099  0.51463  1.0000
  S   S308      1.0  0.18472  0.53647  0.93228  1.0000
  C   C894      1.0  0.00024  0.68552  0.79009  1.0000
  N   N72       1.0  0.16115  0.57423  0.96480  1.0000
  H   H904      1.0  0.00053  0.70948  0.48652  1.0000
  Fe  Fe158     1.0  0.00377  0.48513  0.58478  1.0000
  H   H905      1.0  0.16627  0.59225  0.94450  1.0000
  H   H906      1.0  0.18703  0.73842  0.90710  1.0000
  C   C895      1.0  0.06909  0.97950  0.71892  1.0000
  C   C896      1.0  0.13824  0.73853  0.97283  1.0000
  C   C897      1.0  0.18668  0.61460  0.86140  1.0000
  H   H907      1.0  0.18393  0.48734  0.97199  1.0000
  C   C898      1.0  0.14706  0.75002  0.96568  1.0000
  C   C899      1.0  0.10328  0.76152  0.97511  1.0000
  H   H908      1.0  0.99236  0.75943  0.60039  1.0000
  S   S309      1.0  0.99592  0.85830  0.75471  1.0000
  S   S310      1.0  0.14683  0.98064  0.84075  1.0000
  C   C900      1.0  0.15435  0.75483  0.97473  1.0000
  H   H909      1.0  0.99363  0.81439  0.77297  1.0000
  C   C901      1.0  0.17663  0.98333  0.80743  1.0000
  H   H910      1.0  0.99395  0.68759  0.83521  1.0000
  H   H911      1.0  0.06542  0.77425  0.97916  1.0000
  H   H912      1.0  0.99146  0.72202  0.50960  1.0000
  C   C902      1.0  0.99188  0.49295  0.52091  1.0000
  H   H913      1.0  0.99196  0.80134  0.80003  1.0000
  C   C903      1.0  0.21148  0.20880  0.07552  1.0000
  H   H914      1.0  0.20507  0.19213  0.06676  1.0000
  C   C904      1.0  0.20995  0.28041  0.13167  1.0000
  H   H915      1.0  0.28753  0.06537  0.15851  1.0000
  H   H916      1.0  0.22776  0.39606  0.98359  1.0000
  C   C905      1.0  0.31852  0.07620  0.25197  1.0000
  S   S311      1.0  0.20855  0.41742  0.03549  1.0000
  C   C906      1.0  0.30681  0.08474  0.15358  1.0000
  C   C907      1.0  0.26621  0.32331  0.10047  1.0000
  C   C908      1.0  0.25265  0.28590  0.12052  1.0000
  C   C909      1.0  0.21927  0.07251  0.22173  1.0000
  H   H917      1.0  0.26557  0.33641  0.07680  1.0000
  C   C910      1.0  0.31044  0.05545  0.19133  1.0000
  H   H918      1.0  0.23584  0.12799  0.08030  1.0000
  H   H919      1.0  0.26777  0.02229  0.38144  1.0000
  C   C911      1.0  0.29406  0.06261  0.16767  1.0000
  C   C912      1.0  0.33727  0.03745  0.47503  1.0000
  C   C913      1.0  0.20263  0.99341  0.10159  1.0000
  Fe  Fe159     1.0  0.33541  0.36321  0.04956  1.0000
  S   S312      1.0  0.34320  0.33679  0.05491  1.0000
  S   S313      1.0  0.36972  0.03015  0.47013  1.0000
  Fe  Fe160     1.0  0.30919  0.36258  0.03471  1.0000
  S   S314      1.0  0.31495  0.33643  0.03817  1.0000
  S   S315      1.0  0.29041  0.37762  0.02169  1.0000
  Fe  Fe161     1.0  0.31740  0.33613  0.06213  1.0000
  S   S316      1.0  0.30762  0.31821  0.08308  1.0000
  Fe  Fe162     1.0  0.34002  0.33868  0.03070  1.0000
  Fe  Fe163     1.0  0.21178  0.16144  0.05854  1.0000
  S   S317      1.0  0.30980  0.36241  0.05932  1.0000
  S   S318      1.0  0.33417  0.36490  0.02467  1.0000
  S   S319      1.0  0.23312  0.41559  0.06370  1.0000
  Fe  Fe164     1.0  0.30374  0.03497  0.42790  1.0000
  S   S320      1.0  0.28789  0.01932  0.42920  1.0000
  S   S321      1.0  0.30506  0.04057  0.45026  1.0000
  Fe  Fe165     1.0  0.31435  0.03920  0.39268  1.0000
  S   S322      1.0  0.29967  0.02376  0.39084  1.0000
  S   S323      1.0  0.33017  0.05092  0.37165  1.0000
  Fe  Fe166     1.0  0.28084  0.03634  0.40777  1.0000
  S   S324      1.0  0.25544  0.04144  0.40608  1.0000
  Fe  Fe167     1.0  0.30790  0.00810  0.41225  1.0000
  S   S325      1.0  0.29482  0.05321  0.40795  1.0000
  S   S326      1.0  0.32438  0.02237  0.41256  1.0000
  Fe  Fe168     1.0  0.37461  0.00527  0.27011  1.0000
  H   H920      1.0  0.30777  0.41297  0.01014  1.0000
  S   S327      1.0  0.36277  0.00344  0.32692  1.0000
  C   C914      1.0  0.19149  0.13657  0.00553  1.0000
  H   H921      1.0  0.38974  0.48284  0.99187  1.0000
  C   C915      1.0  0.26247  0.32638  0.08584  1.0000
  C   C916      1.0  0.24937  0.39186  0.99123  1.0000
  Fe  Fe169     1.0  0.21663  0.03814  0.16196  1.0000
  S   S328      1.0  0.20469  0.06208  0.15064  1.0000
  S   S329      1.0  0.23436  0.03552  0.17617  1.0000
  H   H922      1.0  0.31202  0.04373  0.47804  1.0000
  S   S330      1.0  0.35347  0.01616  0.28621  1.0000
  Fe  Fe170     1.0  0.20558  0.05022  0.13165  1.0000
  S   S331      1.0  0.21275  0.06043  0.10592  1.0000
  H   H923      1.0  0.19944  0.11000  0.06893  1.0000
  S   S332      1.0  0.21942  0.02675  0.14194  1.0000
  Fe  Fe171     1.0  0.26615  0.12680  0.19870  1.0000
  S   S333      1.0  0.24811  0.11347  0.20005  1.0000
  S   S334      1.0  0.25770  0.15325  0.19404  1.0000
  Fe  Fe172     1.0  0.29135  0.09690  0.20473  1.0000
  S   S335      1.0  0.27548  0.08142  0.20576  1.0000
  S   S336      1.0  0.31652  0.08454  0.20593  1.0000
  Fe  Fe173     1.0  0.26772  0.09927  0.18528  1.0000
  S   S337      1.0  0.26352  0.09472  0.16377  1.0000
  Fe  Fe174     1.0  0.25731  0.09691  0.22044  1.0000
  S   S338      1.0  0.24228  0.08412  0.24141  1.0000
  S   S339      1.0  0.28532  0.11351  0.18255  1.0000
  S   S340      1.0  0.27362  0.11140  0.22087  1.0000
  S   S341      1.0  0.20793  0.08490  0.32030  1.0000
  C   C917      1.0  0.22810  0.12205  0.09021  1.0000
  H   H924      1.0  0.26745  0.41461  0.07235  1.0000
  Fe  Fe175     1.0  0.20800  0.09197  0.34205  1.0000
  S   S342      1.0  0.23268  0.08763  0.34589  1.0000
  C   C918      1.0  0.21323  0.42866  0.98223  1.0000
  H   H925      1.0  0.22435  0.28325  0.10833  1.0000
  Fe  Fe176     1.0  0.26470  0.24989  0.09268  1.0000
  S   S343      1.0  0.26526  0.24282  0.11835  1.0000
  S   S344      1.0  0.27804  0.26649  0.07343  1.0000
  Fe  Fe177     1.0  0.23789  0.23306  0.09738  1.0000
  S   S345      1.0  0.23613  0.22513  0.12339  1.0000
  S   S346      1.0  0.21956  0.22998  0.08662  1.0000
  Fe  Fe178     1.0  0.23885  0.24934  0.12216  1.0000
  Fe  Fe179     1.0  0.26252  0.21923  0.11709  1.0000
  S   S347      1.0  0.27701  0.19528  0.12590  1.0000
  S   S348      1.0  0.23850  0.25769  0.09663  1.0000
  S   S349      1.0  0.26414  0.22578  0.09089  1.0000
  C   C919      1.0  0.22693  0.18245  0.07437  1.0000
  C   C920      1.0  0.33447  0.99150  0.45266  1.0000
  C   C921      1.0  0.22264  0.21168  0.08185  1.0000
  C   C922      1.0  0.23597  0.19994  0.08439  1.0000
  C   C923      1.0  0.23807  0.18533  0.08071  1.0000
  H   H926      1.0  0.24471  0.20218  0.08905  1.0000
  H   H927      1.0  0.24844  0.17631  0.08261  1.0000
  C   C924      1.0  0.26360  0.16501  0.17526  1.0000
  C   C925      1.0  0.27569  0.15884  0.16376  1.0000
  C   C926      1.0  0.27978  0.16834  0.14876  1.0000
  C   C927      1.0  0.27175  0.18403  0.14507  1.0000
  C   C928      1.0  0.25960  0.19023  0.15652  1.0000
  C   C929      1.0  0.25563  0.18077  0.17161  1.0000
  H   H928      1.0  0.28199  0.14680  0.16644  1.0000
  H   H929      1.0  0.28924  0.16350  0.13997  1.0000
  H   H930      1.0  0.25340  0.20234  0.15383  1.0000
  H   H931      1.0  0.24630  0.18564  0.18047  1.0000
  C   C930      1.0  0.22894  0.09597  0.25373  1.0000
  C   C931      1.0  0.22018  0.08881  0.26787  1.0000
  C   C932      1.0  0.21045  0.09781  0.27860  1.0000
  C   C933      1.0  0.20958  0.11396  0.27532  1.0000
  C   C934      1.0  0.21783  0.12125  0.26087  1.0000
  C   C935      1.0  0.22753  0.11225  0.25005  1.0000
  H   H932      1.0  0.22117  0.07623  0.27073  1.0000
  H   H933      1.0  0.24748  0.02109  0.38923  1.0000
  H   H934      1.0  0.21705  0.13379  0.25821  1.0000
  H   H935      1.0  0.23421  0.11785  0.23906  1.0000
  S   S350      1.0  0.22263  0.43747  0.99085  1.0000
  H   H936      1.0  0.30969  0.99944  0.46179  1.0000
  H   H937      1.0  0.35875  0.40945  0.04577  1.0000
  S   S351      1.0  0.19428  0.03031  0.17507  1.0000
  H   H938      1.0  0.34994  0.28881  0.05409  1.0000
  H   H939      1.0  0.22270  0.03523  0.08699  1.0000
  H   H940      1.0  0.21534  0.08338  0.07686  1.0000
  C   C936      1.0  0.24153  0.05252  0.17289  1.0000
  C   C937      1.0  0.24278  0.06300  0.15824  1.0000
  C   C938      1.0  0.24931  0.07610  0.15559  1.0000
  C   C939      1.0  0.25430  0.07894  0.16766  1.0000
  C   C940      1.0  0.25264  0.06870  0.18243  1.0000
  C   C941      1.0  0.24650  0.05538  0.18497  1.0000
  H   H941      1.0  0.23917  0.06072  0.14882  1.0000
  H   H942      1.0  0.25063  0.08394  0.14412  1.0000
  H   H943      1.0  0.25640  0.07082  0.19182  1.0000
  H   H944      1.0  0.24553  0.04730  0.19631  1.0000
  S   S352      1.0  0.35692  0.32324  0.01515  1.0000
  H   H945      1.0  0.25812  0.01448  0.37144  1.0000
  S   S353      1.0  0.22977  0.16397  0.07006  1.0000
  S   S354      1.0  0.21914  0.13856  0.01147  1.0000
  C   C942      1.0  0.33320  0.06582  0.25248  1.0000
  C   C943      1.0  0.34235  0.06093  0.23881  1.0000
  C   C944      1.0  0.33704  0.06668  0.22465  1.0000
  C   C945      1.0  0.32243  0.07714  0.22411  1.0000
  C   C946      1.0  0.31307  0.08172  0.23788  1.0000
  Fe  Fe180     1.0  0.21573  0.43035  0.04911  1.0000
  H   H946      1.0  0.35371  0.05303  0.23903  1.0000
  H   H947      1.0  0.34438  0.06314  0.21405  1.0000
  H   H948      1.0  0.30185  0.08983  0.23757  1.0000
  C   C947      1.0  0.24928  0.05430  0.38928  1.0000
  C   C948      1.0  0.23360  0.05685  0.38811  1.0000
  C   C949      1.0  0.22836  0.06694  0.37482  1.0000
  C   C950      1.0  0.23879  0.07458  0.36263  1.0000
  C   C951      1.0  0.25453  0.07189  0.36373  1.0000
  C   C952      1.0  0.25979  0.06174  0.37699  1.0000
  H   H949      1.0  0.22542  0.05113  0.39759  1.0000
  H   H950      1.0  0.21622  0.06895  0.37410  1.0000
  H   H951      1.0  0.26263  0.07781  0.35436  1.0000
  H   H952      1.0  0.27188  0.05987  0.37780  1.0000
  C   C953      1.0  0.34076  0.03745  0.35979  1.0000
  C   C954      1.0  0.33985  0.02165  0.36500  1.0000
  C   C955      1.0  0.34708  0.01120  0.35496  1.0000
  C   C956      1.0  0.35519  0.01651  0.33965  1.0000
  C   C957      1.0  0.35653  0.03221  0.33459  1.0000
  C   C958      1.0  0.34939  0.04266  0.34469  1.0000
  H   H953      1.0  0.33349  0.01745  0.37673  1.0000
  H   H954      1.0  0.34614  0.99903  0.35899  1.0000
  H   H955      1.0  0.36295  0.03634  0.32288  1.0000
  H   H956      1.0  0.35022  0.05485  0.34066  1.0000
  C   C959      1.0  0.29928  0.30389  0.08039  1.0000
  C   C960      1.0  0.29487  0.30541  0.06634  1.0000
  C   C961      1.0  0.28814  0.29399  0.06454  1.0000
  C   C962      1.0  0.28559  0.28095  0.07679  1.0000
  C   C963      1.0  0.28978  0.27946  0.09096  1.0000
  C   C964      1.0  0.29664  0.29088  0.09272  1.0000
  H   H957      1.0  0.29643  0.31548  0.05689  1.0000
  H   H958      1.0  0.28492  0.29524  0.05354  1.0000
  H   H959      1.0  0.28803  0.26935  0.10042  1.0000
  H   H960      1.0  0.29999  0.28959  0.10365  1.0000
  C   C965      1.0  0.27381  0.38722  0.03357  1.0000
  C   C966      1.0  0.26323  0.39975  0.02649  1.0000
  C   C967      1.0  0.25048  0.40823  0.03576  1.0000
  C   C968      1.0  0.24828  0.40422  0.05215  1.0000
  C   C969      1.0  0.25863  0.39147  0.05926  1.0000
  C   C970      1.0  0.27131  0.38291  0.04998  1.0000
  H   H961      1.0  0.26516  0.40331  0.01383  1.0000
  H   H962      1.0  0.24265  0.41817  0.03016  1.0000
  H   H963      1.0  0.25687  0.38824  0.07194  1.0000
  H   H964      1.0  0.27908  0.37295  0.05553  1.0000
  C   C971      1.0  0.22229  0.09856  0.10891  1.0000
  C   C972      1.0  0.26427  0.98618  0.38821  1.0000
  C   C973      1.0  0.35162  0.03266  0.46505  1.0000
  C   C974      1.0  0.19904  0.39823  0.07717  1.0000
  H   H965      1.0  0.20175  0.40498  0.08426  1.0000
  C   C975      1.0  0.32312  0.03706  0.45584  1.0000
  C   C976      1.0  0.33746  0.03198  0.44599  1.0000
  C   C977      1.0  0.35166  0.02999  0.45050  1.0000
  H   H966      1.0  0.20487  0.30473  0.09658  1.0000
  C   C978      1.0  0.23239  0.10593  0.09615  1.0000
  H   H967      1.0  0.33765  0.02992  0.43478  1.0000
  H   H968      1.0  0.36273  0.02633  0.44271  1.0000
  S   S355      1.0  0.33992  0.05968  0.27024  1.0000
  N   N73       1.0  0.20486  0.17510  0.98338  1.0000
  C   C979      1.0  0.25909  0.01502  0.38321  1.0000
  C   C980      1.0  0.32151  0.99725  0.46365  1.0000
  C   C981      1.0  0.34964  0.98921  0.45506  1.0000
  H   H969      1.0  0.33380  0.28774  0.07121  1.0000
  C   C982      1.0  0.37133  0.37136  0.06316  1.0000
  C   C983      1.0  0.19953  0.02183  0.10921  1.0000
  C   C984      1.0  0.34766  0.31943  0.00242  1.0000
  H   H970      1.0  0.22186  0.17186  0.99690  1.0000
  C   C985      1.0  0.38478  0.37290  0.06708  1.0000
  H   H971      1.0  0.36806  0.36010  0.06649  1.0000
  H   H972      1.0  0.23708  0.01693  0.08825  1.0000
  H   H973      1.0  0.26734  0.00870  0.41059  1.0000
  C   C986      1.0  0.31628  0.26648  0.04888  1.0000
  H   H974      1.0  0.20180  0.26363  0.08491  1.0000
  H   H975      1.0  0.32271  0.39853  0.03093  1.0000
  H   H976      1.0  0.24346  0.09914  0.09080  1.0000
  H   H977      1.0  0.19998  0.10155  0.12515  1.0000
  C   C987      1.0  0.33699  0.29214  0.05826  1.0000
  C   C988      1.0  0.19606  0.10307  0.08057  1.0000
  H   H978      1.0  0.36812  0.05387  0.39259  1.0000
  C   C989      1.0  0.37804  0.34246  0.98137  1.0000
  H   H979      1.0  0.29655  0.08928  0.14789  1.0000
  H   H980      1.0  0.28409  0.40015  0.07776  1.0000
  H   H981      1.0  0.32093  0.07489  0.17774  1.0000
  H   H982      1.0  0.22538  0.08598  0.11349  1.0000
  C   C990      1.0  0.37971  0.40061  0.05517  1.0000
  S   S356      1.0  0.22296  0.26363  0.13960  1.0000
  H   H983      1.0  0.23861  0.18054  0.11547  1.0000
  C   C991      1.0  0.32308  0.03978  0.47036  1.0000
  H   H984      1.0  0.29766  0.03703  0.20251  1.0000
  C   C992      1.0  0.21329  0.28733  0.11567  1.0000
  H   H985      1.0  0.33124  0.08062  0.31141  1.0000
  Fe  Fe181     1.0  0.19565  0.02145  0.15401  1.0000
  C   C993      1.0  0.21353  0.13052  0.09689  1.0000
  S   S357      1.0  0.39075  0.00111  0.28623  1.0000
  H   H986      1.0  0.37408  0.99890  0.45998  1.0000
  H   H987      1.0  0.28308  0.04328  0.18113  1.0000
  H   H988      1.0  0.35019  0.29080  0.98365  1.0000
  H   H989      1.0  0.20119  0.21787  0.07350  1.0000
  H   H990      1.0  0.21768  0.06712  0.24663  1.0000
  H   H991      1.0  0.31540  0.33363  0.98620  1.0000
  H   H992      1.0  0.19634  0.37384  0.06810  1.0000
  H   H993      1.0  0.32925  0.34035  0.00278  1.0000
  H   H994      1.0  0.26495  0.15124  0.11824  1.0000
  H   H995      1.0  0.21036  0.39381  0.06943  1.0000
  C   C994      1.0  0.26515  0.38383  0.98939  1.0000
  C   C995      1.0  0.31433  0.27446  0.03376  1.0000
  C   C996      1.0  0.20740  0.13701  0.99960  1.0000
  C   C997      1.0  0.25215  0.30283  0.09421  1.0000
  S   S358      1.0  0.19516  0.11684  0.33436  1.0000
  H   H996      1.0  0.22927  0.02581  0.10502  1.0000
  C   C998      1.0  0.32380  0.27241  0.05682  1.0000
  C   C999      1.0  0.26278  0.30997  0.11177  1.0000
  H   H997      1.0  0.24706  0.29468  0.09147  1.0000
  S   S359      1.0  0.20946  0.17160  0.03359  1.0000
  H   H998      1.0  0.35236  0.06293  0.38244  1.0000
  S   S360      1.0  0.19897  0.12488  0.28960  1.0000
  N   N74       1.0  0.32906  0.28601  0.04993  1.0000
  C   C1000     1.0  0.20495  0.08790  0.08501  1.0000
  H   H999      1.0  0.30715  0.07415  0.42304  1.0000
  H   H1000     1.0  0.30830  0.27011  0.02758  1.0000
  H   H1001     1.0  0.22600  0.99598  0.08950  1.0000
  H   H1002     1.0  0.26597  0.30752  0.12303  1.0000
  H   H1003     1.0  0.36475  0.05829  0.41790  1.0000
  H   H1004     1.0  0.31860  0.29442  0.01493  1.0000
  C   C1001     1.0  0.32383  0.00050  0.47690  1.0000
  N   N75       1.0  0.19173  0.38523  0.08705  1.0000
  H   H1005     1.0  0.33274  0.98904  0.44226  1.0000
  C   C1002     1.0  0.21108  0.07576  0.20983  1.0000
  H   H1006     1.0  0.36430  0.29769  0.99981  1.0000
  H   H1007     1.0  0.25941  0.17990  0.11255  1.0000
  C   C1003     1.0  0.21144  0.98506  0.13948  1.0000
  H   H1008     1.0  0.19334  0.28155  0.15377  1.0000
  H   H1009     1.0  0.34793  0.98744  0.28287  1.0000
  H   H1010     1.0  0.37773  0.33014  0.98588  1.0000
  Fe  Fe182     1.0  0.20660  0.14792  0.03329  1.0000
  C   C1004     1.0  0.25531  0.31614  0.08269  1.0000
  C   C1005     1.0  0.20787  0.10742  0.11538  1.0000
  C   C1006     1.0  0.33391  0.32960  0.99851  1.0000
  Fe  Fe183     1.0  0.21069  0.43851  0.01595  1.0000
  H   H1011     1.0  0.24445  0.39963  0.99943  1.0000
  S   S361      1.0  0.21177  0.13714  0.05726  1.0000
  C   C1007     1.0  0.29154  0.05005  0.18043  1.0000
  S   S362      1.0  0.22014  0.45047  0.02874  1.0000
  H   H1012     1.0  0.31674  0.05305  0.20064  1.0000
  H   H1013     1.0  0.31140  0.08009  0.26247  1.0000
  C   C1008     1.0  0.28051  0.41203  0.07046  1.0000
  N   N76       1.0  0.20350  0.12311  0.10910  1.0000
  C   C1009     1.0  0.33116  0.07120  0.30584  1.0000
  C   C1010     1.0  0.36175  0.38456  0.05560  1.0000
  C   C1011     1.0  0.38898  0.38755  0.06322  1.0000
  H   H1014     1.0  0.38996  0.37139  0.98915  1.0000
  H   H1015     1.0  0.33171  0.30443  0.02957  1.0000
  C   C1012     1.0  0.35538  0.05506  0.39350  1.0000
  C   C1013     1.0  0.31616  0.06027  0.33181  1.0000
  C   C1014     1.0  0.32837  0.04390  0.31348  1.0000
  C   C1015     1.0  0.31048  0.04782  0.34290  1.0000
  C   C1016     1.0  0.32302  0.03115  0.32432  1.0000
  C   C1017     1.0  0.31409  0.03313  0.33916  1.0000
  H   H1016     1.0  0.31364  0.07152  0.33499  1.0000
  H   H1017     1.0  0.33541  0.04227  0.30203  1.0000
  H   H1018     1.0  0.30386  0.04941  0.35452  1.0000
  H   H1019     1.0  0.32623  0.01972  0.32136  1.0000
  H   H1020     1.0  0.31032  0.02322  0.34787  1.0000
  N   N77       1.0  0.24938  0.16542  0.13382  1.0000
  C   C1018     1.0  0.25839  0.15156  0.13016  1.0000
  C   C1019     1.0  0.24099  0.16584  0.14883  1.0000
  C   C1020     1.0  0.25939  0.13768  0.14179  1.0000
  C   C1021     1.0  0.24175  0.15219  0.16074  1.0000
  C   C1022     1.0  0.25105  0.13807  0.15715  1.0000
  C   C1023     1.0  0.24811  0.17972  0.12139  1.0000
  N   N78       1.0  0.35181  0.99267  0.46797  1.0000
  H   H1021     1.0  0.23403  0.17685  0.15179  1.0000
  H   H1022     1.0  0.26663  0.12668  0.13900  1.0000
  H   H1023     1.0  0.23565  0.15267  0.17279  1.0000
  H   H1024     1.0  0.25192  0.12746  0.16629  1.0000
  H   H1025     1.0  0.24558  0.19034  0.12624  1.0000
  C   C1024     1.0  0.29972  0.04653  0.19238  1.0000
  H   H1026     1.0  0.31110  0.99267  0.38546  1.0000
  N   N79       1.0  0.24370  0.10444  0.29444  1.0000
  C   C1025     1.0  0.24662  0.08856  0.30034  1.0000
  C   C1026     1.0  0.24872  0.11037  0.27876  1.0000
  C   C1027     1.0  0.25413  0.07816  0.29032  1.0000
  C   C1028     1.0  0.25655  0.10031  0.26847  1.0000
  C   C1029     1.0  0.25906  0.08411  0.27426  1.0000
  C   C1030     1.0  0.23581  0.11525  0.30501  1.0000
  H   H1027     1.0  0.24296  0.08386  0.31285  1.0000
  H   H1028     1.0  0.24638  0.12295  0.27406  1.0000
  H   H1029     1.0  0.25599  0.06558  0.29496  1.0000
  H   H1030     1.0  0.26016  0.10502  0.25598  1.0000
  H   H1031     1.0  0.26461  0.07624  0.26624  1.0000
  H   H1032     1.0  0.22888  0.10936  0.31614  1.0000
  H   H1033     1.0  0.24463  0.11970  0.30797  1.0000
  H   H1034     1.0  0.22739  0.12528  0.29948  1.0000
  H   H1035     1.0  0.35326  0.04333  0.39430  1.0000
  N   N80       1.0  0.28802  0.41248  0.05384  1.0000
  C   C1031     1.0  0.30332  0.40473  0.04982  1.0000
  C   C1032     1.0  0.27994  0.42111  0.04244  1.0000
  C   C1033     1.0  0.31065  0.40488  0.03405  1.0000
  H   H1036     1.0  0.21020  0.14300  0.09204  1.0000
  H   H1037     1.0  0.28394  0.42080  0.07457  1.0000
  N   N81       1.0  0.30428  0.07156  0.16696  1.0000
  H   H1038     1.0  0.30993  0.39823  0.05881  1.0000
  C   C1034     1.0  0.28693  0.42149  0.02655  1.0000
  C   C1035     1.0  0.30232  0.41315  0.02238  1.0000
  N   N82       1.0  0.21334  0.01534  0.10025  1.0000
  H   H1039     1.0  0.28029  0.42788  0.01758  1.0000
  Fe  Fe184     1.0  0.37010  0.01414  0.30122  1.0000
  C   C1036     1.0  0.21364  0.19423  0.07174  1.0000
  H   H1040     1.0  0.24191  0.28920  0.12950  1.0000
  S   S363      1.0  0.34364  0.38381  0.05208  1.0000
  C   C1037     1.0  0.32742  0.29375  0.03502  1.0000
  C   C1038     1.0  0.26764  0.99823  0.40686  1.0000
  C   C1039     1.0  0.36788  0.99079  0.46976  1.0000
  H   H1041     1.0  0.32493  0.26632  0.06870  1.0000
  H   H1042     1.0  0.23176  0.07236  0.21882  1.0000
  H   H1043     1.0  0.38276  0.41195  0.05218  1.0000
  H   H1044     1.0  0.26270  0.28007  0.12637  1.0000
  C   C1040     1.0  0.38507  0.36556  0.98326  1.0000
  N   N83       1.0  0.26390  0.99941  0.39290  1.0000
  N   N84       1.0  0.25602  0.29984  0.10849  1.0000
  H   H1045     1.0  0.31154  0.25605  0.05462  1.0000
  Fe  Fe185     1.0  0.36050  0.03901  0.27344  1.0000
  H   H1046     1.0  0.34346  0.06704  0.29964  1.0000
  H   H1047     1.0  0.20555  0.24767  0.11099  1.0000
  H   H1048     1.0  0.33339  0.30516  0.05615  1.0000
  N   N85       1.0  0.32518  0.05813  0.31740  1.0000
  C   C1041     1.0  0.32000  0.28814  0.02672  1.0000
  C   C1042     1.0  0.38430  0.34980  0.98918  1.0000
  H   H1049     1.0  0.31892  0.07569  0.44408  1.0000
  H   H1050     1.0  0.25273  0.31817  0.07121  1.0000
  C   C1043     1.0  0.36609  0.39915  0.05156  1.0000
  H   H1051     1.0  0.34793  0.06786  0.44138  1.0000
  N   N86       1.0  0.34557  0.06136  0.40714  1.0000
  C   C1044     1.0  0.32963  0.06579  0.40849  1.0000
  C   C1045     1.0  0.35217  0.06218  0.41870  1.0000
  C   C1046     1.0  0.31984  0.07117  0.42170  1.0000
  C   C1047     1.0  0.34273  0.06768  0.43199  1.0000
  C   C1048     1.0  0.32645  0.07210  0.43351  1.0000
  H   H1052     1.0  0.19824  0.03298  0.11218  1.0000
  H   H1053     1.0  0.32443  0.06497  0.39939  1.0000
  S   S364      1.0  0.38052  0.02822  0.25593  1.0000
  H   H1054     1.0  0.21721  0.07790  0.19757  1.0000
  H   H1055     1.0  0.32384  0.07618  0.29685  1.0000
  S   S365      1.0  0.37591  0.03778  0.28973  1.0000
  H   H1056     1.0  0.27230  0.33090  0.10281  1.0000
  H   H1057     1.0  0.30830  0.09471  0.15753  1.0000
  H   H1058     1.0  0.31747  0.08097  0.14476  1.0000
  C   C1049     1.0  0.20232  0.29974  0.10908  1.0000
  C   C1050     1.0  0.21123  0.06953  0.23747  1.0000
  H   H1059     1.0  0.26786  0.42741  0.04560  1.0000
  C   C1051     1.0  0.31267  0.06792  0.17840  1.0000
  H   H1060     1.0  0.20364  0.09220  0.28942  1.0000
  H   H1061     1.0  0.25068  0.27702  0.11537  1.0000
  C   C1052     1.0  0.19495  0.07629  0.21379  1.0000
  C   C1053     1.0  0.20060  0.07873  0.10003  1.0000
  Fe  Fe186     1.0  0.19486  0.46139  0.03742  1.0000
  C   C1054     1.0  0.21402  0.13680  0.98373  1.0000
  C   C1055     1.0  0.20093  0.42139  0.99131  1.0000
  C   C1056     1.0  0.22628  0.02365  0.09481  1.0000
  C   C1057     1.0  0.32611  0.32585  0.98909  1.0000
  C   C1058     1.0  0.21981  0.17292  0.98536  1.0000
  H   H1062     1.0  0.21755  0.99361  0.13981  1.0000
  C   C1059     1.0  0.21501  0.00131  0.09640  1.0000
  H   H1063     1.0  0.38845  0.34328  0.99978  1.0000
  C   C1060     1.0  0.19587  0.28664  0.14128  1.0000
  H   H1064     1.0  0.19702  0.42126  0.00375  1.0000
  C   C1061     1.0  0.19568  0.25764  0.11026  1.0000
  H   H1065     1.0  0.21426  0.46921  0.99044  1.0000
  N   N87       1.0  0.19550  0.06965  0.24125  1.0000
  H   H1066     1.0  0.26143  0.98703  0.37711  1.0000
  H   H1067     1.0  0.20778  0.47920  0.05572  1.0000
  H   H1068     1.0  0.29231  0.36358  0.98779  1.0000
  C   C1062     1.0  0.35370  0.30562  0.99676  1.0000
  H   H1069     1.0  0.20041  0.24633  0.13883  1.0000
  C   C1063     1.0  0.19375  0.41404  0.98433  1.0000
  H   H1070     1.0  0.39089  0.40604  0.01531  1.0000
  Fe  Fe187     1.0  0.19383  0.10914  0.31347  1.0000
  H   H1071     1.0  0.19475  0.16907  0.00784  1.0000
  H   H1072     1.0  0.27243  0.38537  0.99631  1.0000
  C   C1064     1.0  0.21662  0.48063  0.98419  1.0000
  C   C1065     1.0  0.34571  0.30169  0.98767  1.0000
  C   C1066     1.0  0.19357  0.26664  0.09544  1.0000
  H   H1073     1.0  0.38577  0.46014  0.98591  1.0000
  H   H1074     1.0  0.19508  0.05828  0.26534  1.0000
  C   C1067     1.0  0.33190  0.31177  0.98384  1.0000
  C   C1068     1.0  0.19151  0.17669  0.99680  1.0000
  S   S366      1.0  0.37671  0.98553  0.25868  1.0000
  C   C1069     1.0  0.19583  0.98559  0.14768  1.0000
  C   C1070     1.0  0.24000  0.38996  0.98229  1.0000
  H   H1075     1.0  0.35969  0.98486  0.44644  1.0000
  S   S367      1.0  0.19112  0.44217  0.05925  1.0000
  C   C1071     1.0  0.33914  0.99824  0.47884  1.0000
  C   C1072     1.0  0.19135  0.37349  0.08050  1.0000
  H   H1076     1.0  0.19103  0.40639  0.06970  1.0000
  S   S368      1.0  0.38871  0.04997  0.72222  1.0000
  H   H1077     1.0  0.26262  0.28051  0.81045  1.0000
  Fe  Fe188     1.0  0.31445  0.03520  0.66727  1.0000
  S   S369      1.0  0.28855  0.04125  0.66851  1.0000
  S   S370      1.0  0.32305  0.02786  0.68983  1.0000
  Fe  Fe189     1.0  0.32255  0.03889  0.63169  1.0000
  S   S371      1.0  0.29721  0.04552  0.62969  1.0000
  S   S372      1.0  0.34492  0.03353  0.61366  1.0000
  Fe  Fe190     1.0  0.29385  0.06022  0.64729  1.0000
  S   S373      1.0  0.28081  0.08527  0.64737  1.0000
  Fe  Fe191     1.0  0.29396  0.02601  0.65116  1.0000
  S   S374      1.0  0.27963  0.00775  0.65634  1.0000
  S   S375      1.0  0.31957  0.05528  0.64729  1.0000
  S   S376      1.0  0.31943  0.01824  0.65183  1.0000
  Fe  Fe192     1.0  0.38014  0.03549  0.74581  1.0000
  H   H1078     1.0  0.20936  0.99060  0.82240  1.0000
  C   C1073     1.0  0.20356  0.36024  0.86110  1.0000
  Fe  Fe193     1.0  0.36410  0.06458  0.75949  1.0000
  S   S377      1.0  0.37183  0.08116  0.73692  1.0000
  S   S378      1.0  0.34803  0.07267  0.78102  1.0000
  Fe  Fe194     1.0  0.36479  0.06560  0.72588  1.0000
  S   S379      1.0  0.35139  0.07603  0.70659  1.0000
  H   H1079     1.0  0.21426  0.14913  0.82934  1.0000
  H   H1080     1.0  0.31385  0.00514  0.48542  1.0000
  S   S380      1.0  0.35550  0.05010  0.74855  1.0000
  H   H1081     1.0  0.30301  0.22491  0.87102  1.0000
  Fe  Fe195     1.0  0.30971  0.35448  0.93176  1.0000
  S   S381      1.0  0.30228  0.33165  0.93727  1.0000
  S   S382      1.0  0.29091  0.37593  0.93522  1.0000
  Fe  Fe196     1.0  0.34453  0.33989  0.92395  1.0000
  S   S383      1.0  0.34003  0.31571  0.92824  1.0000
  S   S384      1.0  0.36992  0.34196  0.91841  1.0000
  Fe  Fe197     1.0  0.32035  0.32730  0.91546  1.0000
  S   S385      1.0  0.31445  0.31990  0.89616  1.0000
  Fe  Fe198     1.0  0.32242  0.32226  0.94952  1.0000
  C   C1074     1.0  0.34431  0.99798  0.59328  1.0000
  S   S386      1.0  0.32656  0.35106  0.90905  1.0000
  S   S387      1.0  0.32816  0.34555  0.94612  1.0000
  Fe  Fe199     1.0  0.21744  0.40036  0.90402  1.0000
  H   H1082     1.0  0.22485  0.47650  0.94686  1.0000
  S   S388      1.0  0.24063  0.38486  0.89522  1.0000
  C   C1075     1.0  0.19511  0.11221  0.76986  1.0000
  S   S389      1.0  0.21407  0.12983  0.93088  1.0000
  S   S390      1.0  0.23695  0.16373  0.91780  1.0000
  Fe  Fe200     1.0  0.26949  0.26039  0.89104  1.0000
  S   S391      1.0  0.27601  0.26961  0.86498  1.0000
  S   S392      1.0  0.28183  0.26269  0.90860  1.0000
  Fe  Fe201     1.0  0.24209  0.24833  0.88877  1.0000
  S   S393      1.0  0.24637  0.25680  0.86265  1.0000
  S   S394      1.0  0.22071  0.23779  0.89909  1.0000
  Fe  Fe202     1.0  0.27172  0.24701  0.86296  1.0000
  S   S395      1.0  0.28691  0.23359  0.84450  1.0000
  Fe  Fe203     1.0  0.24999  0.27843  0.86720  1.0000
  S   S396      1.0  0.23879  0.30255  0.85554  1.0000
  S   S397      1.0  0.26743  0.23684  0.88894  1.0000
  S   S398      1.0  0.24366  0.27084  0.89334  1.0000
  C   C1076     1.0  0.20987  0.37200  0.87881  1.0000
  Fe  Fe204     1.0  0.36618  0.00439  0.52708  1.0000
  C   C1077     1.0  0.34357  0.98647  0.68463  1.0000
  N   N88       1.0  0.24588  0.26746  0.82528  1.0000
  C   C1078     1.0  0.32479  0.09036  0.74108  1.0000
  S   S399      1.0  0.21647  0.08015  0.80996  1.0000
  Fe  Fe205     1.0  0.28720  0.14852  0.79305  1.0000
  S   S400      1.0  0.26983  0.13561  0.79207  1.0000
  S   S401      1.0  0.31172  0.14334  0.77803  1.0000
  Fe  Fe206     1.0  0.26358  0.16926  0.81401  1.0000
  S   S402      1.0  0.24418  0.15809  0.81443  1.0000
  S   S403      1.0  0.25443  0.18706  0.82968  1.0000
  Fe  Fe207     1.0  0.26133  0.13520  0.81779  1.0000
  S   S404      1.0  0.25171  0.11553  0.83584  1.0000
  Fe  Fe208     1.0  0.25368  0.15928  0.78872  1.0000
  S   S405      1.0  0.23559  0.16657  0.77371  1.0000
  S   S406      1.0  0.28030  0.14594  0.81939  1.0000
  S   S407      1.0  0.27163  0.17264  0.78768  1.0000
  H   H1083     1.0  0.32962  0.00684  0.61347  1.0000
  S   S408      1.0  0.20070  0.41396  0.88820  1.0000
  S   S409      1.0  0.20932  0.09660  0.68337  1.0000
  Fe  Fe209     1.0  0.20999  0.12538  0.72359  1.0000
  S   S410      1.0  0.23147  0.12126  0.73349  1.0000
  S   S411      1.0  0.20453  0.10273  0.72382  1.0000
  C   C1079     1.0  0.23427  0.15355  0.76307  1.0000
  C   C1080     1.0  0.24569  0.13975  0.76167  1.0000
  C   C1081     1.0  0.24464  0.12991  0.75263  1.0000
  C   C1082     1.0  0.23211  0.13373  0.74503  1.0000
  C   C1083     1.0  0.22046  0.14730  0.74673  1.0000
  C   C1084     1.0  0.22159  0.15722  0.75567  1.0000
  H   H1084     1.0  0.25550  0.13683  0.76725  1.0000
  H   H1085     1.0  0.25364  0.11938  0.75141  1.0000
  H   H1086     1.0  0.21079  0.15039  0.74084  1.0000
  H   H1087     1.0  0.21274  0.16790  0.75666  1.0000
  C   C1085     1.0  0.31657  0.11846  0.73297  1.0000
  C   C1086     1.0  0.38916  0.36545  0.88290  1.0000
  H   H1088     1.0  0.36398  0.02309  0.71060  1.0000
  C   C1087     1.0  0.33735  0.01201  0.56850  1.0000
  S   S412      1.0  0.19985  0.38806  0.92211  1.0000
  H   H1089     1.0  0.21723  0.09100  0.87657  1.0000
  C   C1088     1.0  0.20981  0.46429  0.90923  1.0000
  H   H1090     1.0  0.36872  0.37262  0.95191  1.0000
  H   H1091     1.0  0.19306  0.11000  0.83973  1.0000
  C   C1089     1.0  0.22664  0.08940  0.81731  1.0000
  C   C1090     1.0  0.23478  0.10054  0.80689  1.0000
  C   C1091     1.0  0.24226  0.10876  0.81255  1.0000
  C   C1092     1.0  0.24220  0.10545  0.82857  1.0000
  C   C1093     1.0  0.23424  0.09412  0.83898  1.0000
  C   C1094     1.0  0.22626  0.08627  0.83340  1.0000
  H   H1092     1.0  0.23501  0.10312  0.79446  1.0000
  H   H1093     1.0  0.24803  0.11763  0.80447  1.0000
  H   H1094     1.0  0.23428  0.09142  0.85135  1.0000
  H   H1095     1.0  0.22006  0.07763  0.84151  1.0000
  C   C1095     1.0  0.27842  0.21990  0.84087  1.0000
  C   C1096     1.0  0.26354  0.21758  0.84945  1.0000
  C   C1097     1.0  0.25649  0.20741  0.84586  1.0000
  C   C1098     1.0  0.26431  0.19925  0.83382  1.0000
  C   C1099     1.0  0.27933  0.20132  0.82539  1.0000
  C   C1100     1.0  0.28633  0.21169  0.82887  1.0000
  H   H1096     1.0  0.25737  0.22367  0.85883  1.0000
  H   H1097     1.0  0.24487  0.20590  0.85245  1.0000
  H   H1098     1.0  0.28543  0.19512  0.81606  1.0000
  H   H1099     1.0  0.29784  0.21343  0.82216  1.0000
  C   C1101     1.0  0.21064  0.31471  0.84636  1.0000
  C   C1102     1.0  0.21961  0.30220  0.85537  1.0000
  C   C1103     1.0  0.21363  0.28882  0.86340  1.0000
  H   H1100     1.0  0.21521  0.32510  0.84011  1.0000
  H   H1101     1.0  0.22010  0.27940  0.87091  1.0000
  H   H1102     1.0  0.28185  0.33918  0.90561  1.0000
  H   H1103     1.0  0.24344  0.34308  0.87635  1.0000
  H   H1104     1.0  0.23936  0.37904  0.96425  1.0000
  C   C1104     1.0  0.38101  0.98584  0.73933  1.0000
  C   C1105     1.0  0.23273  0.18426  0.91210  1.0000
  C   C1106     1.0  0.24335  0.19272  0.91249  1.0000
  C   C1107     1.0  0.23978  0.20919  0.90835  1.0000
  C   C1108     1.0  0.22562  0.21719  0.90379  1.0000
  C   C1109     1.0  0.21512  0.20867  0.90322  1.0000
  C   C1110     1.0  0.21868  0.19224  0.90733  1.0000
  H   H1105     1.0  0.25424  0.18658  0.91615  1.0000
  H   H1106     1.0  0.24780  0.21569  0.90907  1.0000
  H   H1107     1.0  0.21898  0.37659  0.85376  1.0000
  H   H1108     1.0  0.21060  0.18577  0.90664  1.0000
  C   C1111     1.0  0.30510  0.30415  0.90002  1.0000
  C   C1112     1.0  0.29941  0.30199  0.88800  1.0000
  C   C1113     1.0  0.29207  0.28945  0.89054  1.0000
  C   C1114     1.0  0.29048  0.27888  0.90511  1.0000
  C   C1115     1.0  0.29617  0.28102  0.91713  1.0000
  C   C1116     1.0  0.30335  0.29368  0.91464  1.0000
  H   H1109     1.0  0.30068  0.31010  0.87668  1.0000
  H   H1110     1.0  0.28772  0.28795  0.88121  1.0000
  H   H1111     1.0  0.29500  0.27286  0.92843  1.0000
  H   H1112     1.0  0.30773  0.29521  0.92396  1.0000
  C   C1117     1.0  0.25888  0.27510  0.82307  1.0000
  H   H1113     1.0  0.34636  0.98426  0.69634  1.0000
  C   C1118     1.0  0.19864  0.41420  0.96821  1.0000
  S   S413      1.0  0.38859  0.00939  0.74724  1.0000
  H   H1114     1.0  0.30604  0.02952  0.56462  1.0000
  S   S414      1.0  0.32147  0.30624  0.97335  1.0000
  H   H1115     1.0  0.38358  0.40951  0.88135  1.0000
  H   H1116     1.0  0.35799  0.14023  0.77367  1.0000
  C   C1119     1.0  0.20231  0.17626  0.96887  1.0000
  H   H1117     1.0  0.36801  0.99368  0.48087  1.0000
  C   C1120     1.0  0.27715  0.37877  0.92378  1.0000
  C   C1121     1.0  0.28117  0.37203  0.91068  1.0000
  C   C1122     1.0  0.27004  0.37429  0.90170  1.0000
  C   C1123     1.0  0.25467  0.38276  0.90615  1.0000
  C   C1124     1.0  0.25062  0.38922  0.91943  1.0000
  C   C1125     1.0  0.26192  0.38754  0.92802  1.0000
  H   H1118     1.0  0.29295  0.36535  0.90726  1.0000
  H   H1119     1.0  0.27337  0.36952  0.89128  1.0000
  H   H1120     1.0  0.23879  0.39553  0.92313  1.0000
  H   H1121     1.0  0.25880  0.39294  0.93800  1.0000
  C   C1126     1.0  0.33676  0.09205  0.77899  1.0000
  C   C1127     1.0  0.32379  0.09589  0.79103  1.0000
  C   C1128     1.0  0.31555  0.11154  0.79050  1.0000
  C   C1129     1.0  0.32048  0.12347  0.77807  1.0000
  C   C1130     1.0  0.33317  0.11961  0.76582  1.0000
  C   C1131     1.0  0.34122  0.10393  0.76621  1.0000
  H   H1122     1.0  0.32030  0.08676  0.80097  1.0000
  H   H1123     1.0  0.30577  0.11444  0.80001  1.0000
  H   H1124     1.0  0.33701  0.12881  0.75617  1.0000
  H   H1125     1.0  0.35124  0.10116  0.75695  1.0000
  N   N89       1.0  0.32723  0.98572  0.68636  1.0000
  H   H1126     1.0  0.33711  0.03964  0.48622  1.0000
  H   H1127     1.0  0.38618  0.09181  0.76127  1.0000
  N   N90       1.0  0.38256  0.00566  0.70131  1.0000
  S   S415      1.0  0.20786  0.15481  0.89782  1.0000
  C   C1132     1.0  0.22918  0.09365  0.67333  1.0000
  C   C1133     1.0  0.23773  0.10534  0.66975  1.0000
  C   C1134     1.0  0.25352  0.10273  0.66158  1.0000
  C   C1135     1.0  0.26091  0.08833  0.65724  1.0000
  C   C1136     1.0  0.25242  0.07656  0.66102  1.0000
  C   C1137     1.0  0.23653  0.07930  0.66887  1.0000
  H   H1128     1.0  0.23212  0.11648  0.67304  1.0000
  H   H1129     1.0  0.26005  0.11188  0.65864  1.0000
  H   H1130     1.0  0.25800  0.06546  0.65761  1.0000
  H   H1131     1.0  0.22994  0.07025  0.67153  1.0000
  C   C1138     1.0  0.33041  0.04165  0.69443  1.0000
  C   C1139     1.0  0.33449  0.05470  0.68308  1.0000
  C   C1140     1.0  0.34070  0.06534  0.68697  1.0000
  C   C1141     1.0  0.34322  0.06276  0.70212  1.0000
  C   C1142     1.0  0.33909  0.04974  0.71350  1.0000
  C   C1143     1.0  0.33257  0.03929  0.70969  1.0000
  H   H1132     1.0  0.33310  0.05652  0.67124  1.0000
  H   H1133     1.0  0.34390  0.07538  0.67811  1.0000
  H   H1134     1.0  0.34080  0.04772  0.72527  1.0000
  H   H1135     1.0  0.32937  0.02925  0.71854  1.0000
  Fe  Fe210     1.0  0.19506  0.43234  0.90265  1.0000
  H   H1136     1.0  0.34534  0.99835  0.67795  1.0000
  H   H1137     1.0  0.19801  0.36590  0.90306  1.0000
  C   C1144     1.0  0.37551  0.00056  0.74330  1.0000
  C   C1145     1.0  0.35980  0.00821  0.74365  1.0000
  C   C1146     1.0  0.34967  0.00123  0.73994  1.0000
  H   H1138     1.0  0.38037  0.38597  0.96485  1.0000
  C   C1147     1.0  0.23024  0.17232  0.95794  1.0000
  H   H1139     1.0  0.35538  0.01946  0.74685  1.0000
  H   H1140     1.0  0.33751  0.00720  0.74024  1.0000
  H   H1141     1.0  0.36460  0.07973  0.56592  1.0000
  H   H1142     1.0  0.22322  0.02733  0.88276  1.0000
  C   C1148     1.0  0.29541  0.99897  0.62842  1.0000
  N   N91       1.0  0.19380  0.35259  0.87341  1.0000
  C   C1149     1.0  0.32214  0.01997  0.59200  1.0000
  C   C1150     1.0  0.27179  0.33461  0.91408  1.0000
  H   H1143     1.0  0.20163  0.13873  0.85612  1.0000
  H   H1144     1.0  0.30018  0.00936  0.62543  1.0000
  H   H1145     1.0  0.21601  0.46424  0.96434  1.0000
  C   C1151     1.0  0.28496  0.99556  0.64283  1.0000
  C   C1152     1.0  0.31499  0.03441  0.56682  1.0000
  C   C1153     1.0  0.33481  0.05289  0.58719  1.0000
  C   C1154     1.0  0.34610  0.04051  0.59338  1.0000
  C   C1155     1.0  0.35890  0.03325  0.58321  1.0000
  C   C1156     1.0  0.36036  0.03812  0.56693  1.0000
  C   C1157     1.0  0.33176  0.00806  0.60085  1.0000
  H   H1146     1.0  0.36773  0.02378  0.58796  1.0000
  H   H1147     1.0  0.37058  0.03280  0.55934  1.0000
  Fe  Fe211     1.0  0.36485  0.03805  0.52607  1.0000
  C   C1158     1.0  0.37470  0.35853  0.92087  1.0000
  C   C1159     1.0  0.36392  0.37294  0.92032  1.0000
  H   H1148     1.0  0.38025  0.07726  0.77807  1.0000
  H   H1149     1.0  0.35202  0.37379  0.91948  1.0000
  H   H1150     1.0  0.26911  0.26648  0.82721  1.0000
  H   H1151     1.0  0.33962  0.01345  0.55585  1.0000
  H   H1152     1.0  0.36286  0.08452  0.80143  1.0000
  C   C1160     1.0  0.21576  0.47404  0.91471  1.0000
  H   H1153     1.0  0.33438  0.10382  0.71858  1.0000
  C   C1161     1.0  0.19841  0.12132  0.81529  1.0000
  C   C1162     1.0  0.22084  0.09408  0.76839  1.0000
  C   C1163     1.0  0.34711  0.99991  0.57701  1.0000
  N   N92       1.0  0.32518  0.02197  0.57600  1.0000
  H   H1154     1.0  0.22567  0.10400  0.76859  1.0000
  H   H1155     1.0  0.31762  0.12918  0.72410  1.0000
  C   C1164     1.0  0.37083  0.11628  0.77364  1.0000
  C   C1165     1.0  0.20477  0.09422  0.88146  1.0000
  H   H1156     1.0  0.28354  0.98792  0.68843  1.0000
  C   C1166     1.0  0.38041  0.06813  0.54796  1.0000
  C   C1167     1.0  0.36694  0.01599  0.70157  1.0000
  H   H1157     1.0  0.19278  0.12230  0.86045  1.0000
  C   C1168     1.0  0.35523  0.98664  0.73573  1.0000
  C   C1169     1.0  0.37455  0.07022  0.56334  1.0000
  H   H1158     1.0  0.24457  0.16907  0.97451  1.0000
  H   H1159     1.0  0.33952  0.13292  0.79900  1.0000
  H   H1160     1.0  0.21164  0.24720  0.83141  1.0000
  C   C1170     1.0  0.35927  0.12806  0.77999  1.0000
  H   H1161     1.0  0.20472  0.35910  0.84920  1.0000
  H   H1162     1.0  0.25533  0.28436  0.83003  1.0000
  S   S416      1.0  0.21349  0.41971  0.91662  1.0000
  N   N93       1.0  0.24762  0.15592  0.87508  1.0000
  C   C1171     1.0  0.24236  0.15560  0.86244  1.0000
  C   C1172     1.0  0.24991  0.14269  0.88668  1.0000
  C   C1173     1.0  0.23984  0.14167  0.86084  1.0000
  C   C1174     1.0  0.24733  0.12857  0.88554  1.0000
  C   C1175     1.0  0.24249  0.12805  0.87240  1.0000
  C   C1176     1.0  0.25032  0.17071  0.87623  1.0000
  H   H1163     1.0  0.24008  0.16616  0.85350  1.0000
  H   H1164     1.0  0.25364  0.14300  0.89696  1.0000
  H   H1165     1.0  0.25690  0.35200  0.89153  1.0000
  H   H1166     1.0  0.24887  0.11813  0.89483  1.0000
  H   H1167     1.0  0.26388  0.34411  0.91989  1.0000
  H   H1168     1.0  0.23889  0.17901  0.87899  1.0000
  H   H1169     1.0  0.25678  0.16897  0.88559  1.0000
  H   H1170     1.0  0.25746  0.17610  0.86495  1.0000
  H   H1171     1.0  0.37502  0.07597  0.53852  1.0000
  S   S417      1.0  0.35133  0.02683  0.51657  1.0000
  H   H1172     1.0  0.35679  0.99211  0.57096  1.0000
  H   H1173     1.0  0.21400  0.11943  0.85563  1.0000
  C   C1177     1.0  0.19940  0.10414  0.89214  1.0000
  H   H1174     1.0  0.28580  0.13705  0.74464  1.0000
  C   C1178     1.0  0.36136  0.36914  0.88241  1.0000
  C   C1179     1.0  0.25473  0.30838  0.90102  1.0000
  H   H1175     1.0  0.36071  0.39778  0.91861  1.0000
  H   H1176     1.0  0.34080  0.00118  0.48900  1.0000
  C   C1180     1.0  0.33644  0.05792  0.57076  1.0000
  H   H1177     1.0  0.21485  0.42162  0.94676  1.0000
  H   H1178     1.0  0.30894  0.04414  0.57305  1.0000
  C   C1181     1.0  0.34896  0.12397  0.79429  1.0000
  H   H1179     1.0  0.19772  0.06439  0.90707  1.0000
  H   H1180     1.0  0.31332  0.08023  0.76446  1.0000
  H   H1181     1.0  0.34224  0.10490  0.81309  1.0000
  C   C1182     1.0  0.36885  0.38649  0.91985  1.0000
  C   C1183     1.0  0.21168  0.37011  0.86360  1.0000
  H   H1182     1.0  0.19799  0.02231  0.88204  1.0000
  C   C1184     1.0  0.22125  0.25294  0.82953  1.0000
  S   S418      1.0  0.19658  0.05746  0.85258  1.0000
  H   H1183     1.0  0.22318  0.04861  0.89525  1.0000
  H   H1184     1.0  0.26769  0.30540  0.91854  1.0000
  H   H1185     1.0  0.29510  0.37416  0.96743  1.0000
  H   H1186     1.0  0.36650  0.02409  0.68992  1.0000
  C   C1185     1.0  0.21091  0.42154  0.95914  1.0000
  H   H1187     1.0  0.37526  0.33645  0.95229  1.0000
  C   C1186     1.0  0.20473  0.13656  0.97375  1.0000
  C   C1187     1.0  0.24905  0.25215  0.82406  1.0000
  N   N94       1.0  0.20316  0.12969  0.83619  1.0000
  C   C1188     1.0  0.31591  0.99113  0.69832  1.0000
  S   S419      1.0  0.20848  0.13569  0.69829  1.0000
  H   H1188     1.0  0.36345  0.35616  0.88674  1.0000
  H   H1189     1.0  0.31248  0.02781  0.59800  1.0000
  S   S420      1.0  0.38524  0.00352  0.50535  1.0000
  C   C1189     1.0  0.20035  0.98848  0.81794  1.0000
  H   H1190     1.0  0.29659  0.10574  0.76951  1.0000
  N   N95       1.0  0.28016  0.08182  0.69100  1.0000
  C   C1190     1.0  0.26794  0.07470  0.69345  1.0000
  C   C1191     1.0  0.27747  0.09618  0.69455  1.0000
  C   C1192     1.0  0.25263  0.08171  0.70013  1.0000
  C   C1193     1.0  0.26229  0.10353  0.70123  1.0000
  C   C1194     1.0  0.24984  0.09620  0.70403  1.0000
  C   C1195     1.0  0.29613  0.07445  0.68385  1.0000
  H   H1191     1.0  0.26992  0.06371  0.68993  1.0000
  H   H1192     1.0  0.28707  0.10205  0.69213  1.0000
  H   H1193     1.0  0.24289  0.07621  0.70174  1.0000
  H   H1194     1.0  0.26008  0.11489  0.70411  1.0000
  H   H1195     1.0  0.23800  0.10194  0.70891  1.0000
  H   H1196     1.0  0.30502  0.07680  0.68872  1.0000
  H   H1197     1.0  0.29777  0.06147  0.68619  1.0000
  H   H1198     1.0  0.29851  0.07909  0.67092  1.0000
  C   C1196     1.0  0.19206  0.35429  0.88837  1.0000
  S   S421      1.0  0.21307  0.11144  0.89701  1.0000
  C   C1197     1.0  0.37957  0.37377  0.96968  1.0000
  H   H1199     1.0  0.20095  0.12159  0.76273  1.0000
  H   H1200     1.0  0.32779  0.06758  0.56595  1.0000
  C   C1198     1.0  0.31411  0.09091  0.75544  1.0000
  C   C1199     1.0  0.19408  0.08863  0.87693  1.0000
  S   S422      1.0  0.35103  0.05649  0.54005  1.0000
  C   C1200     1.0  0.24649  0.38028  0.97152  1.0000
  H   H1201     1.0  0.29195  0.13364  0.76282  1.0000
  C   C1201     1.0  0.23680  0.24464  0.82624  1.0000
  C   C1202     1.0  0.21824  0.42871  0.96615  1.0000
  H   H1202     1.0  0.20435  0.21473  0.89933  1.0000
  H   H1203     1.0  0.26733  0.36519  0.96134  1.0000
  H   H1204     1.0  0.30286  0.14352  0.74530  1.0000
  C   C1203     1.0  0.32605  0.10420  0.72976  1.0000
  H   H1205     1.0  0.37646  0.06105  0.58752  1.0000
  H   H1206     1.0  0.33210  0.07924  0.73870  1.0000
  C   C1204     1.0  0.39006  0.35753  0.92212  1.0000
  H   H1207     1.0  0.22785  0.43421  0.95910  1.0000
  H   H1208     1.0  0.37868  0.11951  0.76241  1.0000
  H   H1209     1.0  0.35186  0.98876  0.60004  1.0000
  C   C1205     1.0  0.19927  0.28744  0.86161  1.0000
  C   C1206     1.0  0.26229  0.31376  0.90938  1.0000
  H   H1210     1.0  0.32496  0.05865  0.59502  1.0000
  Fe  Fe212     1.0  0.21591  0.15464  0.91909  1.0000
  C   C1207     1.0  0.21220  0.03425  0.88804  1.0000
  C   C1208     1.0  0.29617  0.13400  0.75004  1.0000
  C   C1209     1.0  0.38584  0.99175  0.69671  1.0000
  H   H1211     1.0  0.24230  0.31485  0.88224  1.0000
  H   H1212     1.0  0.21428  0.45177  0.91180  1.0000
  S   S423      1.0  0.38367  0.04074  0.50376  1.0000
  H   H1213     1.0  0.19832  0.08112  0.86858  1.0000
  H   H1214     1.0  0.29022  0.35517  0.97293  1.0000
  C   C1210     1.0  0.23068  0.27581  0.82810  1.0000
  H   H1215     1.0  0.20608  0.27527  0.83289  1.0000
  C   C1211     1.0  0.21495  0.17493  0.95595  1.0000
  H   H1216     1.0  0.35762  0.00914  0.70466  1.0000
  H   H1217     1.0  0.19273  0.32982  0.87243  1.0000
  Fe  Fe213     1.0  0.19437  0.40851  0.93345  1.0000
  H   H1218     1.0  0.35904  0.37210  0.87041  1.0000
  H   H1219     1.0  0.30721  0.99184  0.60648  1.0000
  H   H1220     1.0  0.22816  0.28802  0.82885  1.0000
  C   C1212     1.0  0.21218  0.04615  0.89506  1.0000
  C   C1213     1.0  0.19832  0.47080  0.90028  1.0000
  C   C1214     1.0  0.38401  0.08867  0.77433  1.0000
  C   C1215     1.0  0.19790  0.05498  0.90173  1.0000
  H   H1221     1.0  0.25439  0.29603  0.90370  1.0000
  N   N96       1.0  0.37192  0.10084  0.78125  1.0000
  C   C1216     1.0  0.30005  0.99185  0.69936  1.0000
  H   H1222     1.0  0.21300  0.17567  0.94449  1.0000
  N   N97       1.0  0.20370  0.09731  0.77389  1.0000
  H   H1223     1.0  0.31911  0.99529  0.70691  1.0000
  N   N98       1.0  0.37220  0.35072  0.96837  1.0000
  C   C1217     1.0  0.20289  0.12742  0.85290  1.0000
  S   S424      1.0  0.38802  0.04833  0.75918  1.0000
  H   H1224     1.0  0.23938  0.23241  0.82549  1.0000
  C   C1218     1.0  0.26230  0.37247  0.96995  1.0000
  H   H1225     1.0  0.20995  0.13659  0.96151  1.0000
  C   C1219     1.0  0.38440  0.38559  0.92048  1.0000
  H   H1226     1.0  0.23595  0.14141  0.85068  1.0000
  C   C1220     1.0  0.36566  0.34274  0.96045  1.0000
  H   H1227     1.0  0.35722  0.35119  0.95360  1.0000
  S   S425      1.0  0.37847  0.01539  0.53788  1.0000
  C   C1221     1.0  0.24868  0.33474  0.88563  1.0000
  H   H1228     1.0  0.22400  0.09233  0.75616  1.0000
  H   H1229     1.0  0.27676  0.32500  0.92318  1.0000
  Fe  Fe214     1.0  0.20113  0.11363  0.69941  1.0000
  H   H1230     1.0  0.22474  0.46885  0.92150  1.0000
  H   H1231     1.0  0.24012  0.17094  0.94802  1.0000
  C   C1222     1.0  0.20500  0.13323  0.80430  1.0000
  H   H1232     1.0  0.19440  0.11308  0.81143  1.0000
  C   C1223     1.0  0.37307  0.36613  0.96237  1.0000
  C   C1224     1.0  0.25637  0.33970  0.89422  1.0000
  Fe  Fe215     1.0  0.37129  0.02709  0.49543  1.0000
  C   C1225     1.0  0.28806  0.36638  0.97672  1.0000
  N   N99       1.0  0.26322  0.32920  0.90578  1.0000
  C   C1226     1.0  0.38119  0.05972  0.57546  1.0000
  Fe  Fe216     1.0  0.19670  0.07071  0.82773  1.0000
  H   H1233     1.0  0.24057  0.11715  0.87127  1.0000
  C   C1227     1.0  0.21814  0.26866  0.83037  1.0000
  N   N100      1.0  0.32117  0.25470  0.87967  1.0000
  C   C1228     1.0  0.31545  0.24341  0.89174  1.0000
  C   C1229     1.0  0.32075  0.25532  0.86453  1.0000
  C   C1230     1.0  0.30878  0.23259  0.88884  1.0000
  C   C1231     1.0  0.31427  0.24458  0.86120  1.0000
  C   C1232     1.0  0.30826  0.23316  0.87345  1.0000
  C   C1233     1.0  0.32851  0.26571  0.88281  1.0000
  H   H1234     1.0  0.31551  0.24305  0.90379  1.0000
  H   H1235     1.0  0.32534  0.26421  0.85495  1.0000
  H   H1236     1.0  0.30374  0.22403  0.89852  1.0000
  H   H1237     1.0  0.31369  0.24518  0.84923  1.0000
  S   S426      1.0  0.35340  0.98573  0.54210  1.0000
  H   H1238     1.0  0.32550  0.27763  0.87535  1.0000
  H   H1239     1.0  0.32428  0.26703  0.89523  1.0000
  H   H1240     1.0  0.34149  0.26151  0.88048  1.0000
  C   C1234     1.0  0.24798  0.31894  0.88899  1.0000
  H   H1241     1.0  0.22633  0.13705  0.97908  1.0000
  C   C1235     1.0  0.34911  0.05035  0.56060  1.0000
  C   C1236     1.0  0.30476  0.10539  0.75825  1.0000
  N   N101      1.0  0.30619  0.11893  0.74712  1.0000
  H   H1242     1.0  0.26111  0.24557  0.82164  1.0000
  C   C1237     1.0  0.20002  0.36402  0.89129  1.0000
  C   C1238     1.0  0.35046  0.10825  0.80217  1.0000
  H   H1243     1.0  0.21578  0.37991  0.88090  1.0000
  Fe  Fe217     1.0  0.20388  0.13074  0.91059  1.0000
  H   H1244     1.0  0.21595  0.15253  0.80095  1.0000
  H   H1245     1.0  0.19512  0.27674  0.86725  1.0000
  N   N102      1.0  0.27136  0.37417  0.97895  1.0000
  C   C1239     1.0  0.19590  0.31358  0.84508  1.0000
  H   H1246     1.0  0.32204  0.03968  0.55536  1.0000
  H   H1247     1.0  0.37677  0.98807  0.69383  1.0000
  C   C1240     1.0  0.20967  0.14135  0.82548  1.0000
  C   C1241     1.0  0.19787  0.03150  0.88762  1.0000
  C   C1242     1.0  0.19632  0.08529  0.78219  1.0000
  H   H1248     1.0  0.22661  0.08347  0.77605  1.0000
  S   S427      1.0  0.19217  0.16547  0.93168  1.0000
  C   C1243     1.0  0.21065  0.14334  0.80941  1.0000
  H   H1249     1.0  0.29110  0.99650  0.70865  1.0000
  H   H1250     1.0  0.35912  0.33412  0.96909  1.0000
  C   C1244     1.0  0.22505  0.47148  0.95950  1.0000
  C   C1245     1.0  0.36214  0.09677  0.79549  1.0000
  H   H1251     1.0  0.36139  0.39883  0.88078  1.0000
  H   H1252     1.0  0.20310  0.07344  0.78522  1.0000
  N   N103      1.0  0.37478  0.37531  0.88220  1.0000
  C   C1246     1.0  0.37282  0.39104  0.88116  1.0000
  C   C1247     1.0  0.38859  0.45743  0.96244  1.0000
  H   H1253     1.0  0.23672  0.46361  0.96042  1.0000
  C   C1248     1.0  0.29583  0.98696  0.68810  1.0000
  H   H1254     1.0  0.20605  0.13448  0.79181  1.0000
  C   C1249     1.0  0.29936  0.98910  0.61775  1.0000
  C   C1250     1.0  0.23273  0.17132  0.97274  1.0000
  H   H1255     1.0  0.35067  0.37412  0.89057  1.0000
  C   C1251     1.0  0.38534  0.39719  0.88131  1.0000
  C   C1252     1.0  0.38939  0.46516  0.97349  1.0000
  C   C1253     1.0  0.19770  0.11962  0.83129  1.0000
  H   H1256     1.0  0.38451  0.44652  0.96629  1.0000
  S   S428      1.0  0.39088  0.40302  0.91728  1.0000
  H   H1257     1.0  0.39065  0.35292  0.88408  1.0000
  H   H1258     1.0  0.29179  0.87201  0.23060  1.0000
  H   H1259     1.0  0.22650  0.83468  0.23538  1.0000
  Fe  Fe218     1.0  0.29602  0.62815  0.06808  1.0000
  S   S429      1.0  0.28529  0.65064  0.05354  1.0000
  S   S430      1.0  0.27848  0.61294  0.08092  1.0000
  Fe  Fe219     1.0  0.32762  0.63698  0.06021  1.0000
  S   S431      1.0  0.31893  0.66041  0.04512  1.0000
  S   S432      1.0  0.35358  0.63303  0.05956  1.0000
  Fe  Fe220     1.0  0.29724  0.66216  0.06437  1.0000
  S   S433      1.0  0.28163  0.68469  0.07081  1.0000
  Fe  Fe221     1.0  0.30775  0.64690  0.03569  1.0000
  C   C1254     1.0  0.31016  0.98055  0.38951  1.0000
  S   S434      1.0  0.30657  0.63981  0.08041  1.0000
  S   S435      1.0  0.31788  0.62332  0.04929  1.0000
  Fe  Fe222     1.0  0.21483  0.55468  0.04995  1.0000
  S   S436      1.0  0.21589  0.52879  0.06059  1.0000
  Fe  Fe223     1.0  0.23458  0.57951  0.04046  1.0000
  S   S437      1.0  0.21483  0.59907  0.03352  1.0000
  S   S438      1.0  0.25861  0.58480  0.03464  1.0000
  S   S439      1.0  0.37075  0.93693  0.47232  1.0000
  Fe  Fe224     1.0  0.21029  0.58213  0.02231  1.0000
  H   H1260     1.0  0.38638  0.86941  0.42169  1.0000
  S   S440      1.0  0.22016  0.56931  0.06351  1.0000
  S   S441      1.0  0.23119  0.56330  0.02757  1.0000
  Fe  Fe225     1.0  0.31036  0.89873  0.41388  1.0000
  S   S442      1.0  0.28885  0.91099  0.40390  1.0000
  S   S443      1.0  0.31062  0.89643  0.43941  1.0000
  Fe  Fe226     1.0  0.32950  0.89047  0.38285  1.0000
  S   S444      1.0  0.31015  0.90246  0.36990  1.0000
  S   S445      1.0  0.35318  0.87686  0.37309  1.0000
  Fe  Fe227     1.0  0.30609  0.92133  0.38319  1.0000
  S   S446      1.0  0.30261  0.94720  0.37223  1.0000
  Fe  Fe228     1.0  0.29458  0.89104  0.39149  1.0000
  S   S447      1.0  0.27974  0.87495  0.39061  1.0000
  S   S448      1.0  0.32717  0.91033  0.39390  1.0000
  S   S449      1.0  0.31439  0.87781  0.40363  1.0000
  H   H1261     1.0  0.21630  0.85133  0.06374  1.0000
  Fe  Fe229     1.0  0.20583  0.93085  0.12239  1.0000
  H   H1262     1.0  0.32076  0.93667  0.34330  1.0000
  S   S450      1.0  0.22055  0.94847  0.11853  1.0000
  Fe  Fe230     1.0  0.20231  0.89761  0.13900  1.0000
  C   C1255     1.0  0.37449  0.86757  0.42457  1.0000
  S   S451      1.0  0.21166  0.87419  0.15335  1.0000
  H   H1263     1.0  0.34084  0.61777  0.98695  1.0000
  H   H1264     1.0  0.19381  0.89112  0.06154  1.0000
  C   C1256     1.0  0.21651  0.87004  0.09874  1.0000
  H   H1265     1.0  0.34688  0.97619  0.34031  1.0000
  S   S452      1.0  0.21515  0.90772  0.11504  1.0000
  C   C1257     1.0  0.26533  0.64825  0.02527  1.0000
  Fe  Fe231     1.0  0.26669  0.82497  0.23341  1.0000
  S   S453      1.0  0.29111  0.81783  0.21951  1.0000
  S   S454      1.0  0.25696  0.80882  0.25541  1.0000
  Fe  Fe232     1.0  0.26036  0.85642  0.21147  1.0000
  S   S455      1.0  0.28445  0.85235  0.19594  1.0000
  S   S456      1.0  0.24245  0.87873  0.20589  1.0000
  Fe  Fe233     1.0  0.28047  0.82832  0.19829  1.0000
  S   S457      1.0  0.28607  0.81965  0.17580  1.0000
  Fe  Fe234     1.0  0.29295  0.84234  0.21844  1.0000
  S   S458      1.0  0.25584  0.83312  0.21235  1.0000
  S   S459      1.0  0.26914  0.84871  0.23385  1.0000
  Fe  Fe235     1.0  0.22428  0.87315  0.33828  1.0000
  S   S460      1.0  0.22463  0.84739  0.34811  1.0000
  S   S461      1.0  0.23062  0.89122  0.34706  1.0000
  Fe  Fe236     1.0  0.21494  0.87299  0.30856  1.0000
  S   S462      1.0  0.21526  0.84735  0.31532  1.0000
  S   S463      1.0  0.20798  0.88704  0.28607  1.0000
  Fe  Fe237     1.0  0.20249  0.85187  0.33907  1.0000
  C   C1258     1.0  0.35216  0.86598  0.41598  1.0000
  Fe  Fe238     1.0  0.23708  0.84510  0.32343  1.0000
  S   S464      1.0  0.25824  0.82633  0.31766  1.0000
  S   S465      1.0  0.20087  0.87800  0.33178  1.0000
  S   S466      1.0  0.23815  0.87035  0.31415  1.0000
  H   H1266     1.0  0.20177  0.76738  0.17726  1.0000
  H   H1267     1.0  0.30609  0.97899  0.36766  1.0000
  C   C1259     1.0  0.25160  0.86656  0.14171  1.0000
  H   H1268     1.0  0.34496  0.86035  0.45565  1.0000
  N   N104      1.0  0.25895  0.62955  0.01508  1.0000
  S   S467      1.0  0.23143  0.81810  0.03951  1.0000
  H   H1269     1.0  0.33755  0.63241  0.00651  1.0000
  C   C1260     1.0  0.34003  0.95673  0.23517  1.0000
  H   H1270     1.0  0.29101  0.85868  0.26921  1.0000
  N   N105      1.0  0.21261  0.85005  0.08839  1.0000
  C   C1261     1.0  0.32111  0.95266  0.25975  1.0000
  C   C1262     1.0  0.30054  0.92763  0.46763  1.0000
  C   C1263     1.0  0.36512  0.97182  0.26932  1.0000
  C   C1264     1.0  0.19647  0.71537  0.13821  1.0000
  H   H1271     1.0  0.34664  0.86647  0.40662  1.0000
  H   H1272     1.0  0.37369  0.87070  0.40017  1.0000
  C   C1265     1.0  0.24810  0.62613  0.02869  1.0000
  S   S468      1.0  0.20868  0.68377  0.14635  1.0000
  H   H1273     1.0  0.37453  0.97849  0.46982  1.0000
  C   C1266     1.0  0.20115  0.56219  0.99949  1.0000
  Fe  Fe239     1.0  0.27103  0.73885  0.12534  1.0000
  S   S469      1.0  0.25040  0.74099  0.14563  1.0000
  S   S470      1.0  0.28766  0.71552  0.12295  1.0000
  Fe  Fe240     1.0  0.26363  0.77361  0.11119  1.0000
  S   S471      1.0  0.24208  0.77880  0.12990  1.0000
  S   S472      1.0  0.27259  0.79177  0.09086  1.0000
  Fe  Fe241     1.0  0.25702  0.76282  0.14649  1.0000
  S   S473      1.0  0.25369  0.76803  0.17036  1.0000
  Fe  Fe242     1.0  0.23726  0.75675  0.12749  1.0000
  S   S474      1.0  0.21297  0.75491  0.12781  1.0000
  S   S475      1.0  0.27912  0.75917  0.12789  1.0000
  S   S476      1.0  0.25737  0.75313  0.10705  1.0000
  C   C1267     1.0  0.20997  0.70352  0.13971  1.0000
  C   C1268     1.0  0.22456  0.70750  0.13656  1.0000
  C   C1269     1.0  0.22562  0.72331  0.13216  1.0000
  C   C1270     1.0  0.21204  0.73516  0.13130  1.0000
  C   C1271     1.0  0.21069  0.73691  0.16881  1.0000
  H   H1274     1.0  0.23950  0.58428  0.98449  1.0000
  H   H1275     1.0  0.23506  0.69836  0.13762  1.0000
  H   H1276     1.0  0.23695  0.72626  0.12967  1.0000
  H   H1277     1.0  0.31638  0.95462  0.27159  1.0000
  C   C1272     1.0  0.22717  0.71352  0.18097  1.0000
  C   C1273     1.0  0.24246  0.81052  0.05412  1.0000
  C   C1274     1.0  0.23673  0.80129  0.06868  1.0000
  C   C1275     1.0  0.24593  0.79542  0.08010  1.0000
  C   C1276     1.0  0.26075  0.79895  0.07698  1.0000
  C   C1277     1.0  0.26639  0.80820  0.06245  1.0000
  C   C1278     1.0  0.25733  0.81387  0.05101  1.0000
  H   H1278     1.0  0.22538  0.79843  0.07105  1.0000
  H   H1279     1.0  0.24154  0.78822  0.09132  1.0000
  H   H1280     1.0  0.27785  0.81092  0.06000  1.0000
  H   H1281     1.0  0.26181  0.82097  0.03977  1.0000
  H   H1282     1.0  0.22402  0.78814  0.00353  1.0000
  C   C1279     1.0  0.33634  0.94161  0.44170  1.0000
  H   H1283     1.0  0.20732  0.57240  0.11028  1.0000
  C   C1280     1.0  0.25446  0.64464  0.03930  1.0000
  H   H1284     1.0  0.38044  0.85107  0.45628  1.0000
  C   C1281     1.0  0.36897  0.61984  0.02349  1.0000
  C   C1282     1.0  0.30243  0.72810  0.07863  1.0000
  H   H1285     1.0  0.29119  0.92293  0.46654  1.0000
  H   H1286     1.0  0.29972  0.76609  0.09139  1.0000
  C   C1283     1.0  0.25246  0.83989  0.15785  1.0000
  H   H1287     1.0  0.29437  0.94294  0.27232  1.0000
  H   H1288     1.0  0.33802  0.96718  0.25449  1.0000
  H   H1289     1.0  0.19424  0.77478  0.10412  1.0000
  C   C1284     1.0  0.36895  0.60235  0.00773  1.0000
  C   C1285     1.0  0.30733  0.64221  0.98490  1.0000
  Fe  Fe243     1.0  0.19991  0.58763  0.05553  1.0000
  C   C1286     1.0  0.34928  0.96639  0.33469  1.0000
  H   H1290     1.0  0.23742  0.63047  0.05197  1.0000
  C   C1287     1.0  0.27710  0.80514  0.17461  1.0000
  C   C1288     1.0  0.26679  0.79820  0.18757  1.0000
  C   C1289     1.0  0.25969  0.78684  0.18613  1.0000
  C   C1290     1.0  0.26271  0.78244  0.17172  1.0000
  C   C1291     1.0  0.27286  0.78953  0.15871  1.0000
  C   C1292     1.0  0.28008  0.80077  0.16019  1.0000
  H   H1291     1.0  0.26444  0.80145  0.19874  1.0000
  H   H1292     1.0  0.25189  0.78138  0.19625  1.0000
  H   H1293     1.0  0.27530  0.78621  0.14756  1.0000
  H   H1294     1.0  0.28806  0.80607  0.15012  1.0000
  C   C1293     1.0  0.25723  0.81395  0.27258  1.0000
  C   C1294     1.0  0.26263  0.80226  0.28479  1.0000
  C   C1295     1.0  0.26328  0.80617  0.29847  1.0000
  C   C1296     1.0  0.25793  0.82170  0.30024  1.0000
  C   C1297     1.0  0.25225  0.83341  0.28814  1.0000
  C   C1298     1.0  0.25223  0.82959  0.27417  1.0000
  H   H1295     1.0  0.26655  0.79017  0.28358  1.0000
  H   H1296     1.0  0.26762  0.79709  0.30782  1.0000
  H   H1297     1.0  0.24813  0.84545  0.28946  1.0000
  H   H1298     1.0  0.24809  0.83868  0.26475  1.0000
  H   H1299     1.0  0.19838  0.72837  0.08880  1.0000
  H   H1300     1.0  0.22634  0.83707  0.00954  1.0000
  H   H1301     1.0  0.30677  0.62039  0.02211  1.0000
  H   H1302     1.0  0.35782  0.93138  0.31505  1.0000
  C   C1299     1.0  0.20184  0.83923  0.98628  1.0000
  C   C1300     1.0  0.21125  0.96234  0.13026  1.0000
  H   H1303     1.0  0.19967  0.56037  0.01208  1.0000
  H   H1304     1.0  0.38667  0.59881  0.02096  1.0000
  H   H1305     1.0  0.20964  0.48959  0.00542  1.0000
  H   H1306     1.0  0.22862  0.80879  0.01211  1.0000
  S   S477      1.0  0.20743  0.59064  0.99733  1.0000
  C   C1301     1.0  0.36966  0.58721  0.07946  1.0000
  H   H1307     1.0  0.24155  0.61724  0.03029  1.0000
  H   H1308     1.0  0.27235  0.65672  0.02379  1.0000
  C   C1302     1.0  0.22249  0.83949  0.24584  1.0000
  H   H1309     1.0  0.38332  0.85864  0.28761  1.0000
  C   C1303     1.0  0.27410  0.57858  0.99495  1.0000
  C   C1304     1.0  0.21010  0.84430  0.99413  1.0000
  C   C1305     1.0  0.30250  0.87199  0.23369  1.0000
  H   H1310     1.0  0.24569  0.86379  0.13426  1.0000
  H   H1311     1.0  0.21544  0.53031  0.09340  1.0000
  C   C1306     1.0  0.19789  0.55126  0.99319  1.0000
  C   C1307     1.0  0.21898  0.87601  0.16859  1.0000
  C   C1308     1.0  0.22162  0.86306  0.18092  1.0000
  C   C1309     1.0  0.22842  0.86400  0.19265  1.0000
  C   C1310     1.0  0.23270  0.87786  0.19204  1.0000
  C   C1311     1.0  0.22953  0.89101  0.18003  1.0000
  C   C1312     1.0  0.22282  0.89004  0.16822  1.0000
  H   H1312     1.0  0.21853  0.85223  0.18133  1.0000
  H   H1313     1.0  0.23021  0.85402  0.20221  1.0000
  H   H1314     1.0  0.23288  0.90175  0.17949  1.0000
  H   H1315     1.0  0.22130  0.89992  0.15848  1.0000
  H   H1316     1.0  0.19315  0.92069  0.28939  1.0000
  H   H1317     1.0  0.20669  0.86907  0.12345  1.0000
  C   C1313     1.0  0.21498  0.84269  0.07517  1.0000
  H   H1318     1.0  0.33479  0.94314  0.47100  1.0000
  C   C1314     1.0  0.34653  0.94967  0.28542  1.0000
  C   C1315     1.0  0.31218  0.72796  0.08825  1.0000
  H   H1319     1.0  0.31138  0.93037  0.44315  1.0000
  C   C1316     1.0  0.26613  0.87977  0.37843  1.0000
  C   C1317     1.0  0.26195  0.89499  0.36965  1.0000
  C   C1318     1.0  0.25094  0.89834  0.36020  1.0000
  C   C1319     1.0  0.24426  0.88647  0.35922  1.0000
  C   C1320     1.0  0.24864  0.87119  0.36780  1.0000
  C   C1321     1.0  0.25946  0.86790  0.37744  1.0000
  H   H1320     1.0  0.26697  0.90422  0.37037  1.0000
  H   H1321     1.0  0.24755  0.91019  0.35363  1.0000
  H   H1322     1.0  0.24352  0.86199  0.36720  1.0000
  H   H1323     1.0  0.26262  0.85610  0.38423  1.0000
  C   C1322     1.0  0.30646  0.95693  0.38455  1.0000
  C   C1323     1.0  0.32521  0.93876  0.46995  1.0000
  H   H1324     1.0  0.22567  0.83306  0.07496  1.0000
  C   C1324     1.0  0.27196  0.98353  0.41652  1.0000
  C   C1325     1.0  0.31108  0.95668  0.40971  1.0000
  C   C1326     1.0  0.30819  0.94897  0.39975  1.0000
  C   C1327     1.0  0.34010  0.95503  0.34048  1.0000
  H   H1325     1.0  0.38692  0.62296  0.05384  1.0000
  H   H1326     1.0  0.31223  0.95053  0.42146  1.0000
  H   H1327     1.0  0.30690  0.93695  0.40405  1.0000
  C   C1328     1.0  0.35275  0.87148  0.35612  1.0000
  C   C1329     1.0  0.34550  0.88238  0.34455  1.0000
  C   C1330     1.0  0.34569  0.87810  0.33076  1.0000
  C   C1331     1.0  0.35266  0.86276  0.32879  1.0000
  H   H1328     1.0  0.36399  0.93393  0.27213  1.0000
  C   C1332     1.0  0.34211  0.96475  0.28851  1.0000
  H   H1329     1.0  0.34012  0.89421  0.34605  1.0000
  H   H1330     1.0  0.34038  0.88665  0.32169  1.0000
  H   H1331     1.0  0.31750  0.84388  0.26959  1.0000
  C   C1333     1.0  0.20846  0.51753  0.05237  1.0000
  N   N106      1.0  0.35541  0.61181  0.00363  1.0000
  C   C1334     1.0  0.26845  0.97129  0.39763  1.0000
  C   C1335     1.0  0.33423  0.94684  0.22989  1.0000
  C   C1336     1.0  0.20476  0.61963  0.09086  1.0000
  H   H1332     1.0  0.21883  0.49553  0.06605  1.0000
  C   C1337     1.0  0.30571  0.61193  0.00250  1.0000
  H   H1333     1.0  0.21491  0.51592  0.99144  1.0000
  H   H1334     1.0  0.21690  0.61843  0.09115  1.0000
  C   C1338     1.0  0.28311  0.69216  0.08617  1.0000
  C   C1339     1.0  0.29560  0.68592  0.09390  1.0000
  C   C1340     1.0  0.29662  0.69281  0.10561  1.0000
  C   C1341     1.0  0.28516  0.70589  0.10967  1.0000
  C   C1342     1.0  0.27241  0.71169  0.10232  1.0000
  C   C1343     1.0  0.27147  0.70495  0.09053  1.0000
  H   H1335     1.0  0.30460  0.67601  0.09063  1.0000
  H   H1336     1.0  0.30649  0.68820  0.11132  1.0000
  H   H1337     1.0  0.26329  0.72142  0.10566  1.0000
  H   H1338     1.0  0.26166  0.70966  0.08475  1.0000
  C   C1344     1.0  0.27263  0.60528  0.06816  1.0000
  C   C1345     1.0  0.28169  0.60504  0.05299  1.0000
  C   C1346     1.0  0.27734  0.59846  0.04299  1.0000
  C   C1347     1.0  0.26372  0.59242  0.04792  1.0000
  C   C1348     1.0  0.25432  0.59305  0.06295  1.0000
  C   C1349     1.0  0.25889  0.59932  0.07314  1.0000
  H   H1339     1.0  0.29226  0.60959  0.04907  1.0000
  H   H1340     1.0  0.28456  0.59806  0.03138  1.0000
  H   H1341     1.0  0.24371  0.58850  0.06679  1.0000
  H   H1342     1.0  0.25180  0.59953  0.08486  1.0000
  Fe  Fe244     1.0  0.35160  0.87902  0.29209  1.0000
  C   C1350     1.0  0.26600  0.87409  0.16109  1.0000
  H   H1343     1.0  0.29675  0.93127  0.25839  1.0000
  C   C1351     1.0  0.35420  0.90115  0.45246  1.0000
  C   C1352     1.0  0.34111  0.89775  0.46417  1.0000
  C   C1353     1.0  0.32796  0.89590  0.46005  1.0000
  C   C1354     1.0  0.32763  0.89797  0.44420  1.0000
  C   C1355     1.0  0.34070  0.90150  0.43253  1.0000
  C   C1356     1.0  0.35401  0.90287  0.43667  1.0000
  H   H1344     1.0  0.31794  0.89304  0.46916  1.0000
  H   H1345     1.0  0.34069  0.90296  0.42032  1.0000
  C   C1357     1.0  0.35147  0.97578  0.28056  1.0000
  N   N107      1.0  0.34306  0.94278  0.33329  1.0000
  C   C1358     1.0  0.26297  0.85912  0.16405  1.0000
  C   C1359     1.0  0.35144  0.86240  0.44353  1.0000
  N   N108      1.0  0.31542  0.94305  0.25444  1.0000
  C   C1360     1.0  0.36567  0.61452  0.06541  1.0000
  C   C1361     1.0  0.35947  0.60155  0.07457  1.0000
  H   H1346     1.0  0.23405  0.74647  0.18611  1.0000
  H   H1347     1.0  0.34686  0.60266  0.07819  1.0000
  C   C1362     1.0  0.21292  0.55048  0.10286  1.0000
  C   C1363     1.0  0.21939  0.82956  0.26066  1.0000
  S   S478      1.0  0.36540  0.89682  0.28976  1.0000
  H   H1348     1.0  0.31989  0.71710  0.09267  1.0000
  N   N109      1.0  0.21437  0.83548  0.27396  1.0000
  C   C1364     1.0  0.21266  0.85116  0.27295  1.0000
  C   C1365     1.0  0.21585  0.86140  0.25833  1.0000
  C   C1366     1.0  0.21172  0.82487  0.28944  1.0000
  H   H1349     1.0  0.20898  0.85583  0.28349  1.0000
  H   H1350     1.0  0.21469  0.87379  0.25765  1.0000
  H   H1351     1.0  0.20170  0.83060  0.29769  1.0000
  C   C1367     1.0  0.25793  0.58285  0.99572  1.0000
  H   H1352     1.0  0.22247  0.82158  0.29432  1.0000
  H   H1353     1.0  0.33193  0.86178  0.43448  1.0000
  H   H1354     1.0  0.19385  0.54106  0.00096  1.0000
  H   H1355     1.0  0.23126  0.97293  0.12451  1.0000
  H   H1356     1.0  0.31773  0.93198  0.23573  1.0000
  C   C1368     1.0  0.33340  0.95973  0.25016  1.0000
  H   H1357     1.0  0.37426  0.62306  0.03117  1.0000
  Fe  Fe245     1.0  0.20537  0.82043  0.04781  1.0000
  C   C1369     1.0  0.34837  0.62502  0.00952  1.0000
  H   H1358     1.0  0.20889  0.81395  0.28876  1.0000
  H   H1359     1.0  0.22057  0.88076  0.09677  1.0000
  H   H1360     1.0  0.20279  0.79272  0.00876  1.0000
  C   C1370     1.0  0.36159  0.96508  0.32156  1.0000
  C   C1371     1.0  0.21274  0.76319  0.16901  1.0000
  C   C1372     1.0  0.21324  0.79563  0.99960  1.0000
  C   C1373     1.0  0.23378  0.72291  0.18606  1.0000
  C   C1374     1.0  0.20113  0.61109  0.08204  1.0000
  C   C1375     1.0  0.30070  0.75538  0.08771  1.0000
  S   S479      1.0  0.31760  0.89978  0.25201  1.0000
  H   H1361     1.0  0.20140  0.89533  0.21095  1.0000
  H   H1362     1.0  0.36482  0.57731  0.08687  1.0000
  Fe  Fe246     1.0  0.37097  0.89730  0.26397  1.0000
  H   H1363     1.0  0.33391  0.92453  0.33058  1.0000
  C   C1376     1.0  0.21852  0.86303  0.08618  1.0000
  C   C1377     1.0  0.24571  0.63358  0.04102  1.0000
  H   H1364     1.0  0.27596  0.64331  0.00244  1.0000
  C   C1378     1.0  0.35503  0.62925  0.01951  1.0000
  H   H1365     1.0  0.33055  0.95610  0.35071  1.0000
  N   N110      1.0  0.29196  0.74152  0.07382  1.0000
  H   H1366     1.0  0.36420  0.90532  0.42757  1.0000
  C   C1379     1.0  0.21714  0.50682  0.98495  1.0000
  N   N111      1.0  0.36644  0.86472  0.43990  1.0000
  C   C1380     1.0  0.22131  0.81725  0.00454  1.0000
  C   C1381     1.0  0.20279  0.85020  0.11585  1.0000
  H   H1367     1.0  0.25000  0.58767  0.00544  1.0000
  H   H1368     1.0  0.26915  0.96078  0.39371  1.0000
  N   N112      1.0  0.24536  0.64367  0.10605  1.0000
  C   C1382     1.0  0.23317  0.65531  0.11089  1.0000
  C   C1383     1.0  0.26053  0.64554  0.10238  1.0000
  C   C1384     1.0  0.23605  0.66909  0.11250  1.0000
  C   C1385     1.0  0.26383  0.65915  0.10393  1.0000
  C   C1386     1.0  0.25149  0.67097  0.10905  1.0000
  C   C1387     1.0  0.24217  0.62948  0.10396  1.0000
  H   H1369     1.0  0.22111  0.65398  0.11358  1.0000
  H   H1370     1.0  0.27020  0.63649  0.09823  1.0000
  H   H1371     1.0  0.22636  0.67825  0.11640  1.0000
  H   H1372     1.0  0.27588  0.66059  0.10098  1.0000
  H   H1373     1.0  0.25389  0.68160  0.11026  1.0000
  H   H1374     1.0  0.24178  0.63088  0.09151  1.0000
  H   H1375     1.0  0.25150  0.61902  0.10708  1.0000
  H   H1376     1.0  0.23079  0.62706  0.11159  1.0000
  H   H1377     1.0  0.27114  0.60946  0.00590  1.0000
  C   C1388     1.0  0.25205  0.58082  0.98386  1.0000
  C   C1389     1.0  0.37423  0.86340  0.45254  1.0000
  H   H1378     1.0  0.26409  0.84998  0.33187  1.0000
  H   H1379     1.0  0.29292  0.89346  0.24210  1.0000
  H   H1380     1.0  0.21044  0.60338  0.07559  1.0000
  C   C1390     1.0  0.30745  0.97276  0.37941  1.0000
  C   C1391     1.0  0.30314  0.93510  0.26503  1.0000
  H   H1381     1.0  0.23121  0.70085  0.18352  1.0000
  H   H1382     1.0  0.34936  0.63966  0.02429  1.0000
  H   H1383     1.0  0.22442  0.86834  0.07457  1.0000
  C   C1392     1.0  0.38205  0.61295  0.06085  1.0000
  S   S480      1.0  0.19801  0.63990  0.11039  1.0000
  H   H1384     1.0  0.21021  0.71335  0.16841  1.0000
  C   C1393     1.0  0.21403  0.49209  0.99277  1.0000
  S   S481      1.0  0.32908  0.89658  0.29009  1.0000
  H   H1385     1.0  0.37417  0.95131  0.30420  1.0000
  H   H1386     1.0  0.33996  0.59940  0.00100  1.0000
  H   H1387     1.0  0.34104  0.87218  0.24456  1.0000
  C   C1394     1.0  0.31203  0.93194  0.45436  1.0000
  H   H1388     1.0  0.36561  0.86727  0.46288  1.0000
  C   C1395     1.0  0.35958  0.85177  0.34052  1.0000
  H   H1389     1.0  0.33145  0.96792  0.29704  1.0000
  H   H1390     1.0  0.33679  0.93597  0.43210  1.0000
  C   C1396     1.0  0.31118  0.74167  0.09293  1.0000
  H   H1391     1.0  0.34128  0.89612  0.47641  1.0000
  S   S482      1.0  0.30799  0.65325  0.00978  1.0000
  H   H1392     1.0  0.21077  0.76696  0.15680  1.0000
  C   C1397     1.0  0.31582  0.86006  0.23089  1.0000
  C   C1398     1.0  0.32185  0.94004  0.23975  1.0000
  C   C1399     1.0  0.30527  0.61570  0.98654  1.0000
  H   H1393     1.0  0.33731  0.92249  0.34991  1.0000
  S   S483      1.0  0.33469  0.93601  0.29522  1.0000
  Fe  Fe247     1.0  0.33714  0.89689  0.26428  1.0000
  N   N113      1.0  0.29971  0.83542  0.26521  1.0000
  C   C1400     1.0  0.29640  0.82416  0.26001  1.0000
  C   C1401     1.0  0.31485  0.83493  0.26552  1.0000
  C   C1402     1.0  0.30844  0.81231  0.25441  1.0000
  C   C1403     1.0  0.32722  0.82331  0.25989  1.0000
  C   C1404     1.0  0.32397  0.81201  0.25421  1.0000
  C   C1405     1.0  0.28690  0.84769  0.27112  1.0000
  H   H1394     1.0  0.22346  0.86327  0.23330  1.0000
  H   H1395     1.0  0.30574  0.80370  0.24988  1.0000
  C   C1406     1.0  0.35539  0.94116  0.32068  1.0000
  H   H1396     1.0  0.33346  0.80321  0.24938  1.0000
  H   H1397     1.0  0.27721  0.85076  0.26476  1.0000
  N   N114      1.0  0.29216  0.86433  0.34737  1.0000
  C   C1407     1.0  0.28244  0.87493  0.33830  1.0000
  C   C1408     1.0  0.29226  0.84865  0.35067  1.0000
  C   C1409     1.0  0.27222  0.86995  0.33256  1.0000
  C   C1410     1.0  0.28220  0.84326  0.34511  1.0000
  C   C1411     1.0  0.27210  0.85401  0.33604  1.0000
  C   C1412     1.0  0.30305  0.86968  0.35301  1.0000
  H   H1398     1.0  0.28222  0.88738  0.33580  1.0000
  H   H1399     1.0  0.30005  0.84026  0.35777  1.0000
  H   H1400     1.0  0.26408  0.87847  0.32591  1.0000
  H   H1401     1.0  0.28212  0.83086  0.34788  1.0000
  H   H1402     1.0  0.31463  0.86893  0.34460  1.0000
  H   H1403     1.0  0.29830  0.88196  0.35456  1.0000
  H   H1404     1.0  0.30473  0.86246  0.36478  1.0000
  H   H1405     1.0  0.25295  0.65029  0.04888  1.0000
  H   H1406     1.0  0.19644  0.81927  0.98224  1.0000
  H   H1407     1.0  0.28481  0.73085  0.05937  1.0000
  C   C1413     1.0  0.20556  0.57580  0.98956  1.0000
  H   H1408     1.0  0.27141  0.87693  0.16894  1.0000
  H   H1409     1.0  0.36545  0.84775  0.36300  1.0000
  S   S484      1.0  0.19342  0.57227  0.04365  1.0000
  C   C1414     1.0  0.21160  0.50111  0.05747  1.0000
  H   H1410     1.0  0.34823  0.93767  0.44448  1.0000
  C   C1415     1.0  0.28082  0.74118  0.06493  1.0000
  H   H1411     1.0  0.35683  0.60119  0.98484  1.0000
  H   H1412     1.0  0.25159  0.61756  0.00214  1.0000
  C   C1416     1.0  0.19748  0.73118  0.13420  1.0000
  S   S485      1.0  0.31550  0.84454  0.22292  1.0000
  H   H1413     1.0  0.25075  0.89047  0.12849  1.0000
  H   H1414     1.0  0.38283  0.87114  0.44868  1.0000
  C   C1417     1.0  0.20336  0.82313  0.98791  1.0000
  H   H1415     1.0  0.26919  0.74045  0.07301  1.0000
  S   S486      1.0  0.35362  0.85746  0.31134  1.0000
  C   C1418     1.0  0.26741  0.64055  0.01322  1.0000
  H   H1416     1.0  0.30522  0.60015  0.00928  1.0000
  Fe  Fe248     1.0  0.34358  0.91445  0.28509  1.0000
  C   C1419     1.0  0.21919  0.97335  0.13086  1.0000
  H   H1417     1.0  0.19723  0.82333  0.32817  1.0000
  C   C1420     1.0  0.22002  0.83327  0.00319  1.0000
  H   H1418     1.0  0.22143  0.81703  0.26144  1.0000
  H   H1419     1.0  0.24099  0.84053  0.15525  1.0000
  H   H1420     1.0  0.38499  0.85979  0.31410  1.0000
  H   H1421     1.0  0.26628  0.85039  0.17413  1.0000
  C   C1421     1.0  0.22078  0.85549  0.24470  1.0000
  H   H1422     1.0  0.26204  0.83250  0.15069  1.0000
  H   H1423     1.0  0.20331  0.74842  0.09817  1.0000
  N   N115      1.0  0.21295  0.81238  0.99700  1.0000
  H   H1424     1.0  0.19846  0.91579  0.17972  1.0000
  C   C1422     1.0  0.30744  0.63852  0.00095  1.0000
  C   C1423     1.0  0.20792  0.54134  0.09590  1.0000
  C   C1424     1.0  0.33026  0.87213  0.24167  1.0000
  H   H1425     1.0  0.26365  0.89718  0.14596  1.0000
  C   C1425     1.0  0.26164  0.88544  0.14820  1.0000
  H   H1426     1.0  0.20853  0.85674  0.99346  1.0000
  H   H1427     1.0  0.20466  0.83784  0.07617  1.0000
  C   C1426     1.0  0.19565  0.96290  0.13850  1.0000
  H   H1428     1.0  0.31824  0.74158  0.10087  1.0000
  N   N116      1.0  0.32431  0.93717  0.45567  1.0000
  H   H1429     1.0  0.33927  0.82336  0.25953  1.0000
  H   H1430     1.0  0.33373  0.95455  0.43727  1.0000
  C   C1427     1.0  0.19343  0.54683  0.09143  1.0000
  H   H1431     1.0  0.28445  0.82446  0.25982  1.0000
  C   C1428     1.0  0.20494  0.84353  0.10301  1.0000
  H   H1432     1.0  0.34985  0.96183  0.22780  1.0000
  H   H1433     1.0  0.24302  0.71762  0.19260  1.0000
  H   H1434     1.0  0.30290  0.71722  0.07554  1.0000
  C   C1429     1.0  0.20340  0.56495  0.10529  1.0000
  H   H1435     1.0  0.28218  0.84355  0.28387  1.0000
  H   H1436     1.0  0.21296  0.79263  0.98860  1.0000
  C   C1430     1.0  0.31194  0.97248  0.40472  1.0000
  C   C1431     1.0  0.36951  0.95673  0.26625  1.0000
  S   S487      1.0  0.37154  0.90185  0.45714  1.0000
  C   C1432     1.0  0.22869  0.73925  0.18230  1.0000
  C   C1433     1.0  0.25443  0.88167  0.13840  1.0000
  H   H1437     1.0  0.20008  0.83336  0.10469  1.0000
  S   S488      1.0  0.35882  0.87782  0.26663  1.0000
  H   H1438     1.0  0.25185  0.83399  0.17046  1.0000
  S   S489      1.0  0.34997  0.91631  0.25908  1.0000
  H   H1439     1.0  0.20174  0.74230  0.16194  1.0000
  C   C1434     1.0  0.36475  0.95234  0.31454  1.0000
  N   N117      1.0  0.25562  0.85561  0.15456  1.0000
  N   N118      1.0  0.21759  0.74605  0.17340  1.0000
  C   C1435     1.0  0.36034  0.94562  0.27442  1.0000
  C   C1436     1.0  0.30317  0.88411  0.24021  1.0000
  S   S490      1.0  0.19515  0.92018  0.14707  1.0000
  C   C1437     1.0  0.19910  0.52464  0.04127  1.0000
  C   C1438     1.0  0.30673  0.62333  0.00973  1.0000
  C   C1439     1.0  0.36744  0.86830  0.41238  1.0000
  C   C1440     1.0  0.19266  0.51538  0.03562  1.0000
  C   C1441     1.0  0.34402  0.86312  0.43162  1.0000
  C   C1442     1.0  0.33333  0.93100  0.33959  1.0000
  C   C1443     1.0  0.35988  0.85621  0.35405  1.0000
  H   H1440     1.0  0.28260  0.76570  0.07457  1.0000
  H   H1441     1.0  0.19640  0.84522  0.12735  1.0000
  H   H1442     1.0  0.29677  0.56953  0.98146  1.0000
  C   C1444     1.0  0.29107  0.75509  0.07815  1.0000
  C   C1445     1.0  0.20859  0.86357  0.11367  1.0000
  C   C1446     1.0  0.32969  0.86020  0.23486  1.0000
  H   H1443     1.0  0.27944  0.75193  0.05545  1.0000
  Fe  Fe249     1.0  0.37045  0.91130  0.47812  1.0000
  C   C1447     1.0  0.31704  0.88421  0.24422  1.0000
  C   C1448     1.0  0.20538  0.49183  0.05161  1.0000
  S   S491      1.0  0.19212  0.81180  0.07210  1.0000
  H   H1444     1.0  0.27888  0.58018  0.00401  1.0000
  C   C1449     1.0  0.34792  0.60730  0.99362  1.0000
  H   H1445     1.0  0.27581  0.95849  0.41915  1.0000
  H   H1446     1.0  0.36502  0.83992  0.33900  1.0000
  C   C1450     1.0  0.21541  0.72054  0.17245  1.0000
  H   H1447     1.0  0.34005  0.85104  0.23263  1.0000
  C   C1451     1.0  0.19572  0.49896  0.04081  1.0000
  H   H1448     1.0  0.38007  0.95358  0.25760  1.0000
  H   H1449     1.0  0.33952  0.94413  0.21839  1.0000
  H   H1450     1.0  0.30857  0.92446  0.27288  1.0000
  H   H1451     1.0  0.22433  0.54654  0.10597  1.0000
  H   H1452     1.0  0.22201  0.76899  0.16917  1.0000
  C   C1452     1.0  0.28415  0.57245  0.98235  1.0000
  H   H1453     1.0  0.19658  0.53727  0.03727  1.0000
  H   H1454     1.0  0.19468  0.88990  0.19658  1.0000
  C   C1453     1.0  0.19279  0.62969  0.09929  1.0000
  Fe  Fe250     1.0  0.19192  0.91241  0.10832  1.0000
  S   S492      1.0  0.19236  0.90702  0.08533  1.0000
  H   H1455     1.0  0.36865  0.97393  0.31683  1.0000
  H   H1456     1.0  0.27534  0.98266  0.42738  1.0000
  C   C1454     1.0  0.37596  0.60626  0.01767  1.0000
  H   H1457     1.0  0.37443  0.59170  0.00331  1.0000
  C   C1455     1.0  0.26240  0.62052  0.00294  1.0000
  S   S493      1.0  0.19228  0.81123  0.03607  1.0000
  H   H1458     1.0  0.26743  0.62715  0.99115  1.0000
  C   C1456     1.0  0.38604  0.58565  0.07479  1.0000
  C   C1457     1.0  0.27225  0.97000  0.41190  1.0000
  H   H1459     1.0  0.20414  0.98205  0.09894  1.0000
  S   S494      1.0  0.31460  0.98177  0.41809  1.0000
  H   H1460     1.0  0.39088  0.91033  0.27641  1.0000
  S   S495      1.0  0.39008  0.90395  0.49126  1.0000
  H   H1461     1.0  0.26484  0.89007  0.70280  1.0000
  C   C1458     1.0  0.24799  0.64026  0.89625  1.0000
  H   H1462     1.0  0.22957  0.50074  0.94777  1.0000
  Fe  Fe251     1.0  0.37045  0.90750  0.51251  1.0000
  S   S496      1.0  0.37039  0.89486  0.53772  1.0000
  C   C1459     1.0  0.33468  0.86955  0.70320  1.0000
  Fe  Fe252     1.0  0.30137  0.90774  0.60925  1.0000
  S   S497      1.0  0.27994  0.92738  0.61091  1.0000
  S   S498      1.0  0.30588  0.89709  0.58825  1.0000
  Fe  Fe253     1.0  0.30747  0.90889  0.64034  1.0000
  S   S499      1.0  0.28673  0.92856  0.64404  1.0000
  S   S500      1.0  0.31929  0.89957  0.66090  1.0000
  Fe  Fe254     1.0  0.27396  0.91509  0.63628  1.0000
  S   S501      1.0  0.25102  0.91014  0.65237  1.0000
  Fe  Fe255     1.0  0.29486  0.93875  0.61853  1.0000
  S   S502      1.0  0.29431  0.89463  0.63418  1.0000
  S   S503      1.0  0.31676  0.91991  0.61515  1.0000
  H   H1463     1.0  0.36345  0.89910  0.66466  1.0000
  S   S504      1.0  0.36404  0.93312  0.73823  1.0000
  H   H1464     1.0  0.31480  0.93569  0.49480  1.0000
  Fe  Fe256     1.0  0.35736  0.94068  0.69612  1.0000
  S   S505      1.0  0.33730  0.94432  0.71660  1.0000
  H   H1465     1.0  0.26061  0.89284  0.68367  1.0000
  Fe  Fe257     1.0  0.35300  0.95544  0.72336  1.0000
  Fe  Fe258     1.0  0.35005  0.92162  0.72944  1.0000
  S   S506      1.0  0.33881  0.90199  0.74583  1.0000
  N   N119      1.0  0.24247  0.65303  0.88371  1.0000
  H   H1466     1.0  0.32661  0.55600  0.92272  1.0000
  C   C1460     1.0  0.24621  0.66685  0.85664  1.0000
  Fe  Fe259     1.0  0.29817  0.59177  0.92894  1.0000
  S   S507      1.0  0.28241  0.60811  0.94403  1.0000
  S   S508      1.0  0.29202  0.56963  0.92816  1.0000
  Fe  Fe260     1.0  0.30397  0.60708  0.95214  1.0000
  C   C1461     1.0  0.21326  0.87073  0.86303  1.0000
  Fe  Fe261     1.0  0.29035  0.62733  0.92401  1.0000
  C   C1462     1.0  0.38321  0.57802  0.92219  1.0000
  S   S509      1.0  0.31924  0.58895  0.93865  1.0000
  S   S510      1.0  0.30449  0.61088  0.90823  1.0000
  Fe  Fe262     1.0  0.20834  0.52814  0.91751  1.0000
  H   H1467     1.0  0.33345  0.86992  0.72717  1.0000
  S   S511      1.0  0.21753  0.50194  0.91931  1.0000
  Fe  Fe263     1.0  0.21789  0.55953  0.91160  1.0000
  C   C1463     1.0  0.22782  0.66245  0.88687  1.0000
  S   S512      1.0  0.23326  0.57710  0.89971  1.0000
  H   H1468     1.0  0.30789  0.65397  0.97806  1.0000
  H   H1469     1.0  0.24866  0.78389  0.84780  1.0000
  S   S513      1.0  0.19529  0.56962  0.92660  1.0000
  C   C1464     1.0  0.36189  0.88684  0.66713  1.0000
  S   S514      1.0  0.22182  0.53700  0.92947  1.0000
  S   S515      1.0  0.20661  0.55008  0.89801  1.0000
  H   H1470     1.0  0.22166  0.89148  0.82725  1.0000
  C   C1465     1.0  0.26416  0.80524  0.73736  1.0000
  H   H1471     1.0  0.25085  0.69411  0.87988  1.0000
  H   H1472     1.0  0.23291  0.81658  0.73659  1.0000
  H   H1473     1.0  0.35521  0.54828  0.92287  1.0000
  H   H1474     1.0  0.29758  0.93041  0.68568  1.0000
  S   S516      1.0  0.27113  0.64850  0.91795  1.0000
  C   C1466     1.0  0.20997  0.87172  0.87879  1.0000
  N   N120      1.0  0.26197  0.57454  0.97168  1.0000
  C   C1467     1.0  0.25456  0.85998  0.65425  1.0000
  H   H1475     1.0  0.33427  0.60544  0.88006  1.0000
  S   S517      1.0  0.35098  0.91242  0.49975  1.0000
  N   N121      1.0  0.25278  0.79767  0.73801  1.0000
  C   C1468     1.0  0.19984  0.59546  0.88068  1.0000
  H   H1476     1.0  0.32233  0.59431  0.87663  1.0000
  H   H1477     1.0  0.20127  0.88735  0.89486  1.0000
  S   S518      1.0  0.35302  0.94669  0.67172  1.0000
  C   C1469     1.0  0.20457  0.56701  0.96695  1.0000
  C   C1470     1.0  0.25936  0.92237  0.68178  1.0000
  H   H1478     1.0  0.32492  0.86374  0.70622  1.0000
  C   C1471     1.0  0.19795  0.69121  0.81560  1.0000
  H   H1479     1.0  0.27298  0.87277  0.64558  1.0000
  Fe  Fe264     1.0  0.25115  0.71186  0.84505  1.0000
  S   S519      1.0  0.23820  0.71275  0.82675  1.0000
  S   S520      1.0  0.27158  0.69134  0.84937  1.0000
  Fe  Fe265     1.0  0.23029  0.74229  0.85307  1.0000
  S   S521      1.0  0.21526  0.74512  0.83627  1.0000
  S   S522      1.0  0.22532  0.76282  0.86414  1.0000
  Fe  Fe266     1.0  0.21655  0.71929  0.84493  1.0000
  C   C1472     1.0  0.25318  0.78253  0.83543  1.0000
  Fe  Fe267     1.0  0.23821  0.73863  0.81967  1.0000
  S   S523      1.0  0.24008  0.75453  0.79543  1.0000
  S   S524      1.0  0.22939  0.71702  0.86360  1.0000
  S   S525      1.0  0.25327  0.73712  0.83608  1.0000
  C   C1473     1.0  0.36641  0.59846  0.90641  1.0000
  H   H1480     1.0  0.26337  0.64786  0.86633  1.0000
  H   H1481     1.0  0.28579  0.56592  0.96088  1.0000
  C   C1474     1.0  0.27690  0.79736  0.74445  1.0000
  H   H1482     1.0  0.30581  0.63386  0.96540  1.0000
  H   H1483     1.0  0.37397  0.56183  0.90140  1.0000
  C   C1475     1.0  0.28677  0.92828  0.68461  1.0000
  H   H1484     1.0  0.35467  0.88681  0.65900  1.0000
  C   C1476     1.0  0.22201  0.67430  0.87495  1.0000
  Fe  Fe268     1.0  0.26296  0.83575  0.76324  1.0000
  S   S526      1.0  0.27474  0.84324  0.73787  1.0000
  S   S527      1.0  0.27209  0.81279  0.77914  1.0000
  Fe  Fe269     1.0  0.23628  0.86427  0.76191  1.0000
  S   S528      1.0  0.24526  0.87415  0.73648  1.0000
  S   S529      1.0  0.21214  0.87338  0.77537  1.0000
  Fe  Fe270     1.0  0.25043  0.84957  0.73346  1.0000
  S   S530      1.0  0.24642  0.84445  0.71225  1.0000
  Fe  Fe271     1.0  0.26907  0.86751  0.74248  1.0000
  S   S531      1.0  0.28392  0.88500  0.72733  1.0000
  S   S532      1.0  0.23915  0.84015  0.75825  1.0000
  S   S533      1.0  0.25954  0.85952  0.76855  1.0000
  H   H1485     1.0  0.21103  0.58858  0.96557  1.0000
  C   C1477     1.0  0.33664  0.96656  0.50987  1.0000
  C   C1478     1.0  0.27860  0.98221  0.64662  1.0000
  H   H1486     1.0  0.29387  0.90318  0.69159  1.0000
  C   C1479     1.0  0.27497  0.94082  0.67972  1.0000
  H   H1487     1.0  0.29280  0.92548  0.49271  1.0000
  H   H1488     1.0  0.25682  0.81096  0.81820  1.0000
  N   N122      1.0  0.26781  0.86607  0.62710  1.0000
  N   N123      1.0  0.31906  0.93924  0.56111  1.0000
  H   H1489     1.0  0.26697  0.76179  0.75894  1.0000
  Fe  Fe272     1.0  0.19812  0.54626  0.94319  1.0000
  H   H1490     1.0  0.25930  0.85912  0.61089  1.0000
  S   S534      1.0  0.37106  0.93263  0.50914  1.0000
  S   S535      1.0  0.31077  0.62768  0.93343  1.0000
  H   H1491     1.0  0.21093  0.86112  0.88800  1.0000
  Fe  Fe273     1.0  0.32443  0.60948  0.91930  1.0000
  C   C1480     1.0  0.36833  0.58794  0.92075  1.0000
  C   C1481     1.0  0.22642  0.84929  0.71170  1.0000
  C   C1482     1.0  0.22213  0.85183  0.69738  1.0000
  S   S536      1.0  0.20991  0.87454  0.63373  1.0000
  H   H1492     1.0  0.30667  0.94890  0.58120  1.0000
  H   H1493     1.0  0.20754  0.78672  0.88085  1.0000
  C   C1483     1.0  0.21475  0.85041  0.72541  1.0000
  H   H1494     1.0  0.23111  0.85108  0.68677  1.0000
  H   H1495     1.0  0.34221  0.59346  0.86557  1.0000
  C   C1484     1.0  0.20257  0.89991  0.87076  1.0000
  H   H1496     1.0  0.21793  0.84856  0.73652  1.0000
  C   C1485     1.0  0.25836  0.85904  0.62309  1.0000
  C   C1486     1.0  0.20619  0.91129  0.80200  1.0000
  C   C1487     1.0  0.22110  0.90534  0.79349  1.0000
  C   C1488     1.0  0.22307  0.89377  0.78511  1.0000
  C   C1489     1.0  0.21010  0.88819  0.78524  1.0000
  H   H1497     1.0  0.26230  0.56203  0.95486  1.0000
  C   C1490     1.0  0.31784  0.94632  0.57303  1.0000
  H   H1498     1.0  0.23117  0.90955  0.79349  1.0000
  H   H1499     1.0  0.23460  0.88916  0.77861  1.0000
  H   H1500     1.0  0.20921  0.79712  0.81426  1.0000
  H   H1501     1.0  0.23082  0.79916  0.73230  1.0000
  C   C1491     1.0  0.24820  0.77099  0.79225  1.0000
  C   C1492     1.0  0.26134  0.76989  0.79804  1.0000
  C   C1493     1.0  0.26854  0.78280  0.79398  1.0000
  C   C1494     1.0  0.26254  0.79692  0.78426  1.0000
  C   C1495     1.0  0.24916  0.79807  0.77883  1.0000
  C   C1496     1.0  0.24205  0.78516  0.78276  1.0000
  H   H1502     1.0  0.26632  0.75892  0.80519  1.0000
  H   H1503     1.0  0.27891  0.78175  0.79823  1.0000
  H   H1504     1.0  0.24440  0.80876  0.77135  1.0000
  H   H1505     1.0  0.23189  0.78608  0.77824  1.0000
  H   H1506     1.0  0.25358  0.77024  0.83523  1.0000
  C   C1497     1.0  0.27804  0.78159  0.75209  1.0000
  N   N124      1.0  0.27115  0.91012  0.68622  1.0000
  H   H1507     1.0  0.27756  0.96214  0.63895  1.0000
  H   H1508     1.0  0.29102  0.87022  0.61821  1.0000
  Fe  Fe274     1.0  0.38206  0.93035  0.71596  1.0000
  C   C1498     1.0  0.19872  0.49697  0.90244  1.0000
  C   C1499     1.0  0.28462  0.91291  0.68788  1.0000
  H   H1509     1.0  0.19439  0.50956  0.89978  1.0000
  H   H1510     1.0  0.22061  0.66089  0.89869  1.0000
  C   C1500     1.0  0.35194  0.96898  0.50605  1.0000
  H   H1511     1.0  0.26545  0.78423  0.83126  1.0000
  C   C1501     1.0  0.21085  0.58926  0.86857  1.0000
  S   S537      1.0  0.36900  0.91702  0.70826  1.0000
  H   H1512     1.0  0.20068  0.59026  0.89282  1.0000
  H   H1513     1.0  0.32978  0.95616  0.58425  1.0000
  H   H1514     1.0  0.24339  0.81123  0.71819  1.0000
  H   H1515     1.0  0.23549  0.84820  0.65913  1.0000
  H   H1516     1.0  0.28554  0.80358  0.74449  1.0000
  H   H1517     1.0  0.20584  0.56897  0.95440  1.0000
  C   C1502     1.0  0.21447  0.88296  0.83498  1.0000
  H   H1518     1.0  0.21046  0.68189  0.87742  1.0000
  C   C1503     1.0  0.22291  0.50987  0.96871  1.0000
  C   C1504     1.0  0.25384  0.78217  0.74542  1.0000
  C   C1505     1.0  0.30747  0.98129  0.67605  1.0000
  H   H1519     1.0  0.24279  0.63003  0.89787  1.0000
  C   C1506     1.0  0.24492  0.85275  0.65026  1.0000
  H   H1520     1.0  0.37801  0.60714  0.88265  1.0000
  H   H1521     1.0  0.31722  0.57708  0.90143  1.0000
  H   H1522     1.0  0.30794  0.92760  0.55109  1.0000
  C   C1507     1.0  0.23128  0.67644  0.85975  1.0000
  C   C1508     1.0  0.27786  0.57054  0.97072  1.0000
  C   C1509     1.0  0.33311  0.93614  0.55072  1.0000
  H   H1523     1.0  0.22695  0.77849  0.83079  1.0000
  C   C1510     1.0  0.20992  0.76245  0.88083  1.0000
  C   C1511     1.0  0.19253  0.69788  0.84098  1.0000
  C   C1512     1.0  0.20623  0.85561  0.69669  1.0000
  H   H1524     1.0  0.38470  0.56985  0.93317  1.0000
  H   H1525     1.0  0.36401  0.58304  0.88041  1.0000
  S   S538      1.0  0.30310  0.60133  0.97819  1.0000
  H   H1526     1.0  0.24862  0.92017  0.68056  1.0000
  H   H1527     1.0  0.25279  0.86097  0.66631  1.0000
  H   H1528     1.0  0.20875  0.88711  0.74193  1.0000
  H   H1529     1.0  0.28755  0.77551  0.75813  1.0000
  H   H1530     1.0  0.21091  0.96391  0.81872  1.0000
  C   C1513     1.0  0.32972  0.57361  0.90121  1.0000
  C   C1514     1.0  0.23930  0.80649  0.73096  1.0000
  H   H1531     1.0  0.23886  0.84733  0.63132  1.0000
  H   H1532     1.0  0.20305  0.85801  0.68551  1.0000
  H   H1533     1.0  0.22033  0.57932  0.87132  1.0000
  H   H1534     1.0  0.29712  0.94677  0.55437  1.0000
  H   H1535     1.0  0.27664  0.95276  0.67682  1.0000
  C   C1515     1.0  0.30154  0.92893  0.48228  1.0000
  H   H1536     1.0  0.37354  0.87886  0.66444  1.0000
  C   C1516     1.0  0.33442  0.59418  0.87731  1.0000
  C   C1517     1.0  0.35100  0.55728  0.91336  1.0000
  C   C1518     1.0  0.19929  0.55384  0.97695  1.0000
  H   H1537     1.0  0.20315  0.88578  0.83118  1.0000
  C   C1519     1.0  0.19290  0.48719  0.89679  1.0000
  C   C1520     1.0  0.27941  0.87377  0.61489  1.0000
  Fe  Fe275     1.0  0.38898  0.92977  0.48695  1.0000
  C   C1521     1.0  0.27236  0.66090  0.89903  1.0000
  C   C1522     1.0  0.28439  0.65724  0.88624  1.0000
  C   C1523     1.0  0.28424  0.66687  0.87111  1.0000
  C   C1524     1.0  0.27208  0.68018  0.86868  1.0000
  C   C1525     1.0  0.26017  0.68386  0.88152  1.0000
  C   C1526     1.0  0.26029  0.67425  0.89660  1.0000
  H   H1538     1.0  0.29375  0.64697  0.88800  1.0000
  H   H1539     1.0  0.29353  0.66396  0.86124  1.0000
  H   H1540     1.0  0.27030  0.97970  0.65765  1.0000
  H   H1541     1.0  0.25195  0.94751  0.67436  1.0000
  C   C1527     1.0  0.30495  0.93574  0.55916  1.0000
  C   C1528     1.0  0.19636  0.61502  0.83313  1.0000
  S   S539      1.0  0.19517  0.70855  0.85324  1.0000
  S   S540      1.0  0.29833  0.96347  0.60805  1.0000
  N   N125      1.0  0.19749  0.60839  0.84959  1.0000
  C   C1529     1.0  0.36153  0.56481  0.90128  1.0000
  C   C1530     1.0  0.20612  0.89850  0.85512  1.0000
  H   H1542     1.0  0.29850  0.92989  0.57066  1.0000
  C   C1531     1.0  0.26911  0.89393  0.68991  1.0000
  C   C1532     1.0  0.25162  0.65506  0.86881  1.0000
  C   C1533     1.0  0.27563  0.57197  0.92026  1.0000
  C   C1534     1.0  0.26886  0.58660  0.91199  1.0000
  C   C1535     1.0  0.25587  0.58807  0.90566  1.0000
  C   C1536     1.0  0.24936  0.57504  0.90797  1.0000
  C   C1537     1.0  0.25596  0.56050  0.91651  1.0000
  C   C1538     1.0  0.26920  0.55894  0.92246  1.0000
  H   H1543     1.0  0.27374  0.59672  0.91028  1.0000
  H   H1544     1.0  0.25081  0.59931  0.89901  1.0000
  H   H1545     1.0  0.25115  0.55037  0.91816  1.0000
  H   H1546     1.0  0.27444  0.54759  0.92881  1.0000
  C   C1539     1.0  0.34530  0.94726  0.56432  1.0000
  H   H1547     1.0  0.32326  0.97958  0.54398  1.0000
  S   S541      1.0  0.37216  0.95366  0.70178  1.0000
  C   C1540     1.0  0.20945  0.59588  0.85299  1.0000
  C   C1541     1.0  0.20308  0.77617  0.88652  1.0000
  S   S542      1.0  0.34815  0.61044  0.90297  1.0000
  C   C1542     1.0  0.26114  0.93788  0.67834  1.0000
  H   H1548     1.0  0.24476  0.64422  0.90752  1.0000
  C   C1543     1.0  0.21019  0.49039  0.91142  1.0000
  H   H1549     1.0  0.27543  0.88674  0.61320  1.0000
  C   C1544     1.0  0.32269  0.89813  0.74136  1.0000
  C   C1545     1.0  0.31542  0.88603  0.75133  1.0000
  C   C1546     1.0  0.30323  0.88207  0.74741  1.0000
  C   C1547     1.0  0.29829  0.89019  0.73346  1.0000
  C   C1548     1.0  0.30541  0.90243  0.72367  1.0000
  C   C1549     1.0  0.31753  0.90641  0.72760  1.0000
  H   H1550     1.0  0.31937  0.87960  0.76202  1.0000
  H   H1551     1.0  0.29780  0.87263  0.75505  1.0000
  H   H1552     1.0  0.30157  0.90888  0.71297  1.0000
  H   H1553     1.0  0.32298  0.91579  0.71991  1.0000
  H   H1554     1.0  0.35548  0.95065  0.56538  1.0000
  C   C1550     1.0  0.23899  0.90132  0.64668  1.0000
  C   C1551     1.0  0.24139  0.90004  0.63112  1.0000
  C   C1552     1.0  0.23205  0.89226  0.62716  1.0000
  C   C1553     1.0  0.22024  0.88576  0.63869  1.0000
  C   C1554     1.0  0.21767  0.88731  0.65417  1.0000
  C   C1555     1.0  0.22699  0.89508  0.65814  1.0000
  H   H1555     1.0  0.25040  0.90509  0.62217  1.0000
  H   H1556     1.0  0.23402  0.89120  0.61514  1.0000
  C   C1556     1.0  0.20455  0.88643  0.88264  1.0000
  H   H1557     1.0  0.22504  0.89603  0.67019  1.0000
  C   C1557     1.0  0.32686  0.91394  0.66421  1.0000
  C   C1558     1.0  0.33184  0.92583  0.65176  1.0000
  C   C1559     1.0  0.33953  0.93614  0.65421  1.0000
  C   C1560     1.0  0.34222  0.93460  0.66911  1.0000
  C   C1561     1.0  0.33662  0.92316  0.68171  1.0000
  C   C1562     1.0  0.32884  0.91294  0.67928  1.0000
  H   H1558     1.0  0.33023  0.92679  0.64012  1.0000
  H   H1559     1.0  0.34374  0.94507  0.64446  1.0000
  H   H1560     1.0  0.33849  0.92207  0.69327  1.0000
  H   H1561     1.0  0.32453  0.90413  0.68907  1.0000
  Fe  Fe276     1.0  0.35301  0.93740  0.49491  1.0000
  C   C1563     1.0  0.35220  0.89661  0.55137  1.0000
  C   C1564     1.0  0.33856  0.89586  0.54749  1.0000
  C   C1565     1.0  0.32445  0.89596  0.55893  1.0000
  C   C1566     1.0  0.32373  0.89742  0.57414  1.0000
  C   C1567     1.0  0.33720  0.89879  0.57786  1.0000
  C   C1568     1.0  0.35147  0.89808  0.56658  1.0000
  H   H1562     1.0  0.33907  0.89450  0.53586  1.0000
  H   H1563     1.0  0.31410  0.89478  0.55602  1.0000
  H   H1564     1.0  0.33680  0.89981  0.58958  1.0000
  H   H1565     1.0  0.36201  0.89857  0.56967  1.0000
  H   H1566     1.0  0.35498  0.88428  0.72005  1.0000
  H   H1567     1.0  0.24470  0.77619  0.74627  1.0000
  H   H1568     1.0  0.26325  0.81753  0.73155  1.0000
  H   H1569     1.0  0.21792  0.59086  0.84365  1.0000
  C   C1569     1.0  0.37935  0.59905  0.89372  1.0000
  C   C1570     1.0  0.33499  0.56162  0.91330  1.0000
  H   H1570     1.0  0.28045  0.88588  0.68617  1.0000
  H   H1571     1.0  0.19781  0.91135  0.87373  1.0000
  S   S543      1.0  0.33163  0.95656  0.49870  1.0000
  H   H1572     1.0  0.28129  0.87073  0.60335  1.0000
  S   S544      1.0  0.20405  0.92471  0.81355  1.0000
  H   H1573     1.0  0.25667  0.58314  0.94911  1.0000
  C   C1571     1.0  0.24685  0.85222  0.63460  1.0000
  H   H1574     1.0  0.33841  0.87139  0.67838  1.0000
  H   H1575     1.0  0.35838  0.58741  0.93062  1.0000
  C   C1572     1.0  0.29315  0.97564  0.62161  1.0000
  N   N126      1.0  0.35414  0.88196  0.68363  1.0000
  C   C1573     1.0  0.35886  0.88545  0.69513  1.0000
  H   H1576     1.0  0.22526  0.52135  0.96257  1.0000
  C   C1574     1.0  0.35152  0.88115  0.71095  1.0000
  H   H1577     1.0  0.24312  0.57198  0.96329  1.0000
  C   C1575     1.0  0.25566  0.57287  0.95913  1.0000
  H   H1578     1.0  0.38836  0.96386  0.76822  1.0000
  H   H1579     1.0  0.19513  0.60584  0.82784  1.0000
  H   H1580     1.0  0.35186  0.97747  0.67837  1.0000
  C   C1576     1.0  0.28276  0.97221  0.63608  1.0000
  H   H1581     1.0  0.37604  0.94595  0.76149  1.0000
  C   C1577     1.0  0.33938  0.87312  0.71496  1.0000
  N   N127      1.0  0.21144  0.88405  0.85143  1.0000
  H   H1582     1.0  0.25374  0.66884  0.84498  1.0000
  C   C1578     1.0  0.20756  0.57807  0.97327  1.0000
  C   C1579     1.0  0.35584  0.57676  0.88938  1.0000
  H   H1583     1.0  0.20986  0.70603  0.82091  1.0000
  C   C1580     1.0  0.34235  0.87392  0.68749  1.0000
  H   H1584     1.0  0.37525  0.96764  0.73219  1.0000
  C   C1581     1.0  0.37091  0.97888  0.73550  1.0000
  H   H1585     1.0  0.26103  0.63641  0.89360  1.0000
  H   H1586     1.0  0.33213  0.97684  0.66563  1.0000
  H   H1587     1.0  0.20948  0.73816  0.88399  1.0000
  C   C1582     1.0  0.22524  0.49819  0.96044  1.0000
  C   C1583     1.0  0.26650  0.77389  0.75252  1.0000
  H   H1588     1.0  0.33411  0.93069  0.54114  1.0000
  C   C1584     1.0  0.20108  0.69895  0.82547  1.0000
  H   H1589     1.0  0.25096  0.67717  0.90644  1.0000
  C   C1585     1.0  0.20415  0.74881  0.88825  1.0000
  H   H1590     1.0  0.20442  0.69230  0.80350  1.0000
  H   H1591     1.0  0.31430  0.96877  0.52635  1.0000
  H   H1592     1.0  0.22694  0.68564  0.85044  1.0000
  H   H1593     1.0  0.20872  0.88222  0.66318  1.0000
  H   H1594     1.0  0.22099  0.87110  0.83309  1.0000
  N   N128      1.0  0.34013  0.58101  0.88945  1.0000
  H   H1595     1.0  0.36011  0.96558  0.49575  1.0000
  C   C1586     1.0  0.38846  0.94268  0.76173  1.0000
  H   H1596     1.0  0.36812  0.89190  0.69206  1.0000
  N   N129      1.0  0.24285  0.79367  0.82549  1.0000
  C   C1587     1.0  0.24618  0.80801  0.81769  1.0000
  C   C1588     1.0  0.22960  0.78985  0.82454  1.0000
  C   C1589     1.0  0.23629  0.81884  0.80835  1.0000
  C   C1590     1.0  0.21947  0.80038  0.81529  1.0000
  C   C1591     1.0  0.22287  0.81497  0.80714  1.0000
  C   C1592     1.0  0.34646  0.93996  0.55225  1.0000
  C   C1593     1.0  0.33091  0.95044  0.57482  1.0000
  C   C1594     1.0  0.26598  0.86665  0.64244  1.0000
  H   H1597     1.0  0.23931  0.82995  0.80170  1.0000
  C   C1595     1.0  0.33121  0.97674  0.53331  1.0000
  H   H1598     1.0  0.35758  0.93743  0.54400  1.0000
  C   C1596     1.0  0.32611  0.97076  0.52332  1.0000
  C   C1597     1.0  0.19321  0.90584  0.80193  1.0000
  H   H1599     1.0  0.21530  0.82317  0.79967  1.0000
  S   S545      1.0  0.34258  0.97876  0.73007  1.0000
  C   C1598     1.0  0.30617  0.63084  0.97772  1.0000
  H   H1600     1.0  0.21698  0.85922  0.86022  1.0000
  H   H1601     1.0  0.36885  0.97686  0.51288  1.0000
  C   C1599     1.0  0.19776  0.88840  0.73859  1.0000
  C   C1600     1.0  0.34665  0.97890  0.52954  1.0000
  H   H1602     1.0  0.20695  0.61967  0.82631  1.0000
  S   S546      1.0  0.19302  0.54131  0.96952  1.0000
  C   C1601     1.0  0.19729  0.89090  0.72281  1.0000
  H   H1603     1.0  0.20797  0.89129  0.71375  1.0000
  C   C1602     1.0  0.31390  0.93459  0.48347  1.0000
  C   C1603     1.0  0.19882  0.85371  0.72481  1.0000
  C   C1604     1.0  0.20117  0.97353  0.81599  1.0000
  C   C1605     1.0  0.19517  0.89431  0.79357  1.0000
  H   H1604     1.0  0.20439  0.90902  0.84595  1.0000
  C   C1606     1.0  0.32320  0.98082  0.67531  1.0000
  H   H1605     1.0  0.30429  0.97778  0.66703  1.0000
  C   C1607     1.0  0.35689  0.97535  0.51574  1.0000
  C   C1608     1.0  0.19454  0.85635  0.71042  1.0000
  N   N130      1.0  0.22199  0.48381  0.96820  1.0000
  H   H1606     1.0  0.19374  0.84771  0.97958  1.0000
  C   C1609     1.0  0.19147  0.74896  0.90133  1.0000
  H   H1607     1.0  0.19179  0.98373  0.85930  1.0000
  H   H1608     1.0  0.50431  0.08864  0.24521  1.0000
  S   S547      1.0  0.44205  0.44166  0.03590  1.0000
  Fe  Fe277     1.0  0.44969  0.41541  0.04071  1.0000
  S   S548      1.0  0.47429  0.40377  0.02986  1.0000
  C   C1610     1.0  0.58394  0.05248  0.45117  1.0000
  S   S549      1.0  0.41038  0.45254  0.01084  1.0000
  H   H1609     1.0  0.41223  0.38123  0.01703  1.0000
  H   H1610     1.0  0.58675  0.39474  0.01000  1.0000
  C   C1611     1.0  0.56918  0.07128  0.46710  1.0000
  Fe  Fe278     1.0  0.54995  0.36306  0.06117  1.0000
  S   S550      1.0  0.56308  0.34125  0.05197  1.0000
  S   S551      1.0  0.52392  0.36769  0.07235  1.0000
  C   C1612     1.0  0.57265  0.30284  0.04036  1.0000
  C   C1613     1.0  0.58125  0.99384  0.40443  1.0000
  H   H1611     1.0  0.57532  0.31205  0.00086  1.0000
  H   H1612     1.0  0.51736  0.99209  0.35018  1.0000
  H   H1613     1.0  0.55651  0.09780  0.32423  1.0000
  C   C1614     1.0  0.45205  0.37797  0.02667  1.0000
  C   C1615     1.0  0.48349  0.98488  0.30322  1.0000
  S   S552      1.0  0.56031  0.37973  0.03997  1.0000
  S   S553      1.0  0.56760  0.36148  0.07530  1.0000
  C   C1616     1.0  0.47227  0.43119  0.06222  1.0000
  C   C1617     1.0  0.54164  0.04644  0.46294  1.0000
  C   C1618     1.0  0.58899  0.05239  0.26497  1.0000
  S   S554      1.0  0.42133  0.02533  0.26377  1.0000
  C   C1619     1.0  0.48448  0.42891  0.04914  1.0000
  H   H1614     1.0  0.40710  0.99805  0.25007  1.0000
  S   S555      1.0  0.58841  0.39792  0.05062  1.0000
  H   H1615     1.0  0.43202  0.00759  0.23994  1.0000
  Fe  Fe279     1.0  0.57895  0.04715  0.39681  1.0000
  C   C1620     1.0  0.44657  0.98435  0.24001  1.0000
  S   S556      1.0  0.57127  0.03674  0.42281  1.0000
  Fe  Fe280     1.0  0.56999  0.05838  0.36484  1.0000
  S   S557      1.0  0.55206  0.06927  0.34981  1.0000
  Fe  Fe281     1.0  0.39545  0.02485  0.27332  1.0000
  S   S558      1.0  0.57308  0.03493  0.38146  1.0000
  S   S559      1.0  0.57350  0.07118  0.38115  1.0000
  Fe  Fe282     1.0  0.48944  0.04046  0.29087  1.0000
  S   S560      1.0  0.50487  0.03976  0.26684  1.0000
  S   S561      1.0  0.46281  0.04591  0.29750  1.0000
  Fe  Fe283     1.0  0.51725  0.03064  0.30674  1.0000
  S   S562      1.0  0.53501  0.02865  0.28430  1.0000
  S   S563      1.0  0.52507  0.02247  0.32964  1.0000
  Fe  Fe284     1.0  0.52007  0.05128  0.27411  1.0000
  S   S564      1.0  0.53167  0.07025  0.25685  1.0000
  H   H1616     1.0  0.56813  0.03471  0.28058  1.0000
  S   S565      1.0  0.50329  0.05422  0.29709  1.0000
  S   S566      1.0  0.50210  0.01713  0.30257  1.0000
  H   H1617     1.0  0.42444  0.48302  0.08618  1.0000
  N   N131      1.0  0.44004  0.37296  0.03828  1.0000
  C   C1621     1.0  0.58026  0.10844  0.34079  1.0000
  H   H1618     1.0  0.51818  0.02764  0.45297  1.0000
  H   H1619     1.0  0.49994  0.00960  0.46721  1.0000
  C   C1622     1.0  0.41389  0.43723  0.98780  1.0000
  C   C1623     1.0  0.48426  0.06917  0.47303  1.0000
  S   S567      1.0  0.52757  0.07293  0.47491  1.0000
  C   C1624     1.0  0.51463  0.98691  0.26655  1.0000
  H   H1620     1.0  0.44827  0.00678  0.29605  1.0000
  H   H1621     1.0  0.55436  0.02590  0.45376  1.0000
  S   S568      1.0  0.52822  0.99472  0.27092  1.0000
  C   C1625     1.0  0.58776  0.39040  0.98178  1.0000
  H   H1622     1.0  0.51112  0.09254  0.27801  1.0000
  C   C1626     1.0  0.50686  0.03192  0.46015  1.0000
  H   H1623     1.0  0.45954  0.08004  0.28995  1.0000
  C   C1627     1.0  0.50174  0.41391  0.06665  1.0000
  C   C1628     1.0  0.41226  0.42515  0.98202  1.0000
  H   H1624     1.0  0.49374  0.98566  0.30670  1.0000
  H   H1625     1.0  0.57895  0.05522  0.25911  1.0000
  H   H1626     1.0  0.47806  0.99660  0.25873  1.0000
  C   C1629     1.0  0.47094  0.07663  0.26657  1.0000
  H   H1627     1.0  0.50877  0.41800  0.04138  1.0000
  C   C1630     1.0  0.43227  0.99513  0.24240  1.0000
  H   H1628     1.0  0.42440  0.47836  0.00820  1.0000
  Fe  Fe285     1.0  0.58154  0.34100  0.06434  1.0000
  H   H1629     1.0  0.55833  0.30091  0.02579  1.0000
  C   C1631     1.0  0.56878  0.30438  0.02605  1.0000
  H   H1630     1.0  0.51049  0.05534  0.45554  1.0000
  N   N132      1.0  0.49248  0.09254  0.26815  1.0000
  C   C1632     1.0  0.57386  0.03883  0.31450  1.0000
  H   H1631     1.0  0.57251  0.11172  0.30014  1.0000
  C   C1633     1.0  0.43666  0.47176  0.06681  1.0000
  S   S569      1.0  0.42919  0.41248  0.03345  1.0000
  H   H1632     1.0  0.56406  0.08332  0.46830  1.0000
  H   H1633     1.0  0.54809  0.99484  0.32068  1.0000
  C   C1634     1.0  0.48360  0.07907  0.25396  1.0000
  C   C1635     1.0  0.55479  0.33955  0.98327  1.0000
  H   H1634     1.0  0.57508  0.31879  0.10138  1.0000
  H   H1635     1.0  0.57472  0.30083  0.12778  1.0000
  H   H1636     1.0  0.57187  0.00373  0.40826  1.0000
  H   H1637     1.0  0.42050  0.44575  0.98025  1.0000
  H   H1638     1.0  0.49817  0.11157  0.27329  1.0000
  C   C1636     1.0  0.45806  0.99675  0.29689  1.0000
  H   H1639     1.0  0.45383  0.35969  0.05512  1.0000
  C   C1637     1.0  0.48218  0.02748  0.47738  1.0000
  S   S570      1.0  0.40354  0.39792  0.98496  1.0000
  C   C1638     1.0  0.58485  0.04829  0.30813  1.0000
  H   H1640     1.0  0.47891  0.09405  0.29122  1.0000
  Fe  Fe286     1.0  0.41690  0.41033  0.05873  1.0000
  C   C1639     1.0  0.57209  0.35054  0.99771  1.0000
  H   H1641     1.0  0.58032  0.07763  0.44263  1.0000
  H   H1642     1.0  0.46468  0.42101  0.10194  1.0000
  H   H1643     1.0  0.58935  0.05241  0.31581  1.0000
  H   H1644     1.0  0.45805  0.44034  0.09059  1.0000
  C   C1640     1.0  0.54510  0.07705  0.26279  1.0000
  C   C1641     1.0  0.55481  0.08643  0.25157  1.0000
  C   C1642     1.0  0.56584  0.09172  0.25598  1.0000
  C   C1643     1.0  0.56703  0.08783  0.27171  1.0000
  C   C1644     1.0  0.55697  0.07884  0.28299  1.0000
  C   C1645     1.0  0.54616  0.07332  0.27854  1.0000
  H   H1645     1.0  0.55400  0.08940  0.23936  1.0000
  H   H1646     1.0  0.57355  0.09863  0.24721  1.0000
  H   H1647     1.0  0.55776  0.07584  0.29521  1.0000
  H   H1648     1.0  0.53866  0.06619  0.28729  1.0000
  H   H1649     1.0  0.49118  0.41110  0.09124  1.0000
  H   H1650     1.0  0.51311  0.40668  0.06852  1.0000
  C   C1646     1.0  0.54444  0.05624  0.34439  1.0000
  C   C1647     1.0  0.53760  0.06143  0.33123  1.0000
  C   C1648     1.0  0.53163  0.05113  0.32656  1.0000
  C   C1649     1.0  0.53227  0.03569  0.33522  1.0000
  C   C1650     1.0  0.53904  0.03053  0.34840  1.0000
  C   C1651     1.0  0.54522  0.04075  0.35293  1.0000
  H   H1651     1.0  0.53701  0.07341  0.32457  1.0000
  H   H1652     1.0  0.52644  0.05517  0.31637  1.0000
  H   H1653     1.0  0.53957  0.01857  0.35511  1.0000
  H   H1654     1.0  0.55038  0.03669  0.36312  1.0000
  C   C1652     1.0  0.46914  0.08225  0.27994  1.0000
  C   C1653     1.0  0.43259  0.03137  0.27317  1.0000
  C   C1654     1.0  0.42583  0.03724  0.28680  1.0000
  C   C1655     1.0  0.43524  0.04174  0.29407  1.0000
  C   C1656     1.0  0.45147  0.04023  0.28789  1.0000
  C   C1657     1.0  0.45828  0.03425  0.27432  1.0000
  C   C1658     1.0  0.44884  0.02990  0.26695  1.0000
  H   H1655     1.0  0.41334  0.03840  0.29168  1.0000
  H   H1656     1.0  0.42990  0.04636  0.30457  1.0000
  H   H1657     1.0  0.47078  0.03299  0.26947  1.0000
  H   H1658     1.0  0.45417  0.02531  0.25643  1.0000
  C   C1659     1.0  0.56833  0.10198  0.33982  1.0000
  H   H1659     1.0  0.56529  0.29807  0.05135  1.0000
  H   H1660     1.0  0.56992  0.03548  0.32713  1.0000
  C   C1660     1.0  0.49994  0.99608  0.26419  1.0000
  C   C1661     1.0  0.49931  0.42025  0.05141  1.0000
  H   H1661     1.0  0.58902  0.98911  0.41300  1.0000
  N   N133      1.0  0.58063  0.04042  0.46363  1.0000
  S   S571      1.0  0.58403  0.35580  0.00679  1.0000
  H   H1662     1.0  0.58485  0.02139  0.35095  1.0000
  H   H1663     1.0  0.56138  0.09602  0.35041  1.0000
  H   H1664     1.0  0.51248  0.10315  0.25802  1.0000
  C   C1662     1.0  0.42589  0.37404  0.03493  1.0000
  H   H1665     1.0  0.48234  0.43346  0.03734  1.0000
  C   C1663     1.0  0.56556  0.10304  0.32513  1.0000
  C   C1664     1.0  0.54206  0.98639  0.31988  1.0000
  C   C1665     1.0  0.47084  0.99776  0.30208  1.0000
  H   H1666     1.0  0.48531  0.07444  0.24364  1.0000
  H   H1667     1.0  0.45933  0.38901  0.00228  1.0000
  C   C1666     1.0  0.48014  0.09014  0.28059  1.0000
  C   C1667     1.0  0.46162  0.42761  0.09051  1.0000
  C   C1668     1.0  0.57209  0.04343  0.47791  1.0000
  C   C1669     1.0  0.54881  0.34169  0.99873  1.0000
  C   C1670     1.0  0.55746  0.34720  0.00596  1.0000
  C   C1671     1.0  0.58640  0.11716  0.31302  1.0000
  C   C1672     1.0  0.57834  0.31060  0.01205  1.0000
  C   C1673     1.0  0.40416  0.41378  0.99195  1.0000
  H   H1668     1.0  0.53760  0.33889  0.00518  1.0000
  H   H1669     1.0  0.55294  0.34859  0.01798  1.0000
  C   C1674     1.0  0.39727  0.41476  0.00759  1.0000
  C   C1675     1.0  0.57822  0.06809  0.45270  1.0000
  H   H1670     1.0  0.56914  0.00855  0.34184  1.0000
  C   C1676     1.0  0.48776  0.39285  0.04179  1.0000
  C   C1677     1.0  0.50374  0.38869  0.03471  1.0000
  C   C1678     1.0  0.51493  0.38073  0.04394  1.0000
  C   C1679     1.0  0.51015  0.37671  0.06031  1.0000
  C   C1680     1.0  0.49410  0.38046  0.06736  1.0000
  C   C1681     1.0  0.48294  0.38860  0.05814  1.0000
  H   H1671     1.0  0.50755  0.39187  0.02206  1.0000
  H   H1672     1.0  0.52724  0.37778  0.03839  1.0000
  H   H1673     1.0  0.49034  0.37730  0.08001  1.0000
  H   H1674     1.0  0.47066  0.39164  0.06372  1.0000
  C   C1682     1.0  0.58661  0.02414  0.46177  1.0000
  C   C1683     1.0  0.56786  0.03384  0.30456  1.0000
  H   H1675     1.0  0.44021  0.99468  0.27944  1.0000
  C   C1684     1.0  0.40723  0.43813  0.00343  1.0000
  Fe  Fe287     1.0  0.51851  0.01732  0.27910  1.0000
  H   H1676     1.0  0.46272  0.07008  0.26616  1.0000
  H   H1677     1.0  0.55918  0.02659  0.30948  1.0000
  Fe  Fe288     1.0  0.42026  0.43828  0.03159  1.0000
  C   C1685     1.0  0.39890  0.42692  0.01335  1.0000
  N   N134      1.0  0.47472  0.42490  0.07712  1.0000
  Fe  Fe289     1.0  0.57486  0.35791  0.03197  1.0000
  S   S572      1.0  0.40642  0.43624  0.05637  1.0000
  Fe  Fe290     1.0  0.42900  0.43807  0.06104  1.0000
  S   S573      1.0  0.43817  0.41179  0.06632  1.0000
  C   C1686     1.0  0.53791  0.06285  0.45981  1.0000
  C   C1687     1.0  0.54316  0.07134  0.44460  1.0000
  C   C1688     1.0  0.55272  0.06348  0.43276  1.0000
  C   C1689     1.0  0.55703  0.04708  0.43613  1.0000
  C   C1690     1.0  0.55113  0.03860  0.45112  1.0000
  H   H1678     1.0  0.43298  0.36101  0.06217  1.0000
  H   H1679     1.0  0.54022  0.08405  0.44210  1.0000
  H   H1680     1.0  0.55721  0.07010  0.42123  1.0000
  H   H1681     1.0  0.58250  0.10725  0.35226  1.0000
  C   C1691     1.0  0.58597  0.30775  0.04044  1.0000
  C   C1692     1.0  0.48922  0.41633  0.07946  1.0000
  H   H1682     1.0  0.46076  0.43787  0.06043  1.0000
  C   C1693     1.0  0.44690  0.47336  0.05203  1.0000
  C   C1694     1.0  0.43566  0.38545  0.00772  1.0000
  C   C1695     1.0  0.48938  0.98946  0.26063  1.0000
  H   H1683     1.0  0.41619  0.37055  0.04419  1.0000
  H   H1684     1.0  0.45058  0.46398  0.04583  1.0000
  H   H1685     1.0  0.57616  0.39024  0.99006  1.0000
  C   C1696     1.0  0.52919  0.98430  0.34787  1.0000
  C   C1697     1.0  0.50408  0.10039  0.26943  1.0000
  S   S574      1.0  0.42951  0.45434  0.07584  1.0000
  H   H1686     1.0  0.46309  0.37756  0.02943  1.0000
  H   H1687     1.0  0.44093  0.37784  0.05947  1.0000
  H   H1688     1.0  0.47789  0.07689  0.46389  1.0000
  C   C1698     1.0  0.49665  0.02182  0.46814  1.0000
  C   C1699     1.0  0.44209  0.36753  0.05454  1.0000
  Fe  Fe291     1.0  0.57887  0.37663  0.05328  1.0000
  S   S575      1.0  0.58168  0.09275  0.27769  1.0000
  H   H1689     1.0  0.45128  0.42388  0.08952  1.0000
  H   H1690     1.0  0.49680  0.00829  0.26491  1.0000
  C   C1700     1.0  0.45002  0.38438  0.01125  1.0000
  C   C1701     1.0  0.41829  0.98978  0.24809  1.0000
  C   C1702     1.0  0.49431  0.08711  0.25494  1.0000
  C   C1703     1.0  0.42354  0.38016  0.01960  1.0000
  H   H1691     1.0  0.47875  0.36606  0.98152  1.0000
  C   C1704     1.0  0.50247  0.04757  0.46167  1.0000
  C   C1705     1.0  0.58461  0.29871  0.11812  1.0000
  H   H1692     1.0  0.55282  0.98721  0.29527  1.0000
  C   C1706     1.0  0.57297  0.03846  0.28827  1.0000
  C   C1707     1.0  0.58479  0.30888  0.10320  1.0000
  C   C1708     1.0  0.57459  0.11076  0.31163  1.0000
  H   H1693     1.0  0.47100  0.00858  0.30492  1.0000
  C   C1709     1.0  0.57942  0.00165  0.34628  1.0000
  H   H1694     1.0  0.53796  0.99083  0.34781  1.0000
  H   H1695     1.0  0.58885  0.30656  0.05162  1.0000
  N   N135      1.0  0.48844  0.05289  0.47114  1.0000
  C   C1710     1.0  0.47818  0.04319  0.47864  1.0000
  N   N136      1.0  0.58371  0.04783  0.28209  1.0000
  H   H1696     1.0  0.58760  0.02334  0.44948  1.0000
  H   H1697     1.0  0.43374  0.39071  0.99591  1.0000
  H   H1698     1.0  0.53765  0.03978  0.47460  1.0000
  C   C1711     1.0  0.57789  0.34870  0.98217  1.0000
  C   C1712     1.0  0.58359  0.98543  0.34713  1.0000
  S   S576      1.0  0.40563  0.38909  0.06896  1.0000
  H   H1699     1.0  0.57229  0.99244  0.37936  1.0000
  N   N137      1.0  0.58910  0.11595  0.32748  1.0000
  H   H1700     1.0  0.41032  0.47935  0.98259  1.0000
  C   C1713     1.0  0.58827  0.00889  0.35147  1.0000
  C   C1714     1.0  0.58981  0.05258  0.29178  1.0000
  H   H1701     1.0  0.41806  0.47643  0.03711  1.0000
  H   H1702     1.0  0.39383  0.42753  0.02552  1.0000
  H   H1703     1.0  0.57844  0.01655  0.46943  1.0000
  H   H1704     1.0  0.45758  0.98832  0.23589  1.0000
  H   H1705     1.0  0.39182  0.36273  0.07339  1.0000
  H   H1706     1.0  0.49494  0.07345  0.47214  1.0000
  H   H1707     1.0  0.58873  0.99850  0.39300  1.0000
  H   H1708     1.0  0.59051  0.05010  0.43979  1.0000
  Fe  Fe292     1.0  0.52026  0.02539  0.51820  1.0000
  S   S577      1.0  0.50049  0.03236  0.53783  1.0000
  S   S578      1.0  0.53327  0.00098  0.51671  1.0000
  Fe  Fe293     1.0  0.51891  0.05814  0.49870  1.0000
  S   S579      1.0  0.49938  0.06830  0.51694  1.0000
  Fe  Fe294     1.0  0.51292  0.05175  0.53464  1.0000
  S   S580      1.0  0.51374  0.05738  0.55723  1.0000
  Fe  Fe295     1.0  0.48858  0.04819  0.51863  1.0000
  S   S581      1.0  0.46282  0.05493  0.51731  1.0000
  S   S582      1.0  0.53358  0.04352  0.51616  1.0000
  S   S583      1.0  0.50732  0.03921  0.49929  1.0000
  Fe  Fe296     1.0  0.43097  0.42334  0.93098  1.0000
  S   S584      1.0  0.44075  0.40523  0.95049  1.0000
  S   S585      1.0  0.41900  0.06951  0.72571  1.0000
  Fe  Fe297     1.0  0.41102  0.40246  0.92782  1.0000
  S   S586      1.0  0.41918  0.38280  0.94688  1.0000
  H   H1709     1.0  0.39853  0.03893  0.58152  1.0000
  Fe  Fe298     1.0  0.41608  0.40150  0.95969  1.0000
  H   H1710     1.0  0.46971  0.02085  0.52105  1.0000
  Fe  Fe299     1.0  0.44330  0.38783  0.93600  1.0000
  S   S587      1.0  0.46260  0.36591  0.93843  1.0000
  S   S588      1.0  0.40602  0.42099  0.94160  1.0000
  S   S589      1.0  0.43544  0.40611  0.91549  1.0000
  Fe  Fe300     1.0  0.55190  0.34152  0.91672  1.0000
  S   S590      1.0  0.54658  0.32053  0.93553  1.0000
  S   S591      1.0  0.53425  0.35736  0.90258  1.0000
  Fe  Fe301     1.0  0.39504  0.06382  0.73565  1.0000
  H   H1711     1.0  0.50551  0.39682  0.92462  1.0000
  C   C1715     1.0  0.54374  0.29230  0.90928  1.0000
  Fe  Fe302     1.0  0.57138  0.30879  0.92620  1.0000
  S   S592      1.0  0.57795  0.28329  0.92497  1.0000
  S   S593      1.0  0.57606  0.32895  0.90606  1.0000
  C   C1716     1.0  0.45796  0.02563  0.51894  1.0000
  C   C1717     1.0  0.41191  0.03168  0.55337  1.0000
  H   H1712     1.0  0.58796  0.40243  0.97449  1.0000
  Fe  Fe303     1.0  0.57543  0.05097  0.60499  1.0000
  H   H1713     1.0  0.57214  0.10587  0.57583  1.0000
  S   S594      1.0  0.57554  0.05444  0.57921  1.0000
  Fe  Fe304     1.0  0.55819  0.04515  0.63929  1.0000
  S   S595      1.0  0.57987  0.04061  0.64848  1.0000
  S   S596      1.0  0.53591  0.04240  0.65713  1.0000
  C   C1718     1.0  0.53674  0.01883  0.57884  1.0000
  H   H1714     1.0  0.41583  0.04270  0.51104  1.0000
  C   C1719     1.0  0.58981  0.17739  0.83386  1.0000
  H   H1715     1.0  0.58571  0.38820  0.94143  1.0000
  S   S597      1.0  0.56254  0.06709  0.62150  1.0000
  S   S598      1.0  0.56889  0.02955  0.62214  1.0000
  Fe  Fe305     1.0  0.51789  0.06820  0.76444  1.0000
  S   S599      1.0  0.53055  0.05436  0.74595  1.0000
  S   S600      1.0  0.53002  0.07114  0.78175  1.0000
  Fe  Fe306     1.0  0.48599  0.07293  0.75668  1.0000
  S   S601      1.0  0.49588  0.05981  0.73726  1.0000
  S   S602      1.0  0.46007  0.08143  0.76588  1.0000
  Fe  Fe307     1.0  0.51010  0.04266  0.75378  1.0000
  S   S603      1.0  0.51305  0.01656  0.75859  1.0000
  Fe  Fe308     1.0  0.51550  0.07270  0.73086  1.0000
  S   S604      1.0  0.52828  0.08257  0.70660  1.0000
  S   S605      1.0  0.49875  0.05465  0.77380  1.0000
  S   S606      1.0  0.50426  0.08762  0.74881  1.0000
  H   H1716     1.0  0.46694  0.04750  0.48588  1.0000
  S   S607      1.0  0.51120  0.98699  0.70410  1.0000
  C   C1720     1.0  0.46485  0.00816  0.73512  1.0000
  C   C1721     1.0  0.56277  0.99095  0.64843  1.0000
  N   N138      1.0  0.45719  0.02273  0.73789  1.0000
  H   H1717     1.0  0.50420  0.13504  0.76941  1.0000
  C   C1722     1.0  0.56926  0.34322  0.97496  1.0000
  H   H1718     1.0  0.54090  0.29577  0.92043  1.0000
  N   N139      1.0  0.58986  0.08916  0.58639  1.0000
  C   C1723     1.0  0.56810  0.09569  0.70038  1.0000
  H   H1719     1.0  0.56386  0.00339  0.59700  1.0000
  C   C1724     1.0  0.43783  0.46614  0.95580  1.0000
  H   H1720     1.0  0.47733  0.35681  0.96675  1.0000
  C   C1725     1.0  0.55288  0.27165  0.89480  1.0000
  H   H1721     1.0  0.41292  0.06945  0.75907  1.0000
  C   C1726     1.0  0.58843  0.26132  0.90704  1.0000
  H   H1722     1.0  0.39700  0.05366  0.53297  1.0000
  S   S608      1.0  0.58080  0.15814  0.82093  1.0000
  Fe  Fe309     1.0  0.57548  0.13293  0.77926  1.0000
  H   H1723     1.0  0.55094  0.02233  0.59844  1.0000
  S   S609      1.0  0.55544  0.13276  0.76898  1.0000
  H   H1724     1.0  0.47500  0.10297  0.77471  1.0000
  C   C1727     1.0  0.50375  0.98419  0.49411  1.0000
  H   H1725     1.0  0.46791  0.37697  0.96655  1.0000
  H   H1726     1.0  0.56841  0.08628  0.58326  1.0000
  S   S610      1.0  0.58030  0.12237  0.80353  1.0000
  S   S611      1.0  0.58007  0.15635  0.77833  1.0000
  H   H1727     1.0  0.57394  0.34165  0.96302  1.0000
  H   H1728     1.0  0.43796  0.46218  0.96818  1.0000
  H   H1729     1.0  0.53144  0.38185  0.93051  1.0000
  H   H1730     1.0  0.56955  0.02129  0.58494  1.0000
  H   H1731     1.0  0.43792  0.48021  0.91142  1.0000
  C   C1728     1.0  0.51224  0.98606  0.73414  1.0000
  C   C1729     1.0  0.39485  0.37099  0.92215  1.0000
  C   C1730     1.0  0.52929  0.98514  0.49697  1.0000
  C   C1731     1.0  0.43731  0.46052  0.93126  1.0000
  C   C1732     1.0  0.52122  0.36748  0.95214  1.0000
  H   H1732     1.0  0.58078  0.11874  0.71605  1.0000
  H   H1733     1.0  0.47672  0.07015  0.48486  1.0000
  H   H1734     1.0  0.39844  0.34638  0.92260  1.0000
  H   H1735     1.0  0.55566  0.01200  0.65745  1.0000
  N   N140      1.0  0.49300  0.37226  0.95875  1.0000
  C   C1733     1.0  0.58084  0.11140  0.70837  1.0000
  H   H1736     1.0  0.57414  0.99333  0.64181  1.0000
  N   N141      1.0  0.58108  0.09254  0.68874  1.0000
  S   S612      1.0  0.42215  0.00873  0.51566  1.0000
  C   C1734     1.0  0.50004  0.12436  0.77557  1.0000
  H   H1737     1.0  0.53236  0.32707  0.88657  1.0000
  N   N142      1.0  0.54334  0.30337  0.89554  1.0000
  C   C1735     1.0  0.50610  0.38780  0.93531  1.0000
  H   H1738     1.0  0.51355  0.98537  0.75768  1.0000
  H   H1739     1.0  0.47419  0.01968  0.48371  1.0000
  S   S613      1.0  0.58132  0.31597  0.94255  1.0000
  H   H1740     1.0  0.48376  0.99720  0.50791  1.0000
  H   H1741     1.0  0.40953  0.39173  0.88315  1.0000
  C   C1736     1.0  0.49231  0.38410  0.94559  1.0000
  C   C1737     1.0  0.48378  0.10617  0.77861  1.0000
  S   S614      1.0  0.59035  0.08205  0.63572  1.0000
  H   H1742     1.0  0.57810  0.17850  0.84127  1.0000
  H   H1743     1.0  0.50707  0.09236  0.80473  1.0000
  H   H1744     1.0  0.42309  0.03579  0.54793  1.0000
  H   H1745     1.0  0.45356  0.00309  0.52010  1.0000
  C   C1738     1.0  0.53768  0.99844  0.66553  1.0000
  H   H1746     1.0  0.44652  0.98557  0.49853  1.0000
  H   H1747     1.0  0.52909  0.02393  0.58851  1.0000
  H   H1748     1.0  0.48368  0.12777  0.76094  1.0000
  C   C1739     1.0  0.53876  0.08744  0.77690  1.0000
  C   C1740     1.0  0.54711  0.08892  0.78715  1.0000
  C   C1741     1.0  0.55294  0.10250  0.78442  1.0000
  C   C1742     1.0  0.55015  0.11480  0.77158  1.0000
  C   C1743     1.0  0.54204  0.11322  0.76116  1.0000
  C   C1744     1.0  0.53653  0.09948  0.76369  1.0000
  H   H1749     1.0  0.54888  0.07963  0.79738  1.0000
  H   H1750     1.0  0.55913  0.10366  0.79253  1.0000
  H   H1751     1.0  0.53983  0.12273  0.75122  1.0000
  H   H1752     1.0  0.53009  0.09845  0.75574  1.0000
  H   H1753     1.0  0.40687  0.37020  0.92259  1.0000
  H   H1754     1.0  0.57334  0.20555  0.80664  1.0000
  Fe  Fe310     1.0  0.58443  0.33704  0.92300  1.0000
  C   C1745     1.0  0.55165  0.00023  0.74532  1.0000
  C   C1746     1.0  0.39357  0.04713  0.57199  1.0000
  C   C1747     1.0  0.45642  0.99760  0.73451  1.0000
  C   C1748     1.0  0.43788  0.47624  0.92384  1.0000
  H   H1755     1.0  0.43513  0.03902  0.74140  1.0000
  C   C1749     1.0  0.53298  0.05432  0.67039  1.0000
  C   C1750     1.0  0.52171  0.05245  0.68448  1.0000
  C   C1751     1.0  0.52011  0.06118  0.69561  1.0000
  C   C1752     1.0  0.52954  0.07203  0.69256  1.0000
  C   C1753     1.0  0.54051  0.07419  0.67829  1.0000
  C   C1754     1.0  0.54237  0.06521  0.66730  1.0000
  H   H1756     1.0  0.51436  0.04412  0.68686  1.0000
  H   H1757     1.0  0.51148  0.05959  0.70645  1.0000
  H   H1758     1.0  0.54762  0.08275  0.67572  1.0000
  H   H1759     1.0  0.55099  0.06685  0.65638  1.0000
  C   C1755     1.0  0.51096  0.99549  0.71930  1.0000
  H   H1760     1.0  0.40386  0.48181  0.92935  1.0000
  C   C1756     1.0  0.51245  0.99276  0.74622  1.0000
  C   C1757     1.0  0.51155  0.00889  0.74348  1.0000
  C   C1758     1.0  0.51025  0.01839  0.72863  1.0000
  C   C1759     1.0  0.50987  0.01169  0.71655  1.0000
  H   H1761     1.0  0.41358  0.02240  0.56408  1.0000
  H   H1762     1.0  0.55695  0.27948  0.86961  1.0000
  H   H1763     1.0  0.50986  0.03080  0.72632  1.0000
  H   H1764     1.0  0.50897  0.01899  0.70503  1.0000
  C   C1760     1.0  0.53014  0.01764  0.56708  1.0000
  C   C1761     1.0  0.43000  0.07275  0.73730  1.0000
  H   H1765     1.0  0.58420  0.36686  0.93030  1.0000
  H   H1766     1.0  0.49986  0.00654  0.52006  1.0000
  N   N143      1.0  0.55263  0.01414  0.57785  1.0000
  C   C1762     1.0  0.55951  0.01532  0.59022  1.0000
  C   C1763     1.0  0.39397  0.01031  0.70504  1.0000
  C   C1764     1.0  0.56224  0.00798  0.56546  1.0000
  H   H1767     1.0  0.42909  0.07457  0.77462  1.0000
  H   H1768     1.0  0.53119  0.32225  0.90724  1.0000
  C   C1765     1.0  0.44498  0.07580  0.73009  1.0000
  C   C1766     1.0  0.45423  0.07835  0.73886  1.0000
  H   H1769     1.0  0.54919  0.26759  0.92000  1.0000
  H   H1770     1.0  0.44942  0.07631  0.71762  1.0000
  H   H1771     1.0  0.46563  0.08101  0.73308  1.0000
  C   C1767     1.0  0.58451  0.27740  0.90688  1.0000
  C   C1768     1.0  0.58513  0.28831  0.89249  1.0000
  N   N144      1.0  0.39902  0.04497  0.55690  1.0000
  H   H1772     1.0  0.54676  0.02201  0.68549  1.0000
  H   H1773     1.0  0.52936  0.00670  0.67220  1.0000
  H   H1774     1.0  0.58920  0.35129  0.97573  1.0000
  H   H1775     1.0  0.54399  0.99169  0.75154  1.0000
  N   N145      1.0  0.39546  0.47837  0.96876  1.0000
  C   C1769     1.0  0.48548  0.08152  0.79869  1.0000
  H   H1776     1.0  0.47797  0.07871  0.79243  1.0000
  C   C1770     1.0  0.55238  0.00145  0.65723  1.0000
  H   H1777     1.0  0.47874  0.08216  0.81082  1.0000
  C   C1771     1.0  0.42431  0.07214  0.75341  1.0000
  H   H1778     1.0  0.45902  0.04247  0.74534  1.0000
  H   H1779     1.0  0.54632  0.99402  0.69842  1.0000
  Fe  Fe311     1.0  0.39628  0.01707  0.51509  1.0000
  C   C1772     1.0  0.41258  0.98664  0.69967  1.0000
  C   C1773     1.0  0.46626  0.03371  0.73824  1.0000
  C   C1774     1.0  0.48220  0.36377  0.92765  1.0000
  C   C1775     1.0  0.48706  0.37468  0.91405  1.0000
  C   C1776     1.0  0.50304  0.37254  0.90624  1.0000
  C   C1777     1.0  0.51421  0.35975  0.91224  1.0000
  C   C1778     1.0  0.50927  0.34898  0.92587  1.0000
  C   C1779     1.0  0.49333  0.35085  0.93339  1.0000
  H   H1780     1.0  0.47853  0.38467  0.90952  1.0000
  H   H1781     1.0  0.50677  0.38091  0.89565  1.0000
  H   H1782     1.0  0.51764  0.33907  0.93059  1.0000
  H   H1783     1.0  0.48965  0.34231  0.94384  1.0000
  C   C1780     1.0  0.45180  0.04180  0.51693  1.0000
  C   C1781     1.0  0.43656  0.04788  0.51411  1.0000
  H   H1784     1.0  0.43182  0.06042  0.51233  1.0000
  C   C1782     1.0  0.55832  0.05506  0.57329  1.0000
  C   C1783     1.0  0.55948  0.05334  0.55805  1.0000
  C   C1784     1.0  0.54595  0.05394  0.55294  1.0000
  C   C1785     1.0  0.53113  0.05654  0.56299  1.0000
  C   C1786     1.0  0.53001  0.05818  0.57825  1.0000
  C   C1787     1.0  0.54355  0.05731  0.58344  1.0000
  H   H1785     1.0  0.57089  0.05155  0.55015  1.0000
  H   H1786     1.0  0.54694  0.05261  0.54120  1.0000
  H   H1787     1.0  0.51857  0.06017  0.58610  1.0000
  H   H1788     1.0  0.54250  0.05866  0.59521  1.0000
  C   C1788     1.0  0.39942  0.47726  0.94173  1.0000
  C   C1789     1.0  0.47854  0.36784  0.96896  1.0000
  C   C1790     1.0  0.50556  0.99919  0.51163  1.0000
  C   C1791     1.0  0.54836  0.27629  0.90912  1.0000
  C   C1792     1.0  0.57330  0.09526  0.58548  1.0000
  C   C1793     1.0  0.44852  0.07802  0.75491  1.0000
  C   C1794     1.0  0.43744  0.45548  0.94727  1.0000
  H   H1789     1.0  0.43720  0.44338  0.95306  1.0000
  H   H1790     1.0  0.56595  0.09830  0.59672  1.0000
  C   C1795     1.0  0.40195  0.37123  0.88298  1.0000
  H   H1791     1.0  0.49600  0.07169  0.79923  1.0000
  H   H1792     1.0  0.41967  0.02068  0.74075  1.0000
  H   H1793     1.0  0.47652  0.02740  0.74369  1.0000
  H   H1794     1.0  0.50789  0.35434  0.97230  1.0000
  H   H1795     1.0  0.56935  0.03389  0.48776  1.0000
  Fe  Fe312     1.0  0.58743  0.14498  0.80131  1.0000
  C   C1796     1.0  0.54796  0.29892  0.88141  1.0000
  H   H1796     1.0  0.41315  0.36329  0.88421  1.0000
  C   C1797     1.0  0.48860  0.12025  0.77079  1.0000
  H   H1797     1.0  0.47757  0.00460  0.73340  1.0000
  H   H1798     1.0  0.51566  0.11731  0.79160  1.0000
  H   H1799     1.0  0.43342  0.99387  0.73639  1.0000
  C   C1798     1.0  0.54933  0.02751  0.70615  1.0000
  C   C1799     1.0  0.43349  0.07497  0.76217  1.0000
  H   H1800     1.0  0.39518  0.08708  0.77799  1.0000
  H   H1801     1.0  0.55716  0.25931  0.89445  1.0000
  H   H1802     1.0  0.47055  0.04011  0.72610  1.0000
  H   H1803     1.0  0.54965  0.32470  0.89390  1.0000
  C   C1800     1.0  0.58508  0.19199  0.78898  1.0000
  H   H1804     1.0  0.51759  0.02190  0.56766  1.0000
  H   H1805     1.0  0.58959  0.29151  0.86725  1.0000
  H   H1806     1.0  0.58785  0.25284  0.91814  1.0000
  C   C1801     1.0  0.43239  0.01704  0.73917  1.0000
  C   C1802     1.0  0.52198  0.99457  0.50792  1.0000
  Fe  Fe313     1.0  0.55698  0.32986  0.94986  1.0000
  H   H1807     1.0  0.54829  0.30770  0.87049  1.0000
  H   H1808     1.0  0.57632  0.09069  0.66775  1.0000
  C   C1803     1.0  0.53985  0.01146  0.55436  1.0000
  C   C1804     1.0  0.50642  0.11444  0.78809  1.0000
  N   N146      1.0  0.55012  0.00630  0.72892  1.0000
  H   H1809     1.0  0.48106  0.39037  0.94265  1.0000
  C   C1805     1.0  0.54902  0.99634  0.72055  1.0000
  S   S615      1.0  0.54443  0.33174  0.97464  1.0000
  H   H1810     1.0  0.58204  0.30074  0.89225  1.0000
  C   C1806     1.0  0.58408  0.20248  0.79811  1.0000
  H   H1811     1.0  0.56369  0.00166  0.54373  1.0000
  C   C1807     1.0  0.50150  0.10036  0.79549  1.0000
  H   H1812     1.0  0.55783  0.09098  0.70194  1.0000
  H   H1813     1.0  0.57359  0.07422  0.68405  1.0000
  C   C1808     1.0  0.55601  0.00652  0.55355  1.0000
  C   C1809     1.0  0.56784  0.10503  0.71046  1.0000
  C   C1810     1.0  0.40910  0.00083  0.70439  1.0000
  C   C1811     1.0  0.43775  0.48197  0.94854  1.0000
  H   H1814     1.0  0.40944  0.02609  0.54508  1.0000
  H   H1815     1.0  0.53487  0.01062  0.54510  1.0000
  C   C1812     1.0  0.53895  0.32011  0.89583  1.0000
  C   C1813     1.0  0.55042  0.02167  0.72189  1.0000
  S   S616      1.0  0.43578  0.44783  0.92028  1.0000
  C   C1814     1.0  0.58937  0.28307  0.87836  1.0000
  C   C1815     1.0  0.50723  0.36393  0.96205  1.0000
  C   C1816     1.0  0.42747  0.03789  0.51342  1.0000
  C   C1817     1.0  0.55273  0.28301  0.88083  1.0000
  S   S617      1.0  0.56080  0.35165  0.93162  1.0000
  C   C1818     1.0  0.44119  0.02733  0.73962  1.0000
  H   H1816     1.0  0.39131  0.02126  0.70884  1.0000
  H   H1817     1.0  0.54933  0.03977  0.70067  1.0000
  H   H1818     1.0  0.41749  0.42457  0.96991  1.0000
  H   H1819     1.0  0.55876  0.06133  0.49092  1.0000
  C   C1819     1.0  0.43350  0.02170  0.51572  1.0000
  Fe  Fe314     1.0  0.58524  0.06160  0.62961  1.0000
  C   C1820     1.0  0.44008  0.00204  0.73668  1.0000
  C   C1821     1.0  0.54785  0.00180  0.70480  1.0000
  N   N147      1.0  0.49040  0.09635  0.79065  1.0000
  H   H1820     1.0  0.53243  0.36086  0.95488  1.0000
  C   C1822     1.0  0.44881  0.01561  0.51836  1.0000
  C   C1823     1.0  0.54797  0.01751  0.69760  1.0000
  C   C1824     1.0  0.49645  0.99396  0.50474  1.0000
  H   H1821     1.0  0.54768  0.00979  0.75194  1.0000
  C   C1825     1.0  0.52064  0.37936  0.93859  1.0000
  H   H1822     1.0  0.58820  0.10120  0.60416  1.0000
  H   H1823     1.0  0.55131  0.02957  0.72849  1.0000
  H   H1824     1.0  0.55758  0.10735  0.71980  1.0000
  H   H1825     1.0  0.57482  0.00420  0.56474  1.0000
  H   H1826     1.0  0.54855  0.98421  0.72618  1.0000
  H   H1827     1.0  0.41801  0.00443  0.70763  1.0000
  H   H1828     1.0  0.56405  0.99444  0.74581  1.0000
  H   H1829     1.0  0.46250  0.98602  0.73237  1.0000
  H   H1830     1.0  0.57511  0.18691  0.79038  1.0000
  C   C1826     1.0  0.39382  0.46346  0.94646  1.0000
  C   C1827     1.0  0.58100  0.08302  0.67807  1.0000
  H   H1831     1.0  0.58899  0.38246  0.97391  1.0000
  C   C1828     1.0  0.39274  0.05537  0.54492  1.0000
  C   C1829     1.0  0.39995  0.38719  0.88230  1.0000
  H   H1832     1.0  0.39388  0.45728  0.93775  1.0000
  H   H1833     1.0  0.41895  0.98456  0.50104  1.0000
  C   C1830     1.0  0.53366  0.98480  0.66502  1.0000
  C   C1831     1.0  0.56617  0.05890  0.47983  1.0000
  Fe  Fe315     1.0  0.44455  0.57385  0.03651  1.0000
  S   S618      1.0  0.46551  0.55541  0.04221  1.0000
  S   S619      1.0  0.44646  0.58894  0.01218  1.0000
  Fe  Fe316     1.0  0.42379  0.56406  0.06797  1.0000
  S   S620      1.0  0.44305  0.54447  0.07658  1.0000
  H   H1834     1.0  0.51667  0.96385  0.34208  1.0000
  Fe  Fe317     1.0  0.45827  0.56236  0.06549  1.0000
  S   S621      1.0  0.47716  0.56334  0.07701  1.0000
  Fe  Fe318     1.0  0.44877  0.53910  0.05260  1.0000
  H   H1835     1.0  0.42753  0.50392  0.98996  1.0000
  S   S622      1.0  0.43854  0.58232  0.05890  1.0000
  S   S623      1.0  0.42836  0.55713  0.04505  1.0000
  C   C1832     1.0  0.49849  0.57564  0.98237  1.0000
  Fe  Fe319     1.0  0.52587  0.62223  0.07612  1.0000
  S   S624      1.0  0.53573  0.64408  0.06928  1.0000
  S   S625      1.0  0.50140  0.62414  0.07287  1.0000
  Fe  Fe320     1.0  0.55696  0.60100  0.08274  1.0000
  S   S626      1.0  0.56949  0.62075  0.07594  1.0000
  S   S627      1.0  0.39867  0.56791  0.08177  1.0000
  Fe  Fe321     1.0  0.54751  0.63342  0.08984  1.0000
  S   S628      1.0  0.54845  0.64448  0.10916  1.0000
  Fe  Fe322     1.0  0.55678  0.62950  0.05612  1.0000
  S   S629      1.0  0.56905  0.63640  0.03098  1.0000
  S   S630      1.0  0.53557  0.61288  0.09801  1.0000
  S   S631      1.0  0.54629  0.60851  0.06163  1.0000
  H   H1836     1.0  0.48590  0.91559  0.45386  1.0000
  C   C1833     1.0  0.50404  0.58990  0.03758  1.0000
  C   C1834     1.0  0.56419  0.95816  0.41451  1.0000
  N   N148      1.0  0.53206  0.97982  0.33281  1.0000
  C   C1835     1.0  0.40790  0.86560  0.30600  1.0000
  S   S632      1.0  0.45578  0.51661  0.04367  1.0000
  C   C1836     1.0  0.56080  0.91717  0.42336  1.0000
  H   H1837     1.0  0.49772  0.58732  0.98379  1.0000
  C   C1837     1.0  0.48859  0.90403  0.45061  1.0000
  H   H1838     1.0  0.52535  0.88514  0.25917  1.0000
  H   H1839     1.0  0.54464  0.88220  0.29070  1.0000
  N   N149      1.0  0.53473  0.69055  0.09741  1.0000
  H   H1840     1.0  0.44213  0.55559  0.12376  1.0000
  Fe  Fe323     1.0  0.56657  0.92930  0.32932  1.0000
  S   S633      1.0  0.55737  0.93330  0.30751  1.0000
  Fe  Fe324     1.0  0.56172  0.92295  0.36519  1.0000
  S   S634      1.0  0.55339  0.94365  0.34709  1.0000
  H   H1841     1.0  0.41786  0.52573  0.04348  1.0000
  Fe  Fe325     1.0  0.46804  0.91206  0.27108  1.0000
  S   S635      1.0  0.47721  0.92632  0.24739  1.0000
  S   S636      1.0  0.44308  0.90920  0.28171  1.0000
  Fe  Fe326     1.0  0.49754  0.90823  0.28280  1.0000
  S   S637      1.0  0.50900  0.92232  0.26027  1.0000
  S   S638      1.0  0.50910  0.89718  0.30340  1.0000
  Fe  Fe327     1.0  0.48542  0.93870  0.26088  1.0000
  S   S639      1.0  0.47952  0.96516  0.25657  1.0000
  Fe  Fe328     1.0  0.50012  0.90860  0.24875  1.0000
  S   S640      1.0  0.51834  0.90151  0.22780  1.0000
  S   S641      1.0  0.47470  0.92574  0.28446  1.0000
  S   S642      1.0  0.49020  0.89318  0.27140  1.0000
  C   C1838     1.0  0.48301  0.97108  0.29957  1.0000
  H   H1842     1.0  0.46993  0.95989  0.29119  1.0000
  S   S643      1.0  0.50383  0.93879  0.46860  1.0000
  H   H1843     1.0  0.52709  0.67409  0.08995  1.0000
  Fe  Fe329     1.0  0.52793  0.92631  0.47277  1.0000
  C   C1839     1.0  0.44335  0.58384  0.09943  1.0000
  S   S644      1.0  0.55140  0.83108  0.22311  1.0000
  H   H1844     1.0  0.53994  0.96715  0.29354  1.0000
  H   H1845     1.0  0.47535  0.59146  0.01931  1.0000
  H   H1846     1.0  0.56983  0.91259  0.39999  1.0000
  H   H1847     1.0  0.55524  0.94999  0.39921  1.0000
  H   H1848     1.0  0.43445  0.50757  0.07394  1.0000
  C   C1840     1.0  0.56400  0.58809  0.12874  1.0000
  H   H1849     1.0  0.55085  0.88351  0.43805  1.0000
  H   H1850     1.0  0.44859  0.97465  0.27849  1.0000
  H   H1851     1.0  0.48176  0.61761  0.00625  1.0000
  H   H1852     1.0  0.40476  0.59749  0.06162  1.0000
  C   C1841     1.0  0.52975  0.88996  0.42904  1.0000
  H   H1853     1.0  0.42863  0.87022  0.26866  1.0000
  C   C1842     1.0  0.57385  0.57620  0.13725  1.0000
  H   H1854     1.0  0.50199  0.62583  0.01391  1.0000
  H   H1855     1.0  0.55885  0.71452  0.07441  1.0000
  H   H1856     1.0  0.46463  0.93975  0.47522  1.0000
  C   C1843     1.0  0.52765  0.88178  0.22728  1.0000
  C   C1844     1.0  0.54194  0.87858  0.21648  1.0000
  C   C1845     1.0  0.54953  0.86304  0.21542  1.0000
  C   C1846     1.0  0.54270  0.85061  0.22497  1.0000
  C   C1847     1.0  0.52846  0.85378  0.23588  1.0000
  C   C1848     1.0  0.52101  0.86933  0.23715  1.0000
  H   H1857     1.0  0.54710  0.88818  0.20878  1.0000
  H   H1858     1.0  0.56047  0.86072  0.20694  1.0000
  H   H1859     1.0  0.52311  0.84420  0.24328  1.0000
  H   H1860     1.0  0.50994  0.87169  0.24542  1.0000
  C   C1849     1.0  0.49333  0.97357  0.25986  1.0000
  C   C1850     1.0  0.50794  0.96443  0.26240  1.0000
  C   C1851     1.0  0.51864  0.97114  0.26553  1.0000
  H   H1861     1.0  0.52565  0.67385  0.11716  1.0000
  C   C1852     1.0  0.58293  0.75642  0.17835  1.0000
  C   C1853     1.0  0.44825  0.49954  0.05304  1.0000
  H   H1862     1.0  0.51113  0.95224  0.26178  1.0000
  H   H1863     1.0  0.53005  0.96409  0.26718  1.0000
  H   H1864     1.0  0.39953  0.57096  0.01523  1.0000
  C   C1854     1.0  0.44186  0.55642  0.11139  1.0000
  N   N150      1.0  0.50714  0.60449  0.03069  1.0000
  C   C1855     1.0  0.51342  0.89550  0.43243  1.0000
  C   C1856     1.0  0.47126  0.54918  0.98784  1.0000
  H   H1865     1.0  0.58246  0.57372  0.05532  1.0000
  N   N151      1.0  0.43468  0.57250  0.10437  1.0000
  C   C1857     1.0  0.54222  0.92438  0.30836  1.0000
  C   C1858     1.0  0.53316  0.93069  0.29692  1.0000
  C   C1859     1.0  0.52222  0.92287  0.29599  1.0000
  C   C1860     1.0  0.52059  0.90847  0.30625  1.0000
  C   C1861     1.0  0.52923  0.90242  0.31809  1.0000
  C   C1862     1.0  0.53996  0.91045  0.31925  1.0000
  H   H1866     1.0  0.53491  0.94145  0.28847  1.0000
  H   H1867     1.0  0.51544  0.92775  0.28701  1.0000
  H   H1868     1.0  0.52794  0.89131  0.32611  1.0000
  H   H1869     1.0  0.54695  0.90552  0.32810  1.0000
  C   C1863     1.0  0.39830  0.48500  0.98048  1.0000
  C   C1864     1.0  0.55948  0.91674  0.40841  1.0000
  H   H1870     1.0  0.51990  0.92968  0.41277  1.0000
  H   H1871     1.0  0.51395  0.69373  0.11513  1.0000
  H   H1872     1.0  0.47377  0.57675  0.99095  1.0000
  N   N152      1.0  0.55727  0.79891  0.17241  1.0000
  C   C1865     1.0  0.43670  0.59932  0.09288  1.0000
  C   C1866     1.0  0.44665  0.96834  0.24320  1.0000
  C   C1867     1.0  0.42324  0.51600  0.00869  1.0000
  C   C1868     1.0  0.54649  0.90191  0.25315  1.0000
  C   C1869     1.0  0.40837  0.90339  0.25669  1.0000
  C   C1870     1.0  0.42437  0.90161  0.24926  1.0000
  C   C1871     1.0  0.43522  0.90403  0.25642  1.0000
  C   C1872     1.0  0.43001  0.90815  0.27107  1.0000
  C   C1873     1.0  0.41397  0.91050  0.27814  1.0000
  C   C1874     1.0  0.40318  0.90831  0.27090  1.0000
  H   H1873     1.0  0.42845  0.89792  0.23818  1.0000
  H   H1874     1.0  0.44760  0.90219  0.25089  1.0000
  H   H1875     1.0  0.40986  0.91384  0.28940  1.0000
  N   N153      1.0  0.58285  0.60440  0.12157  1.0000
  C   C1875     1.0  0.56049  0.95892  0.40033  1.0000
  C   C1876     1.0  0.41919  0.86776  0.27874  1.0000
  H   H1876     1.0  0.52898  0.61131  0.02514  1.0000
  H   H1877     1.0  0.54076  0.80682  0.21433  1.0000
  H   H1878     1.0  0.48325  0.90560  0.44048  1.0000
  C   C1877     1.0  0.53135  0.92629  0.41567  1.0000
  H   H1879     1.0  0.40793  0.96958  0.25590  1.0000
  C   C1878     1.0  0.41628  0.56922  0.99338  1.0000
  C   C1879     1.0  0.53269  0.92681  0.43058  1.0000
  C   C1880     1.0  0.48795  0.60974  0.01510  1.0000
  H   H1880     1.0  0.41573  0.61510  0.08634  1.0000
  C   C1881     1.0  0.56068  0.65737  0.10737  1.0000
  C   C1882     1.0  0.56053  0.66236  0.12078  1.0000
  C   C1883     1.0  0.56817  0.67437  0.11953  1.0000
  C   C1884     1.0  0.42103  0.60320  0.09159  1.0000
  H   H1881     1.0  0.55724  0.92187  0.24202  1.0000
  C   C1885     1.0  0.56944  0.66372  0.09283  1.0000
  H   H1882     1.0  0.55386  0.65743  0.13211  1.0000
  C   C1886     1.0  0.43906  0.58029  0.98900  1.0000
  H   H1883     1.0  0.58260  0.54914  0.11141  1.0000
  H   H1884     1.0  0.45014  0.58272  0.98172  1.0000
  C   C1887     1.0  0.53514  0.64168  0.99986  1.0000
  C   C1888     1.0  0.56350  0.97128  0.38758  1.0000
  C   C1889     1.0  0.56182  0.63636  0.00356  1.0000
  C   C1890     1.0  0.55601  0.63878  0.01890  1.0000
  C   C1891     1.0  0.53976  0.64283  0.02463  1.0000
  C   C1892     1.0  0.52937  0.64461  0.01501  1.0000
  H   H1885     1.0  0.56974  0.65992  0.08242  1.0000
  H   H1886     1.0  0.57437  0.63327  0.99912  1.0000
  H   H1887     1.0  0.53517  0.64480  0.03643  1.0000
  H   H1888     1.0  0.51683  0.64796  0.01945  1.0000
  C   C1893     1.0  0.52715  0.96445  0.31766  1.0000
  H   H1889     1.0  0.52175  0.95544  0.31701  1.0000
  H   H1890     1.0  0.50713  0.89814  0.42311  1.0000
  H   H1891     1.0  0.52641  0.87648  0.27915  1.0000
  H   H1892     1.0  0.58424  0.77336  0.19049  1.0000
  H   H1893     1.0  0.54436  0.70755  0.10177  1.0000
  C   C1894     1.0  0.48385  0.58042  0.07530  1.0000
  C   C1895     1.0  0.49746  0.57886  0.08063  1.0000
  C   C1896     1.0  0.50310  0.59214  0.07970  1.0000
  C   C1897     1.0  0.49495  0.60716  0.07373  1.0000
  C   C1898     1.0  0.48133  0.60874  0.06835  1.0000
  C   C1899     1.0  0.47585  0.59542  0.06900  1.0000
  H   H1894     1.0  0.50371  0.56730  0.08553  1.0000
  H   H1895     1.0  0.51359  0.59077  0.08389  1.0000
  H   H1896     1.0  0.47502  0.62033  0.06362  1.0000
  H   H1897     1.0  0.46545  0.59677  0.06470  1.0000
  C   C1900     1.0  0.43379  0.58375  0.00392  1.0000
  H   H1898     1.0  0.44029  0.86130  0.30314  1.0000
  H   H1899     1.0  0.49286  0.96107  0.30016  1.0000
  S   S645      1.0  0.54946  0.92152  0.45345  1.0000
  C   C1901     1.0  0.41049  0.57366  0.00784  1.0000
  C   C1902     1.0  0.41923  0.58095  0.01308  1.0000
  H   H1900     1.0  0.52328  0.60129  0.04534  1.0000
  C   C1903     1.0  0.55150  0.70599  0.07756  1.0000
  H   H1901     1.0  0.40516  0.86430  0.26469  1.0000
  H   H1902     1.0  0.41491  0.58407  0.02443  1.0000
  C   C1904     1.0  0.54739  0.92199  0.43456  1.0000
  H   H1903     1.0  0.53016  0.97370  0.35757  1.0000
  S   S646      1.0  0.57306  0.90758  0.34752  1.0000
  H   H1904     1.0  0.45555  0.58088  0.10038  1.0000
  S   S647      1.0  0.54237  0.91873  0.38684  1.0000
  N   N154      1.0  0.48567  0.55514  0.98399  1.0000
  S   S648      1.0  0.58353  0.93088  0.36391  1.0000
  C   C1905     1.0  0.55139  0.63762  0.99410  1.0000
  N   N155      1.0  0.57424  0.98167  0.40301  1.0000
  C   C1906     1.0  0.48443  0.59503  0.02235  1.0000
  S   S649      1.0  0.52171  0.64312  0.98849  1.0000
  H   H1905     1.0  0.58296  0.68134  0.08012  1.0000
  S   S650      1.0  0.58869  0.93770  0.32530  1.0000
  C   C1907     1.0  0.49257  0.58500  0.03362  1.0000
  H   H1906     1.0  0.55093  0.82728  0.19250  1.0000
  H   H1907     1.0  0.45784  0.96005  0.24139  1.0000
  C   C1908     1.0  0.44009  0.94098  0.47667  1.0000
  N   N156      1.0  0.43288  0.96321  0.24866  1.0000
  C   C1909     1.0  0.40598  0.86430  0.27642  1.0000
  S   S651      1.0  0.39529  0.89821  0.24875  1.0000
  C   C1910     1.0  0.54470  0.92105  0.40463  1.0000
  C   C1911     1.0  0.57696  0.67583  0.09156  1.0000
  H   H1908     1.0  0.55595  0.63572  0.98232  1.0000
  C   C1912     1.0  0.56864  0.60226  0.12108  1.0000
  H   H1909     1.0  0.43046  0.88177  0.30185  1.0000
  H   H1910     1.0  0.52231  0.93063  0.43907  1.0000
  S   S652      1.0  0.58040  0.73556  0.16266  1.0000
  C   C1913     1.0  0.55107  0.81608  0.19026  1.0000
  H   H1911     1.0  0.51349  0.62109  0.03896  1.0000
  C   C1914     1.0  0.53367  0.87990  0.26717  1.0000
  H   H1912     1.0  0.53657  0.88794  0.46464  1.0000
  C   C1915     1.0  0.41898  0.52858  0.03052  1.0000
  H   H1913     1.0  0.47378  0.53614  0.99126  1.0000
  C   C1916     1.0  0.41218  0.59164  0.09700  1.0000
  H   H1914     1.0  0.54170  0.86928  0.26341  1.0000
  C   C1917     1.0  0.39219  0.59852  0.06527  1.0000
  H   H1915     1.0  0.39999  0.59446  0.09600  1.0000
  H   H1916     1.0  0.44223  0.94036  0.24373  1.0000
  C   C1918     1.0  0.56336  0.79617  0.15641  1.0000
  C   C1919     1.0  0.55078  0.69843  0.06639  1.0000
  C   C1920     1.0  0.52612  0.68651  0.11372  1.0000
  N   N157      1.0  0.41999  0.86840  0.29340  1.0000
  H   H1917     1.0  0.56721  0.67873  0.12980  1.0000
  H   H1918     1.0  0.45409  0.55290  0.10469  1.0000
  H   H1919     1.0  0.48986  0.57360  0.03951  1.0000
  H   H1920     1.0  0.58261  0.62462  0.10270  1.0000
  H   H1921     1.0  0.51015  0.58207  0.04650  1.0000
  H   H1922     1.0  0.54132  0.68089  0.06230  1.0000
  H   H1923     1.0  0.55461  0.80250  0.14906  1.0000
  H   H1924     1.0  0.55737  0.70122  0.05438  1.0000
  C   C1921     1.0  0.55640  0.90129  0.27967  1.0000
  C   C1922     1.0  0.51885  0.60974  0.03522  1.0000
  C   C1923     1.0  0.57109  0.96972  0.41566  1.0000
  H   H1925     1.0  0.44225  0.87523  0.28459  1.0000
  H   H1926     1.0  0.48282  0.89585  0.46074  1.0000
  C   C1924     1.0  0.43334  0.94632  0.25264  1.0000
  H   H1927     1.0  0.57223  0.91346  0.42636  1.0000
  H   H1928     1.0  0.43782  0.95325  0.47082  1.0000
  H   H1929     1.0  0.41224  0.56735  0.10740  1.0000
  H   H1930     1.0  0.46271  0.55353  0.99798  1.0000
  H   H1931     1.0  0.42183  0.94385  0.25310  1.0000
  C   C1925     1.0  0.53010  0.88967  0.45562  1.0000
  C   C1926     1.0  0.43794  0.49807  0.06779  1.0000
  C   C1927     1.0  0.41921  0.57627  0.10343  1.0000
  N   N158      1.0  0.54270  0.89119  0.26677  1.0000
  H   H1932     1.0  0.57915  0.60148  0.04071  1.0000
  H   H1933     1.0  0.55101  0.77662  0.18205  1.0000
  H   H1934     1.0  0.40868  0.53787  0.02752  1.0000
  H   H1935     1.0  0.50755  0.89693  0.47028  1.0000
  C   C1928     1.0  0.55720  0.81299  0.17520  1.0000
  C   C1929     1.0  0.42302  0.48861  0.01282  1.0000
  C   C1930     1.0  0.58563  0.57194  0.09736  1.0000
  C   C1931     1.0  0.54486  0.98208  0.30553  1.0000
  H   H1936     1.0  0.56610  0.78346  0.15633  1.0000
  H   H1937     1.0  0.53209  0.68845  0.12200  1.0000
  H   H1938     1.0  0.53595  0.88856  0.41723  1.0000
  H   H1939     1.0  0.43641  0.94105  0.26430  1.0000
  H   H1940     1.0  0.54266  0.90223  0.24269  1.0000
  H   H1941     1.0  0.57455  0.80027  0.15099  1.0000
  C   C1932     1.0  0.55111  0.78773  0.18429  1.0000
  S   S653      1.0  0.58156  0.69950  0.10205  1.0000
  H   H1942     1.0  0.57061  0.56498  0.14287  1.0000
  H   H1943     1.0  0.56583  0.92147  0.26606  1.0000
  C   C1933     1.0  0.48492  0.56964  0.98627  1.0000
  S   S654      1.0  0.56814  0.57570  0.09090  1.0000
  H   H1944     1.0  0.55302  0.58622  0.12772  1.0000
  C   C1934     1.0  0.41882  0.97367  0.25129  1.0000
  S   S655      1.0  0.57151  0.97689  0.34139  1.0000
  C   C1935     1.0  0.54328  0.70195  0.09309  1.0000
  S   S656      1.0  0.40606  0.55873  0.98761  1.0000
  C   C1936     1.0  0.39459  0.86196  0.30412  1.0000
  C   C1937     1.0  0.49940  0.61432  0.01947  1.0000
  C   C1938     1.0  0.54775  0.89061  0.27985  1.0000
  C   C1939     1.0  0.53374  0.68324  0.08649  1.0000
  C   C1940     1.0  0.55969  0.91273  0.26608  1.0000
  C   C1941     1.0  0.47001  0.97052  0.29441  1.0000
  C   C1942     1.0  0.52445  0.96918  0.33179  1.0000
  S   S657      1.0  0.58978  0.80099  0.21279  1.0000
  C   C1943     1.0  0.54180  0.68701  0.07084  1.0000
  C   C1944     1.0  0.41806  0.50081  0.03474  1.0000
  H   H1945     1.0  0.56199  0.82189  0.16579  1.0000
  C   C1945     1.0  0.54520  0.79032  0.19957  1.0000
  H   H1946     1.0  0.44373  0.60820  0.08873  1.0000
  N   N159      1.0  0.50565  0.89793  0.44711  1.0000
  H   H1947     1.0  0.57504  0.75076  0.18822  1.0000
  C   C1946     1.0  0.55481  0.91301  0.25266  1.0000
  C   C1947     1.0  0.53746  0.97094  0.30450  1.0000
  C   C1948     1.0  0.43394  0.87177  0.29586  1.0000
  H   H1948     1.0  0.54066  0.78131  0.20905  1.0000
  H   H1949     1.0  0.41555  0.49978  0.04735  1.0000
  H   H1950     1.0  0.42982  0.53330  0.02516  1.0000
  N   N160      1.0  0.42014  0.51475  0.02458  1.0000
  H   H1951     1.0  0.40848  0.86618  0.31761  1.0000
  H   H1952     1.0  0.42457  0.52716  0.00069  1.0000
  H   H1953     1.0  0.56091  0.61144  0.11452  1.0000
  C   C1949     1.0  0.42482  0.50295  0.00257  1.0000
  H   H1954     1.0  0.56070  0.97198  0.37647  1.0000
  Fe  Fe330     1.0  0.57662  0.82625  0.20969  1.0000
  C   C1950     1.0  0.41949  0.48753  0.02902  1.0000
  C   C1951     1.0  0.54523  0.80459  0.20254  1.0000
  H   H1955     1.0  0.56001  0.90108  0.29021  1.0000
  Fe  Fe331     1.0  0.57589  0.95064  0.34447  1.0000
  C   C1952     1.0  0.57599  0.68152  0.10482  1.0000
  C   C1953     1.0  0.51375  0.89498  0.45867  1.0000
  H   H1956     1.0  0.46068  0.48817  0.03383  1.0000
  C   C1954     1.0  0.44482  0.98296  0.28649  1.0000
  C   C1955     1.0  0.45271  0.48712  0.04524  1.0000
  C   C1956     1.0  0.39366  0.86130  0.28923  1.0000
  H   H1957     1.0  0.56176  0.94866  0.42457  1.0000
  C   C1957     1.0  0.43047  0.57273  0.98387  1.0000
  S   S658      1.0  0.58434  0.83129  0.18336  1.0000
  C   C1958     1.0  0.53812  0.88714  0.44071  1.0000
  H   H1958     1.0  0.43528  0.54782  0.11114  1.0000
  H   H1959     1.0  0.57392  0.96903  0.42673  1.0000
  S   S659      1.0  0.40873  0.94296  0.47918  1.0000
  H   H1960     1.0  0.43520  0.97936  0.29636  1.0000
  S   S660      1.0  0.58974  0.69829  0.14482  1.0000
  C   C1959     1.0  0.58980  0.59559  0.04503  1.0000
  H   H1961     1.0  0.58283  0.62780  0.12137  1.0000
  C   C1960     1.0  0.58777  0.75105  0.16426  1.0000
  C   C1961     1.0  0.58816  0.76917  0.17968  1.0000
  C   C1962     1.0  0.57022  0.98273  0.38922  1.0000
  C   C1963     1.0  0.58745  0.61937  0.11347  1.0000
  C   C1964     1.0  0.58814  0.57861  0.13803  1.0000
  C   C1965     1.0  0.45528  0.93336  0.47917  1.0000
  C   C1966     1.0  0.58999  0.55763  0.10760  1.0000
  H   H1962     1.0  0.59073  0.55682  0.98168  1.0000
  C   C1967     1.0  0.43229  0.48415  0.07471  1.0000
  N   N161      1.0  0.45803  0.98345  0.29260  1.0000
  H   H1963     1.0  0.40534  0.49487  0.94936  1.0000
  S   S661      1.0  0.44263  0.53247  0.96694  1.0000
  H   H1964     1.0  0.58629  0.87383  0.57934  1.0000
  Fe  Fe332     1.0  0.42370  0.55319  0.93134  1.0000
  S   S662      1.0  0.44665  0.53523  0.92945  1.0000
  S   S663      1.0  0.41457  0.56555  0.90935  1.0000
  Fe  Fe333     1.0  0.43455  0.52148  0.95201  1.0000
  S   S664      1.0  0.43582  0.49523  0.96042  1.0000
  Fe  Fe334     1.0  0.45288  0.54768  0.94450  1.0000
  S   S665      1.0  0.47777  0.55086  0.94093  1.0000
  S   S666      1.0  0.41116  0.53853  0.95281  1.0000
  S   S667      1.0  0.43106  0.56682  0.94425  1.0000
  H   H1965     1.0  0.51966  0.66769  0.95849  1.0000
  S   S668      1.0  0.57361  0.94386  0.61611  1.0000
  C   C1968     1.0  0.58072  0.56827  0.96136  1.0000
  Fe  Fe335     1.0  0.51774  0.92222  0.50860  1.0000
  C   C1969     1.0  0.41139  0.94855  0.76549  1.0000
  S   S669      1.0  0.52151  0.91418  0.53355  1.0000
  Fe  Fe336     1.0  0.42037  0.55066  0.96570  1.0000
  H   H1966     1.0  0.51959  0.89665  0.72379  1.0000
  H   H1967     1.0  0.46611  0.96096  0.50471  1.0000
  H   H1968     1.0  0.40368  0.58940  0.88494  1.0000
  S   S670      1.0  0.49282  0.93421  0.50718  1.0000
  S   S671      1.0  0.56189  0.57414  0.97262  1.0000
  H   H1969     1.0  0.45319  0.61293  0.91750  1.0000
  H   H1970     1.0  0.54199  0.98188  0.49378  1.0000
  H   H1971     1.0  0.45777  0.93526  0.51361  1.0000
  Fe  Fe337     1.0  0.51821  0.61370  0.95058  1.0000
  S   S672      1.0  0.52287  0.63770  0.94726  1.0000
  S   S673      1.0  0.49432  0.61157  0.94887  1.0000
  C   C1970     1.0  0.44625  0.58382  0.90621  1.0000
  Fe  Fe338     1.0  0.54790  0.62747  0.93689  1.0000
  C   C1971     1.0  0.47007  0.58628  0.91049  1.0000
  S   S674      1.0  0.52811  0.94052  0.48949  1.0000
  S   S675      1.0  0.56209  0.95386  0.58261  1.0000
  C   C1972     1.0  0.57990  0.68047  0.90810  1.0000
  S   S676      1.0  0.56584  0.91712  0.60237  1.0000
  Fe  Fe339     1.0  0.57558  0.93025  0.57825  1.0000
  S   S677      1.0  0.57836  0.92511  0.55446  1.0000
  Fe  Fe340     1.0  0.55405  0.94102  0.60725  1.0000
  S   S678      1.0  0.52899  0.94800  0.61973  1.0000
  C   C1973     1.0  0.51056  0.94931  0.56087  1.0000
  H   H1972     1.0  0.52312  0.67117  0.92955  1.0000
  Fe  Fe341     1.0  0.47631  0.94851  0.72597  1.0000
  S   S679      1.0  0.49096  0.95560  0.70185  1.0000
  S   S680      1.0  0.44981  0.95713  0.73097  1.0000
  Fe  Fe342     1.0  0.50539  0.93410  0.74063  1.0000
  S   S681      1.0  0.52203  0.94063  0.71774  1.0000
  S   S682      1.0  0.51336  0.92105  0.76329  1.0000
  Fe  Fe343     1.0  0.50462  0.96349  0.71425  1.0000
  Fe  Fe344     1.0  0.50689  0.93200  0.70765  1.0000
  S   S683      1.0  0.52028  0.91529  0.69190  1.0000
  S   S684      1.0  0.48907  0.95792  0.73810  1.0000
  S   S685      1.0  0.49106  0.92403  0.73080  1.0000
  C   C1974     1.0  0.56878  0.67375  0.93595  1.0000
  H   H1973     1.0  0.58906  0.90433  0.87889  1.0000
  H   H1974     1.0  0.55367  0.70238  0.95592  1.0000
  H   H1975     1.0  0.43529  0.61142  0.91375  1.0000
  C   C1975     1.0  0.44927  0.94618  0.51105  1.0000
  N   N162      1.0  0.54402  0.97445  0.65649  1.0000
  S   S686      1.0  0.58256  0.87932  0.76040  1.0000
  H   H1976     1.0  0.44138  0.60009  0.93171  1.0000
  H   H1977     1.0  0.52603  0.95473  0.57184  1.0000
  Fe  Fe345     1.0  0.54835  0.59738  0.96174  1.0000
  H   H1978     1.0  0.44831  0.89707  0.49758  1.0000
  C   C1976     1.0  0.40023  0.48457  0.95310  1.0000
  H   H1979     1.0  0.54960  0.95075  0.65366  1.0000
  H   H1980     1.0  0.56601  0.67615  0.94755  1.0000
  C   C1977     1.0  0.54257  0.70911  0.95215  1.0000
  H   H1981     1.0  0.42429  0.97918  0.69910  1.0000
  S   S687      1.0  0.51963  0.90684  0.49222  1.0000
  H   H1982     1.0  0.57029  0.85836  0.74748  1.0000
  C   C1978     1.0  0.53068  0.95938  0.53288  1.0000
  Fe  Fe346     1.0  0.50330  0.95143  0.48685  1.0000
  C   C1979     1.0  0.51750  0.88782  0.74879  1.0000
  H   H1983     1.0  0.40341  0.97083  0.69248  1.0000
  C   C1980     1.0  0.39772  0.92851  0.75802  1.0000
  H   H1984     1.0  0.39233  0.92084  0.75486  1.0000
  C   C1981     1.0  0.58371  0.57223  0.94491  1.0000
  H   H1985     1.0  0.43362  0.58769  0.90721  1.0000
  C   C1982     1.0  0.53316  0.91086  0.76262  1.0000
  C   C1983     1.0  0.53780  0.90192  0.77659  1.0000
  C   C1984     1.0  0.55313  0.89262  0.77622  1.0000
  C   C1985     1.0  0.56392  0.89225  0.76184  1.0000
  C   C1986     1.0  0.55941  0.90155  0.74795  1.0000
  C   C1987     1.0  0.54410  0.91075  0.74832  1.0000
  H   H1986     1.0  0.52941  0.90196  0.78771  1.0000
  H   H1987     1.0  0.55648  0.88549  0.78700  1.0000
  H   H1988     1.0  0.56770  0.90143  0.73679  1.0000
  H   H1989     1.0  0.54072  0.91750  0.73750  1.0000
  C   C1988     1.0  0.52609  0.93816  0.63958  1.0000
  C   C1989     1.0  0.53788  0.92590  0.64505  1.0000
  C   C1990     1.0  0.53586  0.91870  0.66110  1.0000
  C   C1991     1.0  0.52223  0.92400  0.67177  1.0000
  C   C1992     1.0  0.51044  0.93626  0.66631  1.0000
  C   C1993     1.0  0.51229  0.94322  0.65020  1.0000
  H   H1990     1.0  0.54857  0.92194  0.63694  1.0000
  H   H1991     1.0  0.54499  0.90920  0.66527  1.0000
  H   H1992     1.0  0.49978  0.94022  0.67445  1.0000
  H   H1993     1.0  0.50316  0.95269  0.64600  1.0000
  C   C1994     1.0  0.41978  0.93207  0.71742  1.0000
  C   C1995     1.0  0.43605  0.92610  0.71567  1.0000
  C   C1996     1.0  0.44553  0.93400  0.71922  1.0000
  C   C1997     1.0  0.43874  0.94787  0.72462  1.0000
  C   C1998     1.0  0.42256  0.95408  0.72590  1.0000
  C   C1999     1.0  0.41309  0.94628  0.72222  1.0000
  H   H1994     1.0  0.44129  0.91514  0.71189  1.0000
  H   H1995     1.0  0.45802  0.92915  0.71813  1.0000
  H   H1996     1.0  0.41733  0.96476  0.73015  1.0000
  H   H1997     1.0  0.43011  0.93472  0.51603  1.0000
  S   S688      1.0  0.40801  0.92072  0.71507  1.0000
  N   N163      1.0  0.45424  0.59150  0.91135  1.0000
  C   C2000     1.0  0.52664  0.67918  0.93417  1.0000
  C   C2001     1.0  0.40642  0.95937  0.51021  1.0000
  C   C2002     1.0  0.39600  0.57846  0.90919  1.0000
  H   H1998     1.0  0.57759  0.89460  0.57554  1.0000
  H   H1999     1.0  0.52879  0.68540  0.96864  1.0000
  H   H2000     1.0  0.52460  0.54525  0.96823  1.0000
  N   N164      1.0  0.54887  0.87274  0.74112  1.0000
  H   H2001     1.0  0.57680  0.88379  0.59536  1.0000
  H   H2002     1.0  0.51346  0.97351  0.73626  1.0000
  H   H2003     1.0  0.43282  0.93129  0.76144  1.0000
  C   C2003     1.0  0.53741  0.91739  0.53907  1.0000
  C   C2004     1.0  0.53693  0.91542  0.55511  1.0000
  C   C2005     1.0  0.54922  0.91815  0.55997  1.0000
  C   C2006     1.0  0.56230  0.92243  0.54881  1.0000
  C   C2007     1.0  0.56282  0.92435  0.53277  1.0000
  C   C2008     1.0  0.55034  0.92202  0.52789  1.0000
  H   H2004     1.0  0.52696  0.91183  0.56381  1.0000
  H   H2005     1.0  0.54869  0.91663  0.57236  1.0000
  H   H2006     1.0  0.57293  0.92763  0.52407  1.0000
  H   H2007     1.0  0.55083  0.92353  0.51551  1.0000
  C   C2009     1.0  0.52548  0.88934  0.73309  1.0000
  H   H2008     1.0  0.50306  0.94492  0.57192  1.0000
  H   H2009     1.0  0.49786  0.94430  0.54654  1.0000
  C   C2010     1.0  0.44560  0.60465  0.91893  1.0000
  Fe  Fe347     1.0  0.53038  0.62845  0.97024  1.0000
  C   C2011     1.0  0.45398  0.96050  0.50595  1.0000
  C   C2012     1.0  0.43086  0.91700  0.48938  1.0000
  H   H2010     1.0  0.40239  0.96631  0.49930  1.0000
  H   H2011     1.0  0.53880  0.96274  0.52193  1.0000
  H   H2012     1.0  0.57256  0.87434  0.73091  1.0000
  H   H2013     1.0  0.53560  0.69250  0.91129  1.0000
  Fe  Fe348     1.0  0.49540  0.92051  0.48925  1.0000
  C   C2013     1.0  0.39393  0.58900  0.89503  1.0000
  C   C2014     1.0  0.53846  0.70121  0.93000  1.0000
  H   H2014     1.0  0.41841  0.90611  0.74574  1.0000
  H   H2015     1.0  0.39888  0.96436  0.52037  1.0000
  H   H2016     1.0  0.41699  0.95644  0.76802  1.0000
  H   H2017     1.0  0.47638  0.59209  0.91495  1.0000
  N   N165      1.0  0.42289  0.95961  0.50866  1.0000
  H   H2018     1.0  0.43797  0.49913  0.92670  1.0000
  H   H2019     1.0  0.39752  0.49786  0.97638  1.0000
  C   C2015     1.0  0.48213  0.56762  0.94364  1.0000
  C   C2016     1.0  0.47029  0.57982  0.94884  1.0000
  C   C2017     1.0  0.47422  0.59321  0.95036  1.0000
  C   C2018     1.0  0.49000  0.59444  0.94691  1.0000
  C   C2019     1.0  0.50184  0.58219  0.94180  1.0000
  C   C2020     1.0  0.49790  0.56887  0.94013  1.0000
  H   H2020     1.0  0.45811  0.57899  0.95160  1.0000
  H   H2021     1.0  0.46499  0.60264  0.95436  1.0000
  H   H2022     1.0  0.51403  0.58306  0.93900  1.0000
  H   H2023     1.0  0.50713  0.55950  0.93603  1.0000
  C   C2021     1.0  0.52017  0.98003  0.49000  1.0000
  C   C2022     1.0  0.53356  0.69123  0.92390  1.0000
  C   C2023     1.0  0.42781  0.93284  0.48183  1.0000
  C   C2024     1.0  0.45828  0.91751  0.48678  1.0000
  H   H2024     1.0  0.54723  0.86452  0.76588  1.0000
  S   S689      1.0  0.57862  0.70151  0.92581  1.0000
  C   C2025     1.0  0.47830  0.57299  0.90444  1.0000
  C   C2026     1.0  0.57580  0.66735  0.90612  1.0000
  S   S690      1.0  0.54269  0.60417  0.93783  1.0000
  C   C2027     1.0  0.42029  0.93427  0.76177  1.0000
  C   C2028     1.0  0.55834  0.97749  0.64806  1.0000
  C   C2029     1.0  0.47022  0.56501  0.89930  1.0000
  C   C2030     1.0  0.54110  0.87113  0.75656  1.0000
  H   H2025     1.0  0.49071  0.56850  0.90443  1.0000
  C   C2031     1.0  0.54126  0.88169  0.72944  1.0000
  C   C2032     1.0  0.52530  0.87861  0.76062  1.0000
  S   S691      1.0  0.55566  0.61963  0.95973  1.0000
  H   H2026     1.0  0.44767  0.56428  0.89627  1.0000
  C   C2033     1.0  0.43357  0.94595  0.51239  1.0000
  N   N166      1.0  0.53328  0.96003  0.54682  1.0000
  H   H2027     1.0  0.42150  0.91062  0.49344  1.0000
  C   C2034     1.0  0.52358  0.95485  0.56074  1.0000
  C   C2035     1.0  0.56554  0.86523  0.73693  1.0000
  H   H2028     1.0  0.56639  0.96951  0.64094  1.0000
  C   C2036     1.0  0.51765  0.95417  0.53255  1.0000
  H   H2029     1.0  0.40479  0.94726  0.51185  1.0000
  C   C2037     1.0  0.44606  0.90935  0.49174  1.0000
  H   H2030     1.0  0.54743  0.88321  0.71719  1.0000
  C   C2038     1.0  0.56784  0.65762  0.91898  1.0000
  H   H2031     1.0  0.43531  0.91031  0.74875  1.0000
  S   S692      1.0  0.56282  0.64124  0.91620  1.0000
  S   S693      1.0  0.58404  0.85594  0.80717  1.0000
  H   H2032     1.0  0.50544  0.89417  0.75187  1.0000
  H   H2033     1.0  0.54441  0.71014  0.92190  1.0000
  H   H2034     1.0  0.40056  0.95090  0.72366  1.0000
  N   N167      1.0  0.41345  0.92455  0.75794  1.0000
  H   H2035     1.0  0.55689  0.95532  0.54897  1.0000
  H   H2036     1.0  0.57423  0.57855  0.93899  1.0000
  H   H2037     1.0  0.42254  0.90018  0.76522  1.0000
  H   H2038     1.0  0.54421  0.97223  0.55624  1.0000
  H   H2039     1.0  0.43507  0.56928  0.97276  1.0000
  C   C2039     1.0  0.45412  0.57052  0.90004  1.0000
  C   C2040     1.0  0.40087  0.98199  0.69590  1.0000
  H   H2040     1.0  0.53341  0.96370  0.64546  1.0000
  H   H2041     1.0  0.56722  0.85717  0.72907  1.0000
  C   C2041     1.0  0.57616  0.68386  0.92301  1.0000
  H   H2042     1.0  0.51936  0.87791  0.77287  1.0000
  C   C2042     1.0  0.56451  0.66078  0.93395  1.0000
  Fe  Fe349     1.0  0.58634  0.92089  0.60936  1.0000
  H   H2043     1.0  0.47636  0.55438  0.89508  1.0000
  N   N168      1.0  0.53655  0.69920  0.94590  1.0000
  C   C2043     1.0  0.52476  0.67721  0.95037  1.0000
  S   S694      1.0  0.52368  0.60543  0.97457  1.0000
  H   H2044     1.0  0.52354  0.57129  0.97286  1.0000
  C   C2044     1.0  0.43796  0.48698  0.93245  1.0000
  H   H2045     1.0  0.55856  0.65329  0.94398  1.0000
  H   H2046     1.0  0.58503  0.60511  0.92674  1.0000
  C   C2045     1.0  0.52990  0.68732  0.95606  1.0000
  C   C2046     1.0  0.53931  0.96064  0.65547  1.0000
  S   S695      1.0  0.47715  0.90742  0.49009  1.0000
  H   H2047     1.0  0.53382  0.71315  0.96230  1.0000
  C   C2047     1.0  0.44300  0.97435  0.50235  1.0000
  H   H2048     1.0  0.55092  0.97345  0.53552  1.0000
  Fe  Fe350     1.0  0.58293  0.95444  0.59092  1.0000
  H   H2049     1.0  0.51570  0.95355  0.52147  1.0000
  H   H2050     1.0  0.54536  0.71967  0.94312  1.0000
  C   C2048     1.0  0.50758  0.94904  0.54666  1.0000
  H   H2051     1.0  0.57855  0.66490  0.89452  1.0000
  H   H2052     1.0  0.53111  0.95624  0.66647  1.0000
  C   C2049     1.0  0.42289  0.90952  0.75431  1.0000
  C   C2050     1.0  0.54702  0.96552  0.54691  1.0000
  H   H2053     1.0  0.58553  0.68821  0.89803  1.0000
  C   C2051     1.0  0.42741  0.97369  0.50380  1.0000
  C   C2052     1.0  0.39537  0.95273  0.76551  1.0000
  C   C2053     1.0  0.58431  0.88489  0.58329  1.0000
  H   H2054     1.0  0.39318  0.98000  0.73890  1.0000
  H   H2055     1.0  0.46574  0.55302  0.97749  1.0000
  C   C2054     1.0  0.51291  0.56672  0.97608  1.0000
  C   C2055     1.0  0.51352  0.55208  0.97349  1.0000
  S   S696      1.0  0.49236  0.97692  0.48622  1.0000
  H   H2056     1.0  0.58899  0.91408  0.85043  1.0000
  H   H2057     1.0  0.50013  0.53535  0.97490  1.0000
  C   C2056     1.0  0.49966  0.54652  0.97737  1.0000
  H   H2058     1.0  0.52586  0.97309  0.48123  1.0000
  H   H2059     1.0  0.52217  0.98257  0.67145  1.0000
  C   C2057     1.0  0.69775  0.98599  0.15280  1.0000
  Fe  Fe351     1.0  0.67616  0.42447  0.04674  1.0000
  S   S697      1.0  0.65168  0.43220  0.06013  1.0000
  S   S698      1.0  0.68054  0.43066  0.02029  1.0000
  Fe  Fe352     1.0  0.68913  0.41113  0.07651  1.0000
  S   S699      1.0  0.66569  0.41792  0.09225  1.0000
  S   S700      1.0  0.71117  0.39759  0.08509  1.0000
  H   H2060     1.0  0.76841  0.26476  0.40570  1.0000
  Fe  Fe353     1.0  0.66339  0.44066  0.07411  1.0000
  S   S701      1.0  0.65241  0.46439  0.08022  1.0000
  S   S702      1.0  0.68009  0.40043  0.06223  1.0000
  S   S703      1.0  0.68763  0.43461  0.05951  1.0000
  H   H2061     1.0  0.66217  0.23308  0.18320  1.0000
  C   C2058     1.0  0.68787  0.28138  0.14263  1.0000
  C   C2059     1.0  0.74419  0.00546  0.21130  1.0000
  H   H2062     1.0  0.69640  0.28018  0.13176  1.0000
  C   C2060     1.0  0.67762  0.16370  0.02050  1.0000
  C   C2061     1.0  0.69650  0.24581  0.17051  1.0000
  C   C2062     1.0  0.68248  0.21412  0.09068  1.0000
  S   S704      1.0  0.61194  0.08573  0.35624  1.0000
  S   S705      1.0  0.76340  0.19054  0.01868  1.0000
  H   H2063     1.0  0.60829  0.38624  0.02432  1.0000
  H   H2064     1.0  0.63625  0.18962  0.22102  1.0000
  H   H2065     1.0  0.68715  0.16183  0.36791  1.0000
  H   H2066     1.0  0.76807  0.24768  0.38864  1.0000
  Fe  Fe354     1.0  0.59854  0.03222  0.36972  1.0000
  C   C2063     1.0  0.76974  0.11590  0.33864  1.0000
  H   H2067     1.0  0.73456  0.10532  0.13765  1.0000
  Fe  Fe355     1.0  0.59879  0.10785  0.26204  1.0000
  Fe  Fe356     1.0  0.77297  0.17856  0.36410  1.0000
  C   C2064     1.0  0.71721  0.15624  0.98779  1.0000
  S   S706      1.0  0.76033  0.15849  0.37116  1.0000
  H   H2068     1.0  0.61257  0.15083  0.18616  1.0000
  H   H2069     1.0  0.78790  0.22384  0.41939  1.0000
  H   H2070     1.0  0.76209  0.00271  0.24038  1.0000
  S   S707      1.0  0.77729  0.22414  0.31812  1.0000
  H   H2071     1.0  0.59818  0.04272  0.26054  1.0000
  S   S708      1.0  0.76354  0.20432  0.36371  1.0000
  C   C2065     1.0  0.60885  0.38112  0.07004  1.0000
  C   C2066     1.0  0.69885  0.12097  0.39416  1.0000
  C   C2067     1.0  0.68890  0.19980  0.08595  1.0000
  H   H2072     1.0  0.73957  0.11287  0.09435  1.0000
  H   H2073     1.0  0.63461  0.40663  0.03413  1.0000
  C   C2068     1.0  0.75869  0.15219  0.01042  1.0000
  H   H2074     1.0  0.76877  0.01225  0.22030  1.0000
  S   S709      1.0  0.77020  0.34084  0.24329  1.0000
  C   C2069     1.0  0.61330  0.31323  0.12392  1.0000
  C   C2070     1.0  0.66902  0.17088  0.99564  1.0000
  H   H2075     1.0  0.77704  0.21803  0.00870  1.0000
  C   C2071     1.0  0.60404  0.18707  0.20186  1.0000
  C   C2072     1.0  0.60832  0.40891  0.06055  1.0000
  H   H2076     1.0  0.70563  0.42384  0.10953  1.0000
  H   H2077     1.0  0.60818  0.20898  0.18619  1.0000
  Fe  Fe357     1.0  0.75925  0.22473  0.11504  1.0000
  C   C2073     1.0  0.77447  0.21475  0.02139  1.0000
  S   S710      1.0  0.73809  0.23944  0.12806  1.0000
  Fe  Fe358     1.0  0.76686  0.19970  0.99250  1.0000
  C   C2074     1.0  0.77010  0.26364  0.33386  1.0000
  H   H2078     1.0  0.70231  0.10932  0.40120  1.0000
  C   C2075     1.0  0.77827  0.22329  0.03003  1.0000
  S   S711      1.0  0.75653  0.21163  0.09861  1.0000
  Fe  Fe359     1.0  0.73787  0.14436  0.06474  1.0000
  S   S712      1.0  0.73320  0.16722  0.04776  1.0000
  S   S713      1.0  0.76132  0.13278  0.07050  1.0000
  Fe  Fe360     1.0  0.70423  0.14150  0.07401  1.0000
  S   S714      1.0  0.69609  0.16430  0.05780  1.0000
  S   S715      1.0  0.68807  0.12694  0.09157  1.0000
  Fe  Fe361     1.0  0.71784  0.15618  0.04042  1.0000
  S   S716      1.0  0.71809  0.16347  0.01456  1.0000
  Fe  Fe362     1.0  0.71198  0.17361  0.06626  1.0000
  S   S717      1.0  0.70584  0.19786  0.07089  1.0000
  S   S718      1.0  0.72459  0.13239  0.05580  1.0000
  S   S719      1.0  0.71811  0.15166  0.08412  1.0000
  Fe  Fe363     1.0  0.71791  0.33726  0.16457  1.0000
  S   S720      1.0  0.71697  0.31916  0.15249  1.0000
  S   S721      1.0  0.70724  0.36296  0.15660  1.0000
  Fe  Fe364     1.0  0.72787  0.31304  0.19311  1.0000
  S   S722      1.0  0.72699  0.29299  0.18355  1.0000
  S   S723      1.0  0.73443  0.30560  0.21699  1.0000
  Fe  Fe365     1.0  0.73922  0.30582  0.16066  1.0000
  S   S724      1.0  0.75971  0.29072  0.14733  1.0000
  Fe  Fe366     1.0  0.70487  0.30780  0.17629  1.0000
  S   S725      1.0  0.68247  0.29939  0.18062  1.0000
  S   S726      1.0  0.74159  0.32508  0.17048  1.0000
  S   S727      1.0  0.70437  0.32664  0.18810  1.0000
  Fe  Fe367     1.0  0.70825  0.01565  0.16681  1.0000
  S   S728      1.0  0.72848  0.02636  0.15200  1.0000
  C   C2076     1.0  0.65803  0.09602  0.12190  1.0000
  Fe  Fe368     1.0  0.68777  0.04722  0.17156  1.0000
  S   S729      1.0  0.70646  0.06058  0.15776  1.0000
  S   S730      1.0  0.66321  0.06006  0.18003  1.0000
  Fe  Fe369     1.0  0.71064  0.04530  0.14076  1.0000
  S   S731      1.0  0.71556  0.05479  0.11455  1.0000
  Fe  Fe370     1.0  0.72258  0.04068  0.17016  1.0000
  S   S732      1.0  0.74401  0.04255  0.17658  1.0000
  S   S733      1.0  0.69082  0.03311  0.15370  1.0000
  S   S734      1.0  0.70351  0.02875  0.18592  1.0000
  H   H2079     1.0  0.78368  0.24519  0.37202  1.0000
  H   H2080     1.0  0.77042  0.10338  0.34322  1.0000
  S   S735      1.0  0.76929  0.06902  0.25981  1.0000
  S   S736      1.0  0.77769  0.03437  0.29555  1.0000
  Fe  Fe371     1.0  0.76177  0.05977  0.24314  1.0000
  S   S737      1.0  0.73822  0.06818  0.23643  1.0000
  H   H2081     1.0  0.64816  0.46016  0.98342  1.0000
  S   S738      1.0  0.76855  0.03449  0.25494  1.0000
  C   C2077     1.0  0.63558  0.18366  0.16599  1.0000
  Fe  Fe372     1.0  0.72546  0.09916  0.33474  1.0000
  S   S739      1.0  0.72233  0.12079  0.31572  1.0000
  S   S740      1.0  0.74972  0.08544  0.33684  1.0000
  Fe  Fe373     1.0  0.69066  0.10465  0.35057  1.0000
  S   S741      1.0  0.68488  0.12715  0.33312  1.0000
  S   S742      1.0  0.67290  0.09481  0.37125  1.0000
  Fe  Fe374     1.0  0.70070  0.11347  0.31531  1.0000
  S   S743      1.0  0.69537  0.11232  0.29281  1.0000
  Fe  Fe375     1.0  0.70705  0.13215  0.33539  1.0000
  S   S744      1.0  0.70895  0.15595  0.33699  1.0000
  S   S745      1.0  0.70528  0.09062  0.33271  1.0000
  S   S746      1.0  0.71138  0.11085  0.35449  1.0000
  N   N169      1.0  0.69508  0.25313  0.18231  1.0000
  C   C2078     1.0  0.70043  0.45859  0.10446  1.0000
  C   C2079     1.0  0.67066  0.11670  0.27911  1.0000
  C   C2080     1.0  0.67530  0.11777  0.29222  1.0000
  H   H2082     1.0  0.67938  0.11285  0.26936  1.0000
  C   C2081     1.0  0.76955  0.04874  0.30678  1.0000
  C   C2082     1.0  0.75702  0.06116  0.30312  1.0000
  C   C2083     1.0  0.75070  0.07246  0.31241  1.0000
  C   C2084     1.0  0.75715  0.07147  0.32512  1.0000
  C   C2085     1.0  0.76985  0.05924  0.32853  1.0000
  C   C2086     1.0  0.77588  0.04777  0.31952  1.0000
  H   H2083     1.0  0.75196  0.06181  0.29341  1.0000
  H   H2084     1.0  0.74088  0.08192  0.30975  1.0000
  H   H2085     1.0  0.77481  0.05842  0.33837  1.0000
  C   C2087     1.0  0.61360  0.33225  0.09866  1.0000
  C   C2088     1.0  0.66160  0.06934  0.19516  1.0000
  C   C2089     1.0  0.64690  0.07774  0.20168  1.0000
  C   C2090     1.0  0.64538  0.08519  0.21383  1.0000
  C   C2091     1.0  0.67483  0.06848  0.20071  1.0000
  H   H2086     1.0  0.63665  0.07838  0.19744  1.0000
  C   C2092     1.0  0.64787  0.12654  0.30434  1.0000
  C   C2093     1.0  0.74156  0.04960  0.19343  1.0000
  C   C2094     1.0  0.75444  0.04593  0.20041  1.0000
  C   C2095     1.0  0.75311  0.05115  0.21392  1.0000
  C   C2096     1.0  0.73911  0.06067  0.22022  1.0000
  C   C2097     1.0  0.72606  0.06424  0.21338  1.0000
  C   C2098     1.0  0.72722  0.05852  0.20006  1.0000
  H   H2087     1.0  0.61972  0.19212  0.15009  1.0000
  H   H2088     1.0  0.75848  0.31197  0.25646  1.0000
  H   H2089     1.0  0.71513  0.07148  0.21829  1.0000
  H   H2090     1.0  0.71717  0.06127  0.19478  1.0000
  C   C2099     1.0  0.67927  0.29091  0.16682  1.0000
  C   C2100     1.0  0.66596  0.28446  0.17067  1.0000
  C   C2101     1.0  0.69007  0.28967  0.15260  1.0000
  H   H2091     1.0  0.68112  0.11481  0.38689  1.0000
  H   H2092     1.0  0.70028  0.29477  0.14943  1.0000
  C   C2102     1.0  0.69749  0.10745  0.09798  1.0000
  C   C2103     1.0  0.69424  0.10044  0.11400  1.0000
  C   C2104     1.0  0.70003  0.08435  0.11919  1.0000
  C   C2105     1.0  0.70912  0.07518  0.10840  1.0000
  C   C2106     1.0  0.71280  0.08232  0.09241  1.0000
  C   C2107     1.0  0.70708  0.09847  0.08721  1.0000
  H   H2093     1.0  0.68679  0.10736  0.12235  1.0000
  H   H2094     1.0  0.69680  0.07898  0.13143  1.0000
  H   H2095     1.0  0.71980  0.07528  0.08400  1.0000
  H   H2096     1.0  0.70949  0.10380  0.07479  1.0000
  N   N170      1.0  0.65764  0.08554  0.13609  1.0000
  C   C2108     1.0  0.68198  0.18692  0.09356  1.0000
  C   C2109     1.0  0.66873  0.18832  0.10591  1.0000
  H   H2097     1.0  0.68678  0.17586  0.08993  1.0000
  H   H2098     1.0  0.66335  0.17834  0.11171  1.0000
  C   C2110     1.0  0.74394  0.25335  0.13407  1.0000
  C   C2111     1.0  0.73275  0.26572  0.13971  1.0000
  C   C2112     1.0  0.73750  0.27709  0.14409  1.0000
  C   C2113     1.0  0.75347  0.27607  0.14284  1.0000
  C   C2114     1.0  0.76458  0.26340  0.13765  1.0000
  C   C2115     1.0  0.75984  0.25215  0.13316  1.0000
  H   H2099     1.0  0.72046  0.26668  0.14038  1.0000
  H   H2100     1.0  0.72884  0.28677  0.14816  1.0000
  S   S747      1.0  0.59725  0.27394  0.13970  1.0000
  H   H2101     1.0  0.76848  0.24248  0.12907  1.0000
  H   H2102     1.0  0.76894  0.26677  0.34485  1.0000
  H   H2103     1.0  0.73180  0.00158  0.19592  1.0000
  C   C2116     1.0  0.76893  0.15784  0.10413  1.0000
  C   C2117     1.0  0.76426  0.14254  0.08332  1.0000
  C   C2118     1.0  0.75872  0.15881  0.08169  1.0000
  C   C2119     1.0  0.76143  0.16653  0.09185  1.0000
  C   C2120     1.0  0.62304  0.18318  0.16009  1.0000
  C   C2121     1.0  0.69015  0.15039  0.37552  1.0000
  H   H2104     1.0  0.75256  0.16546  0.07246  1.0000
  H   H2105     1.0  0.75739  0.17912  0.09040  1.0000
  C   C2122     1.0  0.76023  0.33096  0.23610  1.0000
  C   C2123     1.0  0.75658  0.33734  0.22120  1.0000
  C   C2124     1.0  0.74857  0.32981  0.21519  1.0000
  C   C2125     1.0  0.74397  0.31593  0.22415  1.0000
  C   C2126     1.0  0.74768  0.30954  0.23902  1.0000
  C   C2127     1.0  0.75583  0.31696  0.24495  1.0000
  H   H2106     1.0  0.75992  0.34817  0.21427  1.0000
  H   H2107     1.0  0.74586  0.33481  0.20369  1.0000
  H   H2108     1.0  0.74418  0.29880  0.24603  1.0000
  H   H2109     1.0  0.74096  0.25111  0.01440  1.0000
  H   H2110     1.0  0.72147  0.22430  0.99540  1.0000
  S   S748      1.0  0.65693  0.09333  0.23480  1.0000
  H   H2111     1.0  0.68723  0.45841  0.02564  1.0000
  C   C2128     1.0  0.66251  0.20251  0.11087  1.0000
  H   H2112     1.0  0.63398  0.39973  0.01781  1.0000
  C   C2129     1.0  0.65281  0.17346  0.18477  1.0000
  C   C2130     1.0  0.75668  0.12518  0.02093  1.0000
  C   C2131     1.0  0.59723  0.28588  0.12064  1.0000
  H   H2113     1.0  0.65935  0.14841  0.37426  1.0000
  H   H2114     1.0  0.60956  0.33101  0.01835  1.0000
  C   C2132     1.0  0.74590  0.15825  0.36165  1.0000
  C   C2133     1.0  0.73805  0.17194  0.35291  1.0000
  C   C2134     1.0  0.72673  0.17113  0.34535  1.0000
  C   C2135     1.0  0.72345  0.15663  0.34624  1.0000
  C   C2136     1.0  0.73142  0.14297  0.35488  1.0000
  C   C2137     1.0  0.74237  0.14382  0.36278  1.0000
  H   H2115     1.0  0.74061  0.18315  0.35207  1.0000
  H   H2116     1.0  0.72056  0.18178  0.33875  1.0000
  H   H2117     1.0  0.72905  0.13174  0.35566  1.0000
  H   H2118     1.0  0.74838  0.13319  0.36955  1.0000
  S   S749      1.0  0.60025  0.15808  0.21992  1.0000
  N   N171      1.0  0.67739  0.47256  0.00611  1.0000
  H   H2119     1.0  0.71142  0.26767  0.17015  1.0000
  C   C2138     1.0  0.68218  0.25322  0.19452  1.0000
  C   C2139     1.0  0.63928  0.43416  0.01796  1.0000
  C   C2140     1.0  0.67021  0.24594  0.19505  1.0000
  C   C2141     1.0  0.77377  0.24384  0.31913  1.0000
  C   C2142     1.0  0.77283  0.25560  0.30546  1.0000
  S   S750      1.0  0.76724  0.29499  0.32088  1.0000
  H   H2120     1.0  0.78012  0.34242  0.36157  1.0000
  C   C2143     1.0  0.67272  0.13962  0.99530  1.0000
  C   C2144     1.0  0.77244  0.24784  0.33334  1.0000
  C   C2145     1.0  0.67045  0.14185  0.36798  1.0000
  H   H2121     1.0  0.66758  0.18315  0.99563  1.0000
  C   C2146     1.0  0.74497  0.06887  0.11977  1.0000
  H   H2122     1.0  0.59340  0.12307  0.30244  1.0000
  C   C2147     1.0  0.61923  0.15986  0.18009  1.0000
  C   C2148     1.0  0.77941  0.28123  0.18195  1.0000
  H   H2123     1.0  0.65388  0.27068  0.16425  1.0000
  S   S751      1.0  0.59493  0.13283  0.26405  1.0000
  S   S752      1.0  0.63174  0.13213  0.24460  1.0000
  C   C2149     1.0  0.59818  0.38855  0.00463  1.0000
  C   C2150     1.0  0.62729  0.18893  0.21560  1.0000
  C   C2151     1.0  0.70200  0.14769  0.38370  1.0000
  H   H2124     1.0  0.59386  0.06316  0.26151  1.0000
  H   H2125     1.0  0.67467  0.12733  0.99501  1.0000
  Fe  Fe376     1.0  0.77834  0.04368  0.26990  1.0000
  H   H2126     1.0  0.70380  0.26860  0.19024  1.0000
  C   C2152     1.0  0.75744  0.15085  0.99583  1.0000
  H   H2127     1.0  0.63980  0.43185  0.03023  1.0000
  S   S753      1.0  0.66107  0.38527  0.99082  1.0000
  C   C2153     1.0  0.74077  0.08012  0.14215  1.0000
  H   H2128     1.0  0.73195  0.24761  0.99221  1.0000
  H   H2129     1.0  0.68034  0.13467  0.01688  1.0000
  H   H2130     1.0  0.65526  0.46509  0.11757  1.0000
  C   C2154     1.0  0.71677  0.15062  0.00387  1.0000
  C   C2155     1.0  0.71512  0.13519  0.01093  1.0000
  C   C2156     1.0  0.71340  0.12563  0.00191  1.0000
  S   S754      1.0  0.76996  0.33465  0.28914  1.0000
  C   C2157     1.0  0.64404  0.29811  0.11348  1.0000
  H   H2131     1.0  0.71494  0.13073  0.02334  1.0000
  H   H2132     1.0  0.71177  0.11382  0.00741  1.0000
  C   C2158     1.0  0.67330  0.07594  0.21287  1.0000
  C   C2159     1.0  0.76761  0.20187  0.02920  1.0000
  C   C2160     1.0  0.62962  0.40999  0.02344  1.0000
  H   H2133     1.0  0.68413  0.46046  0.98752  1.0000
  H   H2134     1.0  0.78056  0.29637  0.11668  1.0000
  C   C2161     1.0  0.76846  0.20605  0.05430  1.0000
  C   C2162     1.0  0.76447  0.19763  0.04566  1.0000
  N   N172      1.0  0.69294  0.44744  0.10431  1.0000
  H   H2135     1.0  0.66827  0.13082  0.36673  1.0000
  H   H2136     1.0  0.76631  0.20251  0.06698  1.0000
  H   H2137     1.0  0.75916  0.18767  0.05173  1.0000
  C   C2163     1.0  0.64738  0.08147  0.37771  1.0000
  H   H2138     1.0  0.66645  0.16721  0.02888  1.0000
  H   H2139     1.0  0.71295  0.43495  0.09023  1.0000
  H   H2140     1.0  0.63909  0.13036  0.31415  1.0000
  C   C2164     1.0  0.62874  0.08804  0.36087  1.0000
  C   C2165     1.0  0.63384  0.07927  0.37456  1.0000
  H   H2141     1.0  0.72371  0.09076  0.27718  1.0000
  C   C2166     1.0  0.65606  0.09213  0.36701  1.0000
  C   C2167     1.0  0.65108  0.10069  0.35321  1.0000
  C   C2168     1.0  0.63737  0.09878  0.35026  1.0000
  H   H2142     1.0  0.65766  0.10894  0.34490  1.0000
  H   H2143     1.0  0.63361  0.10553  0.33958  1.0000
  C   C2169     1.0  0.66421  0.06995  0.13671  1.0000
  C   C2170     1.0  0.66626  0.47508  0.03289  1.0000
  H   H2144     1.0  0.78370  0.23319  0.02394  1.0000
  C   C2171     1.0  0.63603  0.29277  0.12874  1.0000
  C   C2172     1.0  0.70953  0.38747  0.10489  1.0000
  C   C2173     1.0  0.72143  0.37452  0.10909  1.0000
  C   C2174     1.0  0.72061  0.36652  0.12488  1.0000
  C   C2175     1.0  0.70812  0.37179  0.13659  1.0000
  C   C2176     1.0  0.69622  0.38472  0.13238  1.0000
  C   C2177     1.0  0.69678  0.39240  0.11656  1.0000
  H   H2145     1.0  0.73135  0.37071  0.10010  1.0000
  H   H2146     1.0  0.72990  0.35663  0.12807  1.0000
  H   H2147     1.0  0.68655  0.38883  0.14143  1.0000
  H   H2148     1.0  0.68756  0.40234  0.11349  1.0000
  Fe  Fe377     1.0  0.64116  0.22471  0.13707  1.0000
  S   S755      1.0  0.78449  0.06020  0.22525  1.0000
  H   H2149     1.0  0.71600  0.13048  0.39893  1.0000
  S   S756      1.0  0.62196  0.10044  0.26936  1.0000
  H   H2150     1.0  0.68563  0.23319  0.16098  1.0000
  H   H2151     1.0  0.68544  0.15385  0.02698  1.0000
  H   H2152     1.0  0.68589  0.46491  0.06919  1.0000
  H   H2153     1.0  0.75626  0.11510  0.03071  1.0000
  S   S757      1.0  0.67363  0.26218  0.13527  1.0000
  H   H2154     1.0  0.71801  0.25135  0.18524  1.0000
  C   C2178     1.0  0.66797  0.39720  0.99854  1.0000
  C   C2179     1.0  0.67281  0.41080  0.98907  1.0000
  C   C2180     1.0  0.67726  0.42072  0.99572  1.0000
  C   C2181     1.0  0.67660  0.41722  0.01192  1.0000
  C   C2182     1.0  0.67185  0.40357  0.02137  1.0000
  C   C2183     1.0  0.66775  0.39348  0.01465  1.0000
  S   S758      1.0  0.78926  0.18222  0.34045  1.0000
  H   H2155     1.0  0.68089  0.43127  0.98834  1.0000
  H   H2156     1.0  0.67122  0.40080  0.03386  1.0000
  H   H2157     1.0  0.66406  0.38295  0.02204  1.0000
  H   H2158     1.0  0.59836  0.01951  0.46474  1.0000
  N   N173      1.0  0.78879  0.29334  0.20207  1.0000
  H   H2159     1.0  0.62007  0.29118  0.08364  1.0000
  Fe  Fe378     1.0  0.65638  0.40883  0.07676  1.0000
  Fe  Fe379     1.0  0.63294  0.10733  0.24384  1.0000
  H   H2160     1.0  0.64183  0.19308  0.16044  1.0000
  H   H2161     1.0  0.74285  0.01789  0.20605  1.0000
  Fe  Fe380     1.0  0.61868  0.25474  0.14422  1.0000
  C   C2184     1.0  0.61496  0.37717  0.98359  1.0000
  S   S759      1.0  0.64607  0.20379  0.12650  1.0000
  C   C2185     1.0  0.77418  0.14156  0.10588  1.0000
  H   H2162     1.0  0.74683  0.05524  0.14304  1.0000
  H   H2163     1.0  0.76893  0.36912  0.28059  1.0000
  S   S760      1.0  0.59421  0.35623  0.04353  1.0000
  N   N174      1.0  0.75181  0.99888  0.22343  1.0000
  C   C2186     1.0  0.67608  0.14386  0.00753  1.0000
  H   H2164     1.0  0.60159  0.12238  0.34086  1.0000
  S   S761      1.0  0.78704  0.30330  0.27430  1.0000
  Fe  Fe381     1.0  0.78381  0.20252  0.37456  1.0000
  C   C2187     1.0  0.70216  0.43294  0.09930  1.0000
  N   N175      1.0  0.63967  0.17265  0.17877  1.0000
  H   H2165     1.0  0.63455  0.37184  0.01229  1.0000
  H   H2166     1.0  0.77585  0.38606  0.27991  1.0000
  C   C2188     1.0  0.60270  0.39575  0.06127  1.0000
  H   H2167     1.0  0.61658  0.41225  0.02704  1.0000
  H   H2168     1.0  0.77685  0.26215  0.13719  1.0000
  H   H2169     1.0  0.71891  0.16803  0.98216  1.0000
  H   H2170     1.0  0.67097  0.44076  0.10914  1.0000
  H   H2171     1.0  0.74018  0.07861  0.15460  1.0000
  H   H2172     1.0  0.78340  0.14605  0.34148  1.0000
  H   H2173     1.0  0.71400  0.07474  0.28489  1.0000
  H   H2174     1.0  0.68604  0.10376  0.23025  1.0000
  H   H2175     1.0  0.70158  0.12039  0.23451  1.0000
  S   S762      1.0  0.61008  0.11261  0.23618  1.0000
  C   C2189     1.0  0.62330  0.20075  0.20270  1.0000
  H   H2176     1.0  0.69790  0.45488  0.99994  1.0000
  H   H2177     1.0  0.60340  0.42029  0.05401  1.0000
  N   N176      1.0  0.62119  0.31835  0.10891  1.0000
  S   S763      1.0  0.59914  0.31889  0.07199  1.0000
  C   C2190     1.0  0.64419  0.44738  0.00759  1.0000
  C   C2191     1.0  0.62064  0.37972  0.07801  1.0000
  H   H2178     1.0  0.61338  0.11492  0.32395  1.0000
  H   H2179     1.0  0.62538  0.36843  0.08480  1.0000
  H   H2180     1.0  0.78413  0.07722  0.29287  1.0000
  C   C2192     1.0  0.76957  0.28320  0.19643  1.0000
  H   H2181     1.0  0.61408  0.29591  0.14571  1.0000
  C   C2193     1.0  0.63408  0.42673  0.99708  1.0000
  H   H2182     1.0  0.77436  0.28964  0.09479  1.0000
  C   C2194     1.0  0.62499  0.37559  0.00613  1.0000
  C   C2195     1.0  0.64329  0.12563  0.29115  1.0000
  S   S764      1.0  0.77119  0.16675  0.11802  1.0000
  H   H2183     1.0  0.78995  0.26550  0.08535  1.0000
  C   C2196     1.0  0.75835  0.00881  0.22913  1.0000
  H   H2184     1.0  0.72880  0.19115  0.01807  1.0000
  H   H2185     1.0  0.77657  0.16682  0.31084  1.0000
  C   C2197     1.0  0.75548  0.12424  0.00615  1.0000
  C   C2198     1.0  0.67790  0.46789  0.02172  1.0000
  C   C2199     1.0  0.62029  0.40744  0.06825  1.0000
  H   H2186     1.0  0.70808  0.15691  0.38239  1.0000
  C   C2200     1.0  0.69181  0.47246  0.10929  1.0000
  C   C2201     1.0  0.60882  0.31960  0.02684  1.0000
  H   H2187     1.0  0.66441  0.34267  0.16215  1.0000
  H   H2188     1.0  0.64358  0.10312  0.14894  1.0000
  H   H2189     1.0  0.78365  0.30483  0.22117  1.0000
  S   S765      1.0  0.78182  0.21349  0.39485  1.0000
  H   H2190     1.0  0.59501  0.18644  0.19651  1.0000
  N   N177      1.0  0.71574  0.21531  0.11614  1.0000
  C   C2202     1.0  0.72273  0.20741  0.12853  1.0000
  C   C2203     1.0  0.71630  0.20784  0.10474  1.0000
  C   C2204     1.0  0.73013  0.19151  0.12995  1.0000
  C   C2205     1.0  0.72331  0.19188  0.10594  1.0000
  C   C2206     1.0  0.73023  0.18369  0.11866  1.0000
  C   C2207     1.0  0.70853  0.23211  0.11446  1.0000
  H   H2191     1.0  0.72292  0.21348  0.13722  1.0000
  H   H2192     1.0  0.71149  0.21423  0.09451  1.0000
  H   H2193     1.0  0.73608  0.18536  0.13951  1.0000
  H   H2194     1.0  0.72359  0.18602  0.09688  1.0000
  H   H2195     1.0  0.73604  0.17140  0.11957  1.0000
  H   H2196     1.0  0.69781  0.23515  0.10958  1.0000
  H   H2197     1.0  0.70486  0.23566  0.12596  1.0000
  H   H2198     1.0  0.71714  0.23912  0.10660  1.0000
  C   C2208     1.0  0.71849  0.20080  0.02065  1.0000
  C   C2209     1.0  0.77071  0.27137  0.30595  1.0000
  H   H2199     1.0  0.71309  0.45696  0.10051  1.0000
  H   H2200     1.0  0.74738  0.05867  0.11475  1.0000
  Fe  Fe382     1.0  0.77365  0.19186  0.11002  1.0000
  H   H2201     1.0  0.69641  0.47364  0.98620  1.0000
  N   N178      1.0  0.63459  0.42390  0.01257  1.0000
  S   S766      1.0  0.62326  0.13028  0.29085  1.0000
  C   C2210     1.0  0.62738  0.37233  0.99140  1.0000
  S   S767      1.0  0.64129  0.39084  0.08699  1.0000
  C   C2211     1.0  0.64405  0.45017  0.99168  1.0000
  H   H2202     1.0  0.65605  0.29216  0.10934  1.0000
  H   H2203     1.0  0.69533  0.42824  0.09390  1.0000
  C   C2212     1.0  0.59762  0.30621  0.09073  1.0000
  H   H2204     1.0  0.59854  0.32086  0.00166  1.0000
  S   S768      1.0  0.71192  0.98932  0.17473  1.0000
  C   C2213     1.0  0.61032  0.38378  0.01280  1.0000
  H   H2205     1.0  0.67386  0.14894  0.35591  1.0000
  H   H2206     1.0  0.76702  0.29018  0.21787  1.0000
  H   H2207     1.0  0.64178  0.28270  0.13639  1.0000
  H   H2208     1.0  0.66660  0.47127  0.04528  1.0000
  C   C2214     1.0  0.67549  0.47477  0.11417  1.0000
  H   H2209     1.0  0.74943  0.01964  0.23126  1.0000
  C   C2215     1.0  0.61476  0.17125  0.16728  1.0000
  N   N179      1.0  0.75580  0.13703  0.99386  1.0000
  H   H2210     1.0  0.75139  0.14683  0.31444  1.0000
  C   C2216     1.0  0.60846  0.17492  0.21434  1.0000
  S   S769      1.0  0.61829  0.22915  0.15446  1.0000
  H   H2211     1.0  0.69766  0.48163  0.10870  1.0000
  H   H2212     1.0  0.64350  0.08318  0.15932  1.0000
  C   C2217     1.0  0.76656  0.16491  0.32097  1.0000
  N   N180      1.0  0.67531  0.35192  0.13828  1.0000
  C   C2218     1.0  0.66155  0.36200  0.13546  1.0000
  C   C2219     1.0  0.68851  0.35099  0.12645  1.0000
  C   C2220     1.0  0.66070  0.37125  0.12040  1.0000
  C   C2221     1.0  0.68807  0.36006  0.11126  1.0000
  C   C2222     1.0  0.67406  0.37022  0.10825  1.0000
  H   H2213     1.0  0.68683  0.07671  0.24626  1.0000
  H   H2214     1.0  0.65113  0.36297  0.14485  1.0000
  H   H2215     1.0  0.69955  0.34341  0.12880  1.0000
  H   H2216     1.0  0.64978  0.37920  0.11811  1.0000
  H   H2217     1.0  0.69863  0.35951  0.10196  1.0000
  H   H2218     1.0  0.67356  0.37742  0.09654  1.0000
  H   H2219     1.0  0.71731  0.10987  0.25501  1.0000
  C   C2223     1.0  0.70649  0.13282  0.39293  1.0000
  H   H2220     1.0  0.70662  0.24595  0.16070  1.0000
  H   H2221     1.0  0.75925  0.14018  0.03442  1.0000
  C   C2224     1.0  0.66722  0.15131  0.98321  1.0000
  H   H2222     1.0  0.65158  0.16770  0.19746  1.0000
  Fe  Fe383     1.0  0.78133  0.20773  0.34085  1.0000
  H   H2223     1.0  0.77306  0.23878  0.34394  1.0000
  H   H2224     1.0  0.73149  0.07329  0.26922  1.0000
  C   C2225     1.0  0.62057  0.30032  0.13402  1.0000
  C   C2226     1.0  0.63886  0.43986  0.98638  1.0000
  H   H2225     1.0  0.59823  0.06010  0.28690  1.0000
  H   H2226     1.0  0.76549  0.03888  0.19543  1.0000
  N   N181      1.0  0.72395  0.21501  0.01915  1.0000
  C   C2227     1.0  0.72504  0.22589  0.00523  1.0000
  C   C2228     1.0  0.72886  0.21682  0.03140  1.0000
  C   C2229     1.0  0.73097  0.23913  0.00337  1.0000
  C   C2230     1.0  0.73488  0.22991  0.02994  1.0000
  C   C2231     1.0  0.73600  0.24109  0.01580  1.0000
  H   H2227     1.0  0.71159  0.19712  0.03275  1.0000
  H   H2228     1.0  0.60117  0.31882  0.12804  1.0000
  H   H2229     1.0  0.72851  0.20791  0.04224  1.0000
  S   S770      1.0  0.60493  0.04304  0.38590  1.0000
  H   H2230     1.0  0.78568  0.11746  0.35171  1.0000
  S   S771      1.0  0.77934  0.23456  0.09827  1.0000
  H   H2231     1.0  0.66413  0.06170  0.14797  1.0000
  Fe  Fe384     1.0  0.77807  0.21955  0.08294  1.0000
  C   C2232     1.0  0.77540  0.21888  0.04648  1.0000
  N   N182      1.0  0.64586  0.07742  0.32132  1.0000
  C   C2233     1.0  0.64593  0.06639  0.33511  1.0000
  C   C2234     1.0  0.65854  0.08414  0.31416  1.0000
  C   C2235     1.0  0.65854  0.06256  0.34257  1.0000
  C   C2236     1.0  0.67133  0.08063  0.32129  1.0000
  C   C2237     1.0  0.67122  0.06988  0.33567  1.0000
  C   C2238     1.0  0.63236  0.08166  0.31388  1.0000
  H   H2232     1.0  0.63592  0.06095  0.34077  1.0000
  H   H2233     1.0  0.65871  0.09247  0.30299  1.0000
  H   H2234     1.0  0.65822  0.05434  0.35386  1.0000
  H   H2235     1.0  0.68112  0.08642  0.31579  1.0000
  H   H2236     1.0  0.68084  0.06740  0.34158  1.0000
  H   H2237     1.0  0.63385  0.07344  0.30624  1.0000
  H   H2238     1.0  0.62122  0.08127  0.32291  1.0000
  H   H2239     1.0  0.63114  0.09384  0.30658  1.0000
  S   S772      1.0  0.78135  0.22910  0.05685  1.0000
  Fe  Fe385     1.0  0.60811  0.13721  0.23877  1.0000
  H   H2240     1.0  0.61961  0.27340  0.10976  1.0000
  C   C2239     1.0  0.67152  0.23853  0.18303  1.0000
  H   H2241     1.0  0.69756  0.99826  0.14747  1.0000
  C   C2240     1.0  0.61155  0.19983  0.19594  1.0000
  C   C2241     1.0  0.77700  0.13994  0.33749  1.0000
  C   C2242     1.0  0.68473  0.23847  0.17065  1.0000
  H   H2242     1.0  0.66408  0.16770  0.17800  1.0000
  H   H2243     1.0  0.62341  0.16680  0.23103  1.0000
  C   C2243     1.0  0.70771  0.26047  0.18203  1.0000
  S   S773      1.0  0.63371  0.21607  0.19491  1.0000
  C   C2244     1.0  0.62002  0.17597  0.22130  1.0000
  Fe  Fe386     1.0  0.65320  0.25002  0.14344  1.0000
  C   C2245     1.0  0.66386  0.27609  0.16080  1.0000
  H   H2244     1.0  0.60476  0.17098  0.16307  1.0000
  H   H2245     1.0  0.68757  0.22422  0.08458  1.0000
  H   H2246     1.0  0.65124  0.11958  0.26846  1.0000
  H   H2247     1.0  0.76703  0.17066  0.33012  1.0000
  S   S774      1.0  0.65621  0.22409  0.15312  1.0000
  C   C2246     1.0  0.63641  0.31104  0.10366  1.0000
  C   C2247     1.0  0.63189  0.16065  0.18563  1.0000
  C   C2248     1.0  0.68689  0.12415  0.38599  1.0000
  Fe  Fe387     1.0  0.77892  0.30898  0.29825  1.0000
  H   H2248     1.0  0.68091  0.25925  0.20375  1.0000
  H   H2249     1.0  0.63491  0.15204  0.19594  1.0000
  H   H2250     1.0  0.66064  0.09091  0.15624  1.0000
  H   H2251     1.0  0.63399  0.09153  0.21890  1.0000
  H   H2252     1.0  0.63035  0.41857  0.99288  1.0000
  H   H2253     1.0  0.78524  0.31825  0.42667  1.0000
  C   C2249     1.0  0.77461  0.28903  0.20652  1.0000
  H   H2254     1.0  0.72159  0.11694  0.10874  1.0000
  H   H2255     1.0  0.75338  0.11821  0.32447  1.0000
  H   H2256     1.0  0.75805  0.28034  0.19985  1.0000
  N   N183      1.0  0.73834  0.09691  0.11684  1.0000
  C   C2250     1.0  0.73761  0.09512  0.13251  1.0000
  C   C2251     1.0  0.74179  0.08402  0.11048  1.0000
  H   H2257     1.0  0.76299  0.04776  0.21943  1.0000
  N   N184      1.0  0.59497  0.31433  0.02666  1.0000
  C   C2252     1.0  0.76940  0.27540  0.32014  1.0000
  H   H2258     1.0  0.76175  0.38791  0.26854  1.0000
  H   H2259     1.0  0.73962  0.12109  0.11004  1.0000
  H   H2260     1.0  0.74187  0.08538  0.09819  1.0000
  H   H2261     1.0  0.71081  0.20262  0.01236  1.0000
  H   H2262     1.0  0.65303  0.18590  0.18381  1.0000
  Fe  Fe388     1.0  0.59905  0.06599  0.36887  1.0000
  H   H2263     1.0  0.77644  0.12141  0.09660  1.0000
  N   N185      1.0  0.60056  0.38509  0.99027  1.0000
  C   C2253     1.0  0.67962  0.47573  0.07288  1.0000
  C   C2254     1.0  0.60146  0.99992  0.35739  1.0000
  H   H2264     1.0  0.65338  0.10848  0.12135  1.0000
  H   H2265     1.0  0.60820  0.32156  0.03859  1.0000
  C   C2255     1.0  0.76015  0.12424  0.32807  1.0000
  H   H2266     1.0  0.64268  0.31512  0.09179  1.0000
  C   C2256     1.0  0.66532  0.16705  0.98336  1.0000
  H   H2267     1.0  0.77375  0.25253  0.29448  1.0000
  H   H2268     1.0  0.62729  0.07095  0.38279  1.0000
  C   C2257     1.0  0.62647  0.39285  0.07701  1.0000
  C   C2258     1.0  0.77224  0.38005  0.27276  1.0000
  C   C2259     1.0  0.65469  0.12053  0.27860  1.0000
  C   C2260     1.0  0.75913  0.14040  0.32242  1.0000
  C   C2261     1.0  0.61011  0.29334  0.09323  1.0000
  H   H2269     1.0  0.68357  0.34644  0.15932  1.0000
  H   H2270     1.0  0.66454  0.22644  0.10698  1.0000
  C   C2262     1.0  0.67140  0.06445  0.12289  1.0000
  C   C2263     1.0  0.66500  0.09091  0.10784  1.0000
  C   C2264     1.0  0.67179  0.07503  0.10838  1.0000
  H   H2271     1.0  0.67708  0.05216  0.12345  1.0000
  H   H2272     1.0  0.66579  0.09934  0.09666  1.0000
  H   H2273     1.0  0.67784  0.07099  0.09763  1.0000
  H   H2274     1.0  0.73908  0.23110  0.03958  1.0000
  C   C2265     1.0  0.77216  0.13397  0.09529  1.0000
  S   S775      1.0  0.77461  0.20426  0.12789  1.0000
  C   C2266     1.0  0.73456  0.11271  0.10706  1.0000
  N   N186      1.0  0.76741  0.14805  0.32725  1.0000
  C   C2267     1.0  0.60992  0.28324  0.10808  1.0000
  C   C2268     1.0  0.71325  0.13152  0.98588  1.0000
  H   H2275     1.0  0.63885  0.36620  0.98602  1.0000
  H   H2276     1.0  0.75417  0.11329  0.00458  1.0000
  H   H2277     1.0  0.75965  0.16329  0.01196  1.0000
  C   C2269     1.0  0.65099  0.09105  0.15079  1.0000
  H   H2278     1.0  0.75529  0.17086  0.31721  1.0000
  N   N187      1.0  0.68291  0.13864  0.37659  1.0000
  S   S776      1.0  0.61211  0.00873  0.36471  1.0000
  S   S777      1.0  0.64042  0.25008  0.12546  1.0000
  N   N188      1.0  0.71082  0.08766  0.26210  1.0000
  C   C2270     1.0  0.70254  0.07836  0.25963  1.0000
  C   C2271     1.0  0.71068  0.10253  0.25311  1.0000
  C   C2272     1.0  0.69346  0.08405  0.24820  1.0000
  C   C2273     1.0  0.70180  0.10856  0.24150  1.0000
  C   C2274     1.0  0.69309  0.09925  0.23912  1.0000
  C   C2275     1.0  0.72052  0.08128  0.27392  1.0000
  H   H2279     1.0  0.70317  0.06637  0.26631  1.0000
  H   H2280     1.0  0.62444  0.41768  0.06774  1.0000
  C   C2276     1.0  0.75834  0.13925  0.02302  1.0000
  H   H2281     1.0  0.65119  0.07482  0.38841  1.0000
  H   H2282     1.0  0.65986  0.24624  0.20459  1.0000
  H   H2283     1.0  0.68622  0.06202  0.19570  1.0000
  Fe  Fe389     1.0  0.61887  0.12559  0.26957  1.0000
  C   C2277     1.0  0.66383  0.12253  0.30490  1.0000
  H   H2284     1.0  0.66717  0.12313  0.31516  1.0000
  C   C2278     1.0  0.65856  0.08427  0.21948  1.0000
  C   C2279     1.0  0.67498  0.27422  0.14691  1.0000
  N   N189      1.0  0.67440  0.15933  0.00747  1.0000
  H   H2285     1.0  0.68136  0.32974  0.15357  1.0000
  C   C2280     1.0  0.67617  0.34226  0.15407  1.0000
  C   C2281     1.0  0.67696  0.44951  0.10933  1.0000
  C   C2282     1.0  0.66800  0.46321  0.11429  1.0000
  C   C2283     1.0  0.73793  0.99628  0.20549  1.0000
  C   C2284     1.0  0.66943  0.21541  0.10330  1.0000
  H   H2286     1.0  0.64855  0.45506  0.01184  1.0000
  C   C2285     1.0  0.77827  0.12377  0.34338  1.0000
  N   N190      1.0  0.78720  0.25783  0.38709  1.0000
  H   H2287     1.0  0.68354  0.07519  0.21719  1.0000
  H   H2288     1.0  0.65750  0.28549  0.18162  1.0000
  S   S778      1.0  0.63148  0.25605  0.16171  1.0000
  Fe  Fe390     1.0  0.63330  0.22995  0.17003  1.0000
  C   C2286     1.0  0.74451  0.06694  0.13568  1.0000
  C   C2287     1.0  0.66327  0.47853  0.07824  1.0000
  H   H2289     1.0  0.68383  0.17358  0.01602  1.0000
  C   C2288     1.0  0.78085  0.26366  0.40042  1.0000
  H   H2290     1.0  0.60064  0.33340  0.10144  1.0000
  S   S779      1.0  0.59505  0.05459  0.35168  1.0000
  H   H2291     1.0  0.76975  0.28042  0.29543  1.0000
  C   C2289     1.0  0.68959  0.46503  0.99441  1.0000
  Fe  Fe391     1.0  0.78029  0.32927  0.26509  1.0000
  C   C2290     1.0  0.77693  0.25364  0.37963  1.0000
  H   H2292     1.0  0.78513  0.32067  0.34236  1.0000
  C   C2291     1.0  0.60191  0.12228  0.32855  1.0000
  H   H2293     1.0  0.75756  0.16101  0.98616  1.0000
  C   C2292     1.0  0.78161  0.37200  0.24756  1.0000
  H   H2294     1.0  0.60452  0.37093  0.07068  1.0000
  H   H2295     1.0  0.77570  0.27660  0.17406  1.0000
  H   H2296     1.0  0.77079  0.26433  0.37239  1.0000
  H   H2297     1.0  0.78227  0.34137  0.33286  1.0000
  H   H2298     1.0  0.77997  0.13482  0.11538  1.0000
  H   H2299     1.0  0.61965  0.31069  0.02377  1.0000
  S   S780      1.0  0.74903  0.19615  0.98160  1.0000
  N   N191      1.0  0.78498  0.37611  0.25950  1.0000
  H   H2300     1.0  0.60127  0.13449  0.32145  1.0000
  H   H2301     1.0  0.76964  0.37163  0.24789  1.0000
  H   H2302     1.0  0.78896  0.34520  0.41387  1.0000
  H   H2303     1.0  0.61615  0.34301  0.10005  1.0000
  C   C2293     1.0  0.78775  0.28609  0.11231  1.0000
  C   C2294     1.0  0.79033  0.26817  0.40750  1.0000
  H   H2304     1.0  0.78749  0.15006  0.05245  1.0000
  H   H2305     1.0  0.61776  0.33138  0.08612  1.0000
  C   C2295     1.0  0.78412  0.28230  0.09997  1.0000
  H   H2306     1.0  0.78896  0.24076  0.15710  1.0000
  H   H2307     1.0  0.78551  0.03816  0.32240  1.0000
  H   H2308     1.0  0.78539  0.27272  0.41813  1.0000
  H   H2309     1.0  0.79084  0.36402  0.22582  1.0000
  C   C2296     1.0  0.59147  0.31555  0.01258  1.0000
  H   H2310     1.0  0.79098  0.22671  0.13651  1.0000
  Fe  Fe392     1.0  0.67042  0.39345  0.93108  1.0000
  S   S781      1.0  0.65028  0.41281  0.92416  1.0000
  S   S782      1.0  0.68846  0.38216  0.91220  1.0000
  S   S783      1.0  0.67594  0.40679  0.94591  1.0000
  C   C2297     1.0  0.77402  0.21311  0.89367  1.0000
  S   S784      1.0  0.62312  0.22317  0.88105  1.0000
  H   H2311     1.0  0.72150  0.27458  0.77704  1.0000
  Fe  Fe393     1.0  0.65419  0.42476  0.94098  1.0000
  S   S785      1.0  0.64852  0.45123  0.93742  1.0000
  H   H2312     1.0  0.74137  0.11587  0.68489  1.0000
  H   H2313     1.0  0.73699  0.09068  0.67494  1.0000
  H   H2314     1.0  0.69885  0.10164  0.69051  1.0000
  H   H2315     1.0  0.67628  0.46869  0.91457  1.0000
  C   C2298     1.0  0.69945  0.11255  0.70841  1.0000
  C   C2299     1.0  0.67984  0.16985  0.64905  1.0000
  Fe  Fe394     1.0  0.76375  0.18862  0.69849  1.0000
  S   S786      1.0  0.74828  0.19942  0.68106  1.0000
  S   S787      1.0  0.76412  0.19615  0.72010  1.0000
  Fe  Fe395     1.0  0.78016  0.16110  0.68294  1.0000
  S   S788      1.0  0.76644  0.16940  0.66380  1.0000
  C   C2300     1.0  0.64711  0.10426  0.76423  1.0000
  Fe  Fe396     1.0  0.77032  0.19321  0.66293  1.0000
  S   S789      1.0  0.77554  0.21250  0.64147  1.0000
  Fe  Fe397     1.0  0.74547  0.17494  0.68320  1.0000
  S   S790      1.0  0.72134  0.16917  0.68881  1.0000
  C   C2301     1.0  0.69882  0.98940  0.82831  1.0000
  S   S791      1.0  0.75900  0.16478  0.70230  1.0000
  C   C2302     1.0  0.59719  0.20839  0.79672  1.0000
  S   S792      1.0  0.63781  0.41328  0.96147  1.0000
  H   H2316     1.0  0.62114  0.05322  0.88702  1.0000
  S   S793      1.0  0.61165  0.39774  0.94525  1.0000
  H   H2317     1.0  0.75989  0.24824  0.91876  1.0000
  H   H2318     1.0  0.59487  0.24371  0.89330  1.0000
  Fe  Fe398     1.0  0.78244  0.28221  0.75555  1.0000
  S   S794      1.0  0.75932  0.29536  0.76782  1.0000
  C   C2303     1.0  0.78208  0.14006  0.75041  1.0000
  H   H2319     1.0  0.63713  0.12482  0.85940  1.0000
  C   C2304     1.0  0.67342  0.22916  0.89958  1.0000
  C   C2305     1.0  0.62112  0.15465  0.85806  1.0000
  Fe  Fe399     1.0  0.75017  0.22028  0.96694  1.0000
  H   H2320     1.0  0.77645  0.21740  0.69173  1.0000
  S   S795      1.0  0.72906  0.23931  0.96249  1.0000
  H   H2321     1.0  0.65047  0.48053  0.91018  1.0000
  C   C2306     1.0  0.62717  0.10374  0.83470  1.0000
  H   H2322     1.0  0.63808  0.48077  0.94630  1.0000
  H   H2323     1.0  0.70241  0.27842  0.80215  1.0000
  H   H2324     1.0  0.63596  0.37276  0.93337  1.0000
  C   C2307     1.0  0.65395  0.17523  0.67329  1.0000
  H   H2325     1.0  0.61024  0.16235  0.86341  1.0000
  Fe  Fe400     1.0  0.70935  0.15940  0.92373  1.0000
  S   S796      1.0  0.72454  0.17692  0.91252  1.0000
  Fe  Fe401     1.0  0.69566  0.13360  0.92078  1.0000
  S   S797      1.0  0.69291  0.12457  0.90099  1.0000
  Fe  Fe402     1.0  0.67554  0.15763  0.93969  1.0000
  S   S798      1.0  0.65169  0.17182  0.94792  1.0000
  S   S799      1.0  0.68863  0.15997  0.91475  1.0000
  Fe  Fe403     1.0  0.69639  0.28922  0.85760  1.0000
  S   S800      1.0  0.72111  0.27534  0.85448  1.0000
  S   S801      1.0  0.67822  0.28702  0.84638  1.0000
  Fe  Fe404     1.0  0.69992  0.30508  0.88138  1.0000
  S   S802      1.0  0.72524  0.29236  0.88060  1.0000
  S   S803      1.0  0.68240  0.31962  0.89799  1.0000
  Fe  Fe405     1.0  0.72745  0.29744  0.85438  1.0000
  S   S804      1.0  0.75072  0.30063  0.83826  1.0000
  Fe  Fe406     1.0  0.71726  0.27112  0.88053  1.0000
  S   S805      1.0  0.72673  0.24637  0.89210  1.0000
  S   S806      1.0  0.70281  0.31210  0.85507  1.0000
  S   S807      1.0  0.69188  0.28299  0.88377  1.0000
  Fe  Fe407     1.0  0.68058  0.05048  0.88753  1.0000
  S   S808      1.0  0.69241  0.05394  0.90478  1.0000
  Fe  Fe408     1.0  0.68533  0.03910  0.85780  1.0000
  S   S809      1.0  0.65957  0.04496  0.85788  1.0000
  S   S810      1.0  0.70389  0.02773  0.83973  1.0000
  Fe  Fe409     1.0  0.65691  0.03427  0.88361  1.0000
  S   S811      1.0  0.63864  0.02019  0.89709  1.0000
  S   S812      1.0  0.68562  0.06221  0.86203  1.0000
  S   S813      1.0  0.68270  0.02669  0.88319  1.0000
  Fe  Fe410     1.0  0.76511  0.03538  0.75412  1.0000
  S   S814      1.0  0.76867  0.05211  0.76649  1.0000
  S   S815      1.0  0.77036  0.00916  0.76312  1.0000
  Fe  Fe411     1.0  0.75300  0.06143  0.72850  1.0000
  S   S816      1.0  0.75507  0.08042  0.73855  1.0000
  S   S817      1.0  0.74573  0.06726  0.70552  1.0000
  H   H2326     1.0  0.61613  0.06288  0.82627  1.0000
  H   H2327     1.0  0.59489  0.07634  0.56846  1.0000
  Fe  Fe412     1.0  0.74516  0.06601  0.76176  1.0000
  S   S818      1.0  0.72603  0.07766  0.77923  1.0000
  S   S819      1.0  0.77706  0.04695  0.73029  1.0000
  S   S820      1.0  0.74079  0.04831  0.75136  1.0000
  Fe  Fe413     1.0  0.65911  0.09771  0.66087  1.0000
  Fe  Fe414     1.0  0.66679  0.09408  0.69241  1.0000
  S   S821      1.0  0.66501  0.11980  0.68923  1.0000
  S   S822      1.0  0.67241  0.07899  0.71520  1.0000
  Fe  Fe415     1.0  0.67854  0.11889  0.66468  1.0000
  S   S823      1.0  0.69953  0.13030  0.65339  1.0000
  H   H2328     1.0  0.70044  0.09579  0.92442  1.0000
  S   S824      1.0  0.68197  0.09276  0.66851  1.0000
  C   C2308     1.0  0.63812  0.08237  0.64361  1.0000
  H   H2329     1.0  0.61702  0.03418  0.83225  1.0000
  H   H2330     1.0  0.69789  0.99740  0.83604  1.0000
  H   H2331     1.0  0.68768  0.11140  0.71494  1.0000
  H   H2332     1.0  0.73034  0.12661  0.70894  1.0000
  H   H2333     1.0  0.71875  0.09808  0.66839  1.0000
  H   H2334     1.0  0.63617  0.19390  0.76616  1.0000
  S   S825      1.0  0.71783  0.13329  0.92776  1.0000
  S   S826      1.0  0.62109  0.13924  0.68683  1.0000
  S   S827      1.0  0.60830  0.34304  0.91662  1.0000
  H   H2335     1.0  0.72848  0.00976  0.76949  1.0000
  Fe  Fe416     1.0  0.77834  0.06503  0.74223  1.0000
  C   C2309     1.0  0.72546  0.06863  0.70904  1.0000
  C   C2310     1.0  0.71896  0.06724  0.69732  1.0000
  C   C2311     1.0  0.70262  0.06956  0.69955  1.0000
  C   C2312     1.0  0.69279  0.07332  0.71348  1.0000
  C   C2313     1.0  0.69932  0.07406  0.72549  1.0000
  C   C2314     1.0  0.71566  0.07182  0.72322  1.0000
  H   H2336     1.0  0.72652  0.06447  0.68646  1.0000
  H   H2337     1.0  0.69764  0.06849  0.69046  1.0000
  H   H2338     1.0  0.69173  0.07703  0.73625  1.0000
  H   H2339     1.0  0.72062  0.07309  0.73224  1.0000
  C   C2315     1.0  0.70959  0.04158  0.82270  1.0000
  C   C2316     1.0  0.72309  0.03709  0.81152  1.0000
  C   C2317     1.0  0.72803  0.04811  0.79801  1.0000
  C   C2318     1.0  0.71961  0.06370  0.79579  1.0000
  C   C2319     1.0  0.70609  0.06818  0.80697  1.0000
  C   C2320     1.0  0.70102  0.05710  0.82038  1.0000
  H   H2340     1.0  0.72982  0.02511  0.81331  1.0000
  H   H2341     1.0  0.73848  0.04456  0.78942  1.0000
  H   H2342     1.0  0.69951  0.08022  0.80523  1.0000
  H   H2343     1.0  0.69047  0.06060  0.82887  1.0000
  C   C2321     1.0  0.67532  0.26776  0.85139  1.0000
  C   C2322     1.0  0.68686  0.25510  0.85673  1.0000
  C   C2323     1.0  0.68457  0.23973  0.86035  1.0000
  C   C2324     1.0  0.67052  0.23698  0.85912  1.0000
  H   H2344     1.0  0.77623  0.10327  0.76436  1.0000
  C   C2325     1.0  0.66132  0.26502  0.85008  1.0000
  H   H2345     1.0  0.69766  0.25713  0.85786  1.0000
  H   H2346     1.0  0.69365  0.23001  0.86424  1.0000
  H   H2347     1.0  0.62531  0.18854  0.75529  1.0000
  H   H2348     1.0  0.78499  0.14923  0.75390  1.0000
  C   C2326     1.0  0.69231  0.10492  0.90280  1.0000
  C   C2327     1.0  0.69675  0.09301  0.91533  1.0000
  C   C2328     1.0  0.69667  0.07736  0.91593  1.0000
  C   C2329     1.0  0.69185  0.07365  0.90420  1.0000
  C   C2330     1.0  0.68718  0.08564  0.89182  1.0000
  C   C2331     1.0  0.68760  0.10119  0.89103  1.0000
  H   H2349     1.0  0.70029  0.06812  0.92553  1.0000
  H   H2350     1.0  0.68339  0.08293  0.88277  1.0000
  H   H2351     1.0  0.68422  0.11035  0.88127  1.0000
  C   C2332     1.0  0.63950  0.17492  0.93488  1.0000
  C   C2333     1.0  0.63559  0.18093  0.90826  1.0000
  C   C2334     1.0  0.64558  0.17768  0.91864  1.0000
  H   H2352     1.0  0.64026  0.18342  0.89573  1.0000
  H   H2353     1.0  0.65785  0.17785  0.91402  1.0000
  C   C2335     1.0  0.72731  0.24136  0.94324  1.0000
  C   C2336     1.0  0.73331  0.22849  0.93614  1.0000
  C   C2337     1.0  0.73285  0.23006  0.92049  1.0000
  C   C2338     1.0  0.72635  0.24456  0.91187  1.0000
  C   C2339     1.0  0.72006  0.25747  0.91897  1.0000
  C   C2340     1.0  0.72048  0.25584  0.93473  1.0000
  H   H2354     1.0  0.73812  0.21729  0.94286  1.0000
  H   H2355     1.0  0.73754  0.22002  0.91509  1.0000
  H   H2356     1.0  0.71494  0.26872  0.91236  1.0000
  H   H2357     1.0  0.71580  0.26584  0.94021  1.0000
  C   C2341     1.0  0.75939  0.16901  0.94320  1.0000
  C   C2342     1.0  0.74778  0.18278  0.94185  1.0000
  C   C2343     1.0  0.73714  0.18529  0.93229  1.0000
  C   C2344     1.0  0.73788  0.17378  0.92440  1.0000
  H   H2358     1.0  0.74700  0.19141  0.94830  1.0000
  H   H2359     1.0  0.72816  0.19599  0.93127  1.0000
  C   C2345     1.0  0.75721  0.29732  0.78719  1.0000
  C   C2346     1.0  0.77026  0.29431  0.79383  1.0000
  C   C2347     1.0  0.76816  0.29547  0.80946  1.0000
  C   C2348     1.0  0.75301  0.29934  0.81866  1.0000
  C   C2349     1.0  0.73994  0.30218  0.81211  1.0000
  C   C2350     1.0  0.74206  0.30141  0.79635  1.0000
  H   H2360     1.0  0.78198  0.29133  0.78687  1.0000
  H   H2361     1.0  0.77833  0.29336  0.81441  1.0000
  H   H2362     1.0  0.72822  0.30531  0.81908  1.0000
  H   H2363     1.0  0.73192  0.30385  0.79128  1.0000
  C   C2351     1.0  0.62506  0.09449  0.64665  1.0000
  C   C2352     1.0  0.62929  0.29260  0.88886  1.0000
  C   C2353     1.0  0.62153  0.10369  0.82179  1.0000
  C   C2354     1.0  0.70221  0.18890  0.87125  1.0000
  C   C2355     1.0  0.71486  0.27389  0.80195  1.0000
  C   C2356     1.0  0.64403  0.31567  0.91538  1.0000
  C   C2357     1.0  0.67460  0.20482  0.91817  1.0000
  C   C2358     1.0  0.62377  0.35918  0.92662  1.0000
  C   C2359     1.0  0.71569  0.14666  0.97881  1.0000
  C   C2360     1.0  0.62069  0.14587  0.70338  1.0000
  C   C2361     1.0  0.71606  0.15759  0.67920  1.0000
  C   C2362     1.0  0.72570  0.15305  0.66554  1.0000
  C   C2363     1.0  0.72052  0.14463  0.65775  1.0000
  C   C2364     1.0  0.70583  0.14046  0.66372  1.0000
  C   C2365     1.0  0.69630  0.14487  0.67748  1.0000
  C   C2366     1.0  0.70136  0.15346  0.68513  1.0000
  H   H2364     1.0  0.73698  0.15633  0.66079  1.0000
  H   H2365     1.0  0.72791  0.14140  0.64701  1.0000
  H   H2366     1.0  0.68488  0.14196  0.68208  1.0000
  H   H2367     1.0  0.69380  0.15703  0.69565  1.0000
  H   H2368     1.0  0.71235  0.02883  0.78590  1.0000
  H   H2369     1.0  0.68653  0.48242  0.89952  1.0000
  H   H2370     1.0  0.60122  0.17773  0.93492  1.0000
  H   H2371     1.0  0.66768  0.15506  0.64402  1.0000
  C   C2367     1.0  0.66688  0.18195  0.67067  1.0000
  S   S828      1.0  0.77325  0.16641  0.95435  1.0000
  C   C2368     1.0  0.59547  0.36790  0.93117  1.0000
  H   H2372     1.0  0.76893  0.14663  0.93663  1.0000
  N   N192      1.0  0.69721  0.16404  0.87194  1.0000
  H   H2373     1.0  0.62281  0.06576  0.56990  1.0000
  C   C2369     1.0  0.77174  0.21290  0.71699  1.0000
  C   C2370     1.0  0.77272  0.21782  0.72999  1.0000
  C   C2371     1.0  0.77919  0.23087  0.72784  1.0000
  S   S829      1.0  0.76626  0.22465  0.97927  1.0000
  S   S830      1.0  0.70947  0.12010  0.97502  1.0000
  C   C2372     1.0  0.77724  0.22109  0.70180  1.0000
  H   H2374     1.0  0.76847  0.21152  0.74176  1.0000
  H   H2375     1.0  0.77994  0.23454  0.73793  1.0000
  C   C2373     1.0  0.71335  0.01631  0.79065  1.0000
  C   C2374     1.0  0.60000  0.18623  0.83469  1.0000
  N   N193      1.0  0.63882  0.30778  0.90627  1.0000
  H   H2376     1.0  0.67754  0.15345  0.88090  1.0000
  H   H2377     1.0  0.63884  0.44184  0.97401  1.0000
  S   S831      1.0  0.65543  0.37976  0.95130  1.0000
  C   C2375     1.0  0.65361  0.39148  0.89543  1.0000
  C   C2376     1.0  0.63919  0.37465  0.89079  1.0000
  S   S832      1.0  0.78326  0.25715  0.75573  1.0000
  H   H2378     1.0  0.66107  0.17621  0.97396  1.0000
  N   N194      1.0  0.66668  0.21684  0.90841  1.0000
  C   C2377     1.0  0.66720  0.16280  0.65145  1.0000
  Fe  Fe417     1.0  0.64386  0.12273  0.67968  1.0000
  H   H2379     1.0  0.65256  0.10838  0.87902  1.0000
  H   H2380     1.0  0.76686  0.28294  0.86503  1.0000
  H   H2381     1.0  0.60011  0.17909  0.77177  1.0000
  C   C2378     1.0  0.78453  0.24476  0.90742  1.0000
  H   H2382     1.0  0.66388  0.08099  0.78076  1.0000
  H   H2383     1.0  0.64426  0.21077  0.91826  1.0000
  H   H2384     1.0  0.64426  0.22789  0.90256  1.0000
  H   H2385     1.0  0.76162  0.21802  0.89378  1.0000
  C   C2379     1.0  0.59448  0.16761  0.82305  1.0000
  C   C2380     1.0  0.72962  0.11482  0.69152  1.0000
  H   H2386     1.0  0.62454  0.16277  0.88275  1.0000
  H   H2387     1.0  0.69844  0.01912  0.81311  1.0000
  Fe  Fe418     1.0  0.60484  0.14630  0.76748  1.0000
  Fe  Fe419     1.0  0.63573  0.39984  0.94522  1.0000
  H   H2388     1.0  0.60265  0.01621  0.60212  1.0000
  S   S833      1.0  0.63194  0.23058  0.84221  1.0000
  H   H2389     1.0  0.61874  0.17293  0.95329  1.0000
  H   H2390     1.0  0.69060  0.19855  0.64864  1.0000
  C   C2381     1.0  0.74728  0.99803  0.73665  1.0000
  C   C2382     1.0  0.75368  0.00659  0.74311  1.0000
  C   C2383     1.0  0.76140  0.99896  0.75545  1.0000
  H   H2391     1.0  0.78806  0.24039  0.68788  1.0000
  H   H2392     1.0  0.65285  0.20880  0.89819  1.0000
  H   H2393     1.0  0.74149  0.00395  0.72696  1.0000
  H   H2394     1.0  0.75286  0.01904  0.73835  1.0000
  C   C2384     1.0  0.78335  0.12349  0.77659  1.0000
  C   C2385     1.0  0.61578  0.06294  0.85018  1.0000
  C   C2386     1.0  0.78547  0.21838  0.88089  1.0000
  H   H2395     1.0  0.62860  0.16222  0.84908  1.0000
  C   C2387     1.0  0.63604  0.00415  0.89137  1.0000
  C   C2388     1.0  0.59296  0.26696  0.87857  1.0000
  H   H2396     1.0  0.65646  0.00258  0.87232  1.0000
  C   C2389     1.0  0.66659  0.35804  0.87487  1.0000
  H   H2397     1.0  0.64651  0.06051  0.63591  1.0000
  C   C2390     1.0  0.59883  0.99841  0.59300  1.0000
  C   C2391     1.0  0.68756  0.36388  0.90949  1.0000
  C   C2392     1.0  0.67481  0.35686  0.91755  1.0000
  C   C2393     1.0  0.67368  0.34305  0.91418  1.0000
  C   C2394     1.0  0.68531  0.33605  0.90280  1.0000
  C   C2395     1.0  0.69825  0.34284  0.89494  1.0000
  C   C2396     1.0  0.69934  0.35673  0.89828  1.0000
  H   H2398     1.0  0.66570  0.36217  0.92622  1.0000
  H   H2399     1.0  0.66366  0.33785  0.92036  1.0000
  H   H2400     1.0  0.70727  0.33756  0.88614  1.0000
  H   H2401     1.0  0.70926  0.36208  0.89201  1.0000
  C   C2397     1.0  0.65729  0.46054  0.94629  1.0000
  C   C2398     1.0  0.67227  0.45396  0.94945  1.0000
  C   C2399     1.0  0.68014  0.46306  0.95362  1.0000
  C   C2400     1.0  0.64758  0.08086  0.82989  1.0000
  C   C2401     1.0  0.77725  0.11441  0.75624  1.0000
  H   H2402     1.0  0.60403  0.09657  0.67715  1.0000
  H   H2403     1.0  0.67814  0.44221  0.94783  1.0000
  H   H2404     1.0  0.71202  0.27228  0.82664  1.0000
  C   C2402     1.0  0.63375  0.15449  0.71852  1.0000
  H   H2405     1.0  0.64768  0.07190  0.81020  1.0000
  C   C2403     1.0  0.60916  0.35753  0.92561  1.0000
  C   C2404     1.0  0.61095  0.38196  0.93804  1.0000
  H   H2406     1.0  0.69355  0.14326  0.86805  1.0000
  H   H2407     1.0  0.72274  0.18791  0.87941  1.0000
  H   H2408     1.0  0.76701  0.24443  0.80272  1.0000
  H   H2409     1.0  0.65220  0.29284  0.87347  1.0000
  S   S834      1.0  0.65707  0.12387  0.65462  1.0000
  C   C2405     1.0  0.63861  0.36189  0.88531  1.0000
  S   S835      1.0  0.63780  0.19420  0.86249  1.0000
  C   C2406     1.0  0.66674  0.37084  0.88052  1.0000
  H   H2410     1.0  0.63441  0.35113  0.92247  1.0000
  C   C2407     1.0  0.78378  0.23411  0.69965  1.0000
  C   C2408     1.0  0.72773  0.10137  0.67238  1.0000
  H   H2411     1.0  0.64385  0.17742  0.68281  1.0000
  H   H2412     1.0  0.62123  0.11245  0.84168  1.0000
  N   N195      1.0  0.65316  0.37891  0.88844  1.0000
  H   H2413     1.0  0.74962  0.15071  0.92027  1.0000
  C   C2409     1.0  0.71979  0.16485  0.88048  1.0000
  H   H2414     1.0  0.64649  0.32713  0.90810  1.0000
  H   H2415     1.0  0.64969  0.07012  0.78148  1.0000
  N   N196      1.0  0.67966  0.17909  0.65876  1.0000
  S   S836      1.0  0.68100  0.13135  0.94544  1.0000
  H   H2416     1.0  0.61541  0.07542  0.84751  1.0000
  C   C2410     1.0  0.68842  0.22975  0.90052  1.0000
  H   H2417     1.0  0.70347  0.12410  0.72431  1.0000
  H   H2418     1.0  0.65296  0.38696  0.90824  1.0000
  C   C2411     1.0  0.70834  0.11955  0.71370  1.0000
  S   S837      1.0  0.59871  0.04742  0.61138  1.0000
  H   H2419     1.0  0.63988  0.14673  0.90261  1.0000
  C   C2412     1.0  0.77495  0.11668  0.74108  1.0000
  S   S838      1.0  0.61263  0.13661  0.79018  1.0000
  H   H2420     1.0  0.76834  0.09187  0.69183  1.0000
  H   H2421     1.0  0.60053  0.10382  0.64616  1.0000
  C   C2413     1.0  0.59390  0.10838  0.69627  1.0000
  C   C2414     1.0  0.61124  0.20353  0.78635  1.0000
  H   H2422     1.0  0.61491  0.00276  0.90935  1.0000
  Fe  Fe420     1.0  0.61064  0.23569  0.86144  1.0000
  H   H2423     1.0  0.69582  0.19554  0.92722  1.0000
  C   C2415     1.0  0.61493  0.18529  0.82471  1.0000
  C   C2416     1.0  0.79039  0.09571  0.69334  1.0000
  H   H2424     1.0  0.61613  0.09131  0.60555  1.0000
  N   N197      1.0  0.70726  0.99496  0.81225  1.0000
  H   H2425     1.0  0.64361  0.40163  0.89363  1.0000
  H   H2426     1.0  0.61498  0.03189  0.88062  1.0000
  H   H2427     1.0  0.76974  0.19716  0.91610  1.0000
  H   H2428     1.0  0.61651  0.01861  0.85975  1.0000
  H   H2429     1.0  0.66935  0.19495  0.92503  1.0000
  S   S839      1.0  0.60505  0.00207  0.63403  1.0000
  C   C2417     1.0  0.72374  0.98954  0.78773  1.0000
  C   C2418     1.0  0.60877  0.08165  0.63904  1.0000
  C   C2419     1.0  0.60176  0.00409  0.60452  1.0000
  C   C2420     1.0  0.61985  0.17497  0.81446  1.0000
  C   C2421     1.0  0.70563  0.01074  0.80606  1.0000
  H   H2430     1.0  0.62057  0.05973  0.63217  1.0000
  H   H2431     1.0  0.77868  0.06344  0.69261  1.0000
  C   C2422     1.0  0.64423  0.29606  0.88405  1.0000
  Fe  Fe421     1.0  0.61588  0.20204  0.87960  1.0000
  N   N198      1.0  0.72477  0.04608  0.86410  1.0000
  C   C2423     1.0  0.72834  0.04731  0.84819  1.0000
  C   C2424     1.0  0.72233  0.05902  0.87012  1.0000
  C   C2425     1.0  0.72866  0.06193  0.83785  1.0000
  C   C2426     1.0  0.72242  0.07386  0.86015  1.0000
  C   C2427     1.0  0.72549  0.07530  0.84391  1.0000
  C   C2428     1.0  0.72413  0.03069  0.87472  1.0000
  H   H2432     1.0  0.73068  0.03698  0.84340  1.0000
  H   H2433     1.0  0.72003  0.05798  0.88271  1.0000
  H   H2434     1.0  0.73112  0.06288  0.82523  1.0000
  H   H2435     1.0  0.71994  0.08413  0.86507  1.0000
  H   H2436     1.0  0.72541  0.08673  0.83601  1.0000
  H   H2437     1.0  0.73602  0.02452  0.87680  1.0000
  H   H2438     1.0  0.71594  0.03192  0.88622  1.0000
  H   H2439     1.0  0.71963  0.02335  0.86969  1.0000
  S   S840      1.0  0.66756  0.21770  0.86437  1.0000
  S   S841      1.0  0.64422  0.09702  0.68526  1.0000
  H   H2440     1.0  0.69880  0.20160  0.86877  1.0000
  C   C2429     1.0  0.62888  0.09220  0.81296  1.0000
  H   H2441     1.0  0.71349  0.14365  0.88072  1.0000
  H   H2442     1.0  0.66669  0.18936  0.67831  1.0000
  C   C2430     1.0  0.71037  0.15638  0.87778  1.0000
  C   C2431     1.0  0.63941  0.14182  0.89313  1.0000
  Fe  Fe422     1.0  0.64375  0.21675  0.86203  1.0000
  H   H2443     1.0  0.64786  0.24772  0.85337  1.0000
  H   H2444     1.0  0.66846  0.06812  0.76751  1.0000
  H   H2445     1.0  0.76707  0.26096  0.81028  1.0000
  H   H2446     1.0  0.65226  0.34337  0.87333  1.0000
  C   C2432     1.0  0.62467  0.37142  0.93279  1.0000
  C   C2433     1.0  0.64738  0.12648  0.89210  1.0000
  Fe  Fe423     1.0  0.65912  0.39462  0.96555  1.0000
  S   S842      1.0  0.65681  0.08281  0.64562  1.0000
  C   C2434     1.0  0.78049  0.08665  0.69255  1.0000
  H   H2447     1.0  0.61123  0.11231  0.81898  1.0000
  C   C2435     1.0  0.60966  0.16621  0.81360  1.0000
  H   H2448     1.0  0.77082  0.26267  0.78964  1.0000
  C   C2436     1.0  0.72349  0.12082  0.70515  1.0000
  H   H2449     1.0  0.61608  0.30795  0.92144  1.0000
  H   H2450     1.0  0.74898  0.14695  0.97189  1.0000
  C   C2437     1.0  0.63767  0.12970  0.86887  1.0000
  C   C2438     1.0  0.63717  0.11312  0.74046  1.0000
  H   H2451     1.0  0.72998  0.15878  0.88553  1.0000
  C   C2439     1.0  0.69294  0.18652  0.65603  1.0000
  C   C2440     1.0  0.64150  0.09773  0.73843  1.0000
  H   H2452     1.0  0.67750  0.35133  0.86908  1.0000
  H   H2453     1.0  0.74878  0.12660  0.97911  1.0000
  H   H2454     1.0  0.62633  0.10426  0.65048  1.0000
  C   C2441     1.0  0.62285  0.99792  0.89967  1.0000
  H   H2455     1.0  0.70822  0.21785  0.91126  1.0000
  C   C2442     1.0  0.64882  0.30370  0.89295  1.0000
  S   S843      1.0  0.62721  0.19775  0.82364  1.0000
  H   H2456     1.0  0.68684  0.98863  0.82815  1.0000
  H   H2457     1.0  0.64433  0.15999  0.66573  1.0000
  C   C2443     1.0  0.65418  0.16550  0.66366  1.0000
  H   H2458     1.0  0.77253  0.10728  0.73749  1.0000
  C   C2444     1.0  0.76847  0.25019  0.90774  1.0000
  H   H2459     1.0  0.70405  0.17959  0.65009  1.0000
  H   H2460     1.0  0.69505  0.18718  0.66734  1.0000
  C   C2445     1.0  0.64196  0.08082  0.81697  1.0000
  H   H2461     1.0  0.61740  0.14756  0.85206  1.0000
  H   H2462     1.0  0.64871  0.10686  0.77461  1.0000
  H   H2463     1.0  0.68135  0.16123  0.85984  1.0000
  H   H2464     1.0  0.62555  0.28667  0.88208  1.0000
  H   H2465     1.0  0.68242  0.18614  0.86443  1.0000
  C   C2446     1.0  0.61614  0.05589  0.83813  1.0000
  H   H2466     1.0  0.78051  0.15403  0.72708  1.0000
  C   C2447     1.0  0.65127  0.21605  0.90681  1.0000
  C   C2448     1.0  0.68690  0.15508  0.87003  1.0000
  Fe  Fe424     1.0  0.76992  0.18799  0.96345  1.0000
  H   H2467     1.0  0.69379  0.23951  0.89347  1.0000
  C   C2449     1.0  0.60687  0.14747  0.71503  1.0000
  H   H2468     1.0  0.66725  0.23857  0.89165  1.0000
  N   N199      1.0  0.78099  0.12594  0.76065  1.0000
  H   H2469     1.0  0.65422  0.11935  0.90074  1.0000
  C   C2450     1.0  0.69301  0.18008  0.86880  1.0000
  C   C2451     1.0  0.62412  0.30454  0.91101  1.0000
  N   N200      1.0  0.65160  0.08922  0.76198  1.0000
  H   H2470     1.0  0.65495  0.30832  0.91914  1.0000
  C   C2452     1.0  0.64874  0.08584  0.74937  1.0000
  H   H2471     1.0  0.60753  0.29428  0.90632  1.0000
  C   C2453     1.0  0.77868  0.20131  0.90623  1.0000
  H   H2472     1.0  0.66471  0.39581  0.89031  1.0000
  S   S844      1.0  0.62152  0.09176  0.79719  1.0000
  C   C2454     1.0  0.77951  0.14286  0.73525  1.0000
  H   H2473     1.0  0.65222  0.07392  0.74758  1.0000
  S   S845      1.0  0.62022  0.16007  0.74791  1.0000
  S   S846      1.0  0.60707  0.18510  0.90121  1.0000
  C   C2455     1.0  0.62705  0.18737  0.76728  1.0000
  H   H2474     1.0  0.69002  0.16739  0.63970  1.0000
  C   C2456     1.0  0.76352  0.25841  0.89379  1.0000
  H   H2475     1.0  0.78792  0.23731  0.65249  1.0000
  N   N201      1.0  0.72083  0.10795  0.68645  1.0000
  C   C2457     1.0  0.59636  0.38007  0.93738  1.0000
  H   H2476     1.0  0.65777  0.07216  0.83284  1.0000
  C   C2458     1.0  0.65879  0.07646  0.77351  1.0000
  H   H2477     1.0  0.66044  0.30636  0.88918  1.0000
  H   H2478     1.0  0.64419  0.15706  0.71992  1.0000
  C   C2459     1.0  0.71567  0.18121  0.87714  1.0000
  N   N202      1.0  0.62981  0.14471  0.87004  1.0000
  Fe  Fe425     1.0  0.70244  0.13361  0.95202  1.0000
  C   C2460     1.0  0.64003  0.11645  0.75341  1.0000
  H   H2479     1.0  0.73282  0.11016  0.66248  1.0000
  C   C2461     1.0  0.63068  0.15084  0.88189  1.0000
  H   H2480     1.0  0.62156  0.20759  0.78599  1.0000
  C   C2462     1.0  0.61917  0.29687  0.90243  1.0000
  C   C2463     1.0  0.60340  0.99421  0.61910  1.0000
  H   H2481     1.0  0.65233  0.27477  0.84600  1.0000
  C   C2464     1.0  0.61360  0.17771  0.93037  1.0000
  C   C2465     1.0  0.62349  0.17503  0.94073  1.0000
  H   H2482     1.0  0.62753  0.35837  0.88752  1.0000
  C   C2466     1.0  0.70588  0.10690  0.69461  1.0000
  C   C2467     1.0  0.61569  0.06180  0.87754  1.0000
  N   N203      1.0  0.74685  0.26309  0.80139  1.0000
  C   C2468     1.0  0.74154  0.26606  0.78790  1.0000
  C   C2469     1.0  0.73644  0.26499  0.81526  1.0000
  C   C2470     1.0  0.72553  0.27168  0.78792  1.0000
  C   C2471     1.0  0.72030  0.27044  0.81574  1.0000
  H   H2483     1.0  0.63142  0.12236  0.73211  1.0000
  H   H2484     1.0  0.74978  0.26470  0.77686  1.0000
  H   H2485     1.0  0.74064  0.26269  0.82594  1.0000
  H   H2486     1.0  0.60401  0.11343  0.69443  1.0000
  N   N204      1.0  0.61596  0.05422  0.86511  1.0000
  N   N205      1.0  0.77427  0.26100  0.87989  1.0000
  C   C2472     1.0  0.61960  0.18086  0.91414  1.0000
  S   S847      1.0  0.64575  0.09119  0.85612  1.0000
  H   H2487     1.0  0.63359  0.07322  0.58864  1.0000
  H   H2488     1.0  0.64480  0.14815  0.69624  1.0000
  H   H2489     1.0  0.67788  0.37400  0.87894  1.0000
  C   C2473     1.0  0.65244  0.35350  0.87737  1.0000
  S   S848      1.0  0.69548  0.15981  0.94816  1.0000
  H   H2490     1.0  0.62844  0.38090  0.89727  1.0000
  Fe  Fe426     1.0  0.62394  0.20853  0.84435  1.0000
  C   C2474     1.0  0.74915  0.15971  0.92621  1.0000
  C   C2475     1.0  0.61048  0.09420  0.64418  1.0000
  C   C2476     1.0  0.69652  0.21760  0.91052  1.0000
  S   S849      1.0  0.78778  0.18952  0.97547  1.0000
  C   C2477     1.0  0.64005  0.09218  0.83889  1.0000
  C   C2478     1.0  0.62006  0.15560  0.73038  1.0000
  C   C2479     1.0  0.61983  0.98541  0.89565  1.0000
  C   C2480     1.0  0.64626  0.99779  0.87882  1.0000
  H   H2491     1.0  0.67299  0.41379  0.97664  1.0000
  Fe  Fe427     1.0  0.60519  0.11494  0.79062  1.0000
  C   C2481     1.0  0.64978  0.47572  0.94850  1.0000
  H   H2492     1.0  0.61346  0.15871  0.80533  1.0000
  C   C2482     1.0  0.62176  0.06943  0.63618  1.0000
  H   H2493     1.0  0.60339  0.06704  0.88272  1.0000
  C   C2483     1.0  0.59950  0.07963  0.57664  1.0000
  C   C2484     1.0  0.77602  0.13103  0.73057  1.0000
  C   C2485     1.0  0.65883  0.24967  0.85416  1.0000
  H   H2494     1.0  0.59676  0.21605  0.80422  1.0000
  C   C2486     1.0  0.64650  0.12034  0.87992  1.0000
  C   C2487     1.0  0.68957  0.20508  0.91946  1.0000
  C   C2488     1.0  0.67304  0.47868  0.95467  1.0000
  C   C2489     1.0  0.76002  0.15739  0.93549  1.0000
  Fe  Fe428     1.0  0.65957  0.06706  0.86452  1.0000
  H   H2495     1.0  0.71682  0.15092  0.96631  1.0000
  C   C2490     1.0  0.72246  0.00561  0.78146  1.0000
  S   S850      1.0  0.65446  0.05699  0.89038  1.0000
  C   C2491     1.0  0.63642  0.06989  0.63831  1.0000
  S   S851      1.0  0.76936  0.21180  0.94757  1.0000
  H   H2496     1.0  0.63142  0.17410  0.80679  1.0000
  C   C2492     1.0  0.61657  0.03983  0.84150  1.0000
  H   H2497     1.0  0.77333  0.13068  0.78354  1.0000
  C   C2493     1.0  0.76373  0.25741  0.80105  1.0000
  H   H2498     1.0  0.61688  0.37445  0.97221  1.0000
  C   C2494     1.0  0.63413  0.14935  0.70516  1.0000
  H   H2499     1.0  0.69204  0.45819  0.95532  1.0000
  C   C2495     1.0  0.61535  0.07371  0.57730  1.0000
  H   H2500     1.0  0.77750  0.26750  0.85475  1.0000
  C   C2496     1.0  0.76882  0.27016  0.86556  1.0000
  H   H2501     1.0  0.63646  0.12834  0.75525  1.0000
  H   H2502     1.0  0.78208  0.22735  0.87094  1.0000
  S   S852      1.0  0.78587  0.18432  0.68035  1.0000
  C   C2497     1.0  0.61565  0.03863  0.86864  1.0000
  H   H2503     1.0  0.63945  0.09500  0.72833  1.0000
  H   H2504     1.0  0.76736  0.13284  0.97118  1.0000
  H   H2505     1.0  0.77440  0.13291  0.71872  1.0000
  C   C2498     1.0  0.59258  0.25611  0.89295  1.0000
  N   N206      1.0  0.61212  0.19317  0.77749  1.0000
  H   H2506     1.0  0.59756  0.00615  0.58175  1.0000
  Fe  Fe429     1.0  0.78549  0.21421  0.96104  1.0000
  H   H2507     1.0  0.66452  0.14819  0.97367  1.0000
  H   H2508     1.0  0.63501  0.31805  0.92608  1.0000
  C   C2499     1.0  0.61626  0.03112  0.85688  1.0000
  H   H2509     1.0  0.63151  0.17473  0.77214  1.0000
  H   H2510     1.0  0.75102  0.26281  0.89419  1.0000
  C   C2500     1.0  0.78628  0.07064  0.69303  1.0000
  C   C2501     1.0  0.60664  0.15205  0.72866  1.0000
  C   C2502     1.0  0.78397  0.98596  0.71750  1.0000
  C   C2503     1.0  0.59578  0.09359  0.59644  1.0000
  S   S853      1.0  0.59994  0.12374  0.76657  1.0000
  C   C2504     1.0  0.61160  0.08803  0.59729  1.0000
  H   H2511     1.0  0.78589  0.10817  0.69302  1.0000
  C   C2505     1.0  0.79005  0.25579  0.87947  1.0000
  H   H2512     1.0  0.62260  0.07115  0.87282  1.0000
  C   C2506     1.0  0.62139  0.07790  0.58778  1.0000
  H   H2513     1.0  0.78855  0.23859  0.91821  1.0000
  H   H2514     1.0  0.78832  0.26318  0.63416  1.0000
  C   C2507     1.0  0.67958  0.48026  0.91178  1.0000
  H   H2515     1.0  0.77851  0.99610  0.70967  1.0000
  H   H2516     1.0  0.78453  0.11095  0.78285  1.0000
  H   H2517     1.0  0.59608  0.19418  0.84263  1.0000
  C   C2508     1.0  0.64333  0.98496  0.87490  1.0000
  H   H2518     1.0  0.75757  0.26767  0.86525  1.0000
  C   C2509     1.0  0.78482  0.23899  0.71266  1.0000
  H   H2519     1.0  0.59304  0.07641  0.67373  1.0000
  S   S854      1.0  0.60141  0.21496  0.86163  1.0000
  C   C2510     1.0  0.75523  0.13569  0.97829  1.0000
  C   C2511     1.0  0.59927  0.18748  0.77862  1.0000
  H   H2520     1.0  0.78861  0.23448  0.61532  1.0000
  H   H2521     1.0  0.59644  0.14483  0.71370  1.0000
  H   H2522     1.0  0.59603  0.15289  0.73781  1.0000
  H   H2523     1.0  0.68708  0.47932  0.92001  1.0000
  S   S855      1.0  0.59664  0.26064  0.86094  1.0000
  C   C2512     1.0  0.59382  0.09886  0.68651  1.0000
  Fe  Fe430     1.0  0.59119  0.02691  0.62967  1.0000
  C   C2513     1.0  0.71604  0.98439  0.80325  1.0000
  H   H2524     1.0  0.64217  0.53157  0.03915  1.0000
  H   H2525     1.0  0.75106  0.97276  0.16627  1.0000
  S   S856      1.0  0.64293  0.53291  0.00723  1.0000
  Fe  Fe431     1.0  0.68273  0.56982  0.08490  1.0000
  S   S857      1.0  0.65826  0.58208  0.08175  1.0000
  S   S858      1.0  0.69910  0.58468  0.08526  1.0000
  Fe  Fe432     1.0  0.65143  0.56056  0.09849  1.0000
  S   S859      1.0  0.62924  0.56209  0.11713  1.0000
  Fe  Fe433     1.0  0.66279  0.56841  0.06321  1.0000
  C   C2514     1.0  0.77019  0.61704  0.23165  1.0000
  C   C2515     1.0  0.59803  0.77678  0.16681  1.0000
  N   N207      1.0  0.78327  0.65113  0.13549  1.0000
  C   C2516     1.0  0.65176  0.91835  0.31772  1.0000
  N   N208      1.0  0.65970  0.90207  0.29882  1.0000
  H   H2526     1.0  0.78689  0.59665  0.22511  1.0000
  S   S860      1.0  0.61951  0.90279  0.34176  1.0000
  H   H2527     1.0  0.64784  0.54947  0.05183  1.0000
  H   H2528     1.0  0.59617  0.56926  0.14415  1.0000
  H   H2529     1.0  0.62472  0.60209  0.04590  1.0000
  Fe  Fe434     1.0  0.70797  0.89687  0.17655  1.0000
  S   S861      1.0  0.68577  0.91490  0.18139  1.0000
  S   S862      1.0  0.72654  0.88815  0.19083  1.0000
  Fe  Fe435     1.0  0.69974  0.89093  0.14869  1.0000
  S   S863      1.0  0.67685  0.90862  0.15090  1.0000
  S   S864      1.0  0.70999  0.87626  0.13045  1.0000
  Fe  Fe436     1.0  0.69057  0.92369  0.15518  1.0000
  S   S865      1.0  0.68876  0.94903  0.14241  1.0000
  Fe  Fe437     1.0  0.67417  0.89824  0.17678  1.0000
  S   S866      1.0  0.65261  0.89173  0.19396  1.0000
  S   S867      1.0  0.71378  0.90688  0.15067  1.0000
  S   S868      1.0  0.69601  0.87936  0.17423  1.0000
  Fe  Fe438     1.0  0.76568  0.92720  0.22673  1.0000
  S   S869      1.0  0.75736  0.92965  0.25179  1.0000
  S   S870      1.0  0.74876  0.93855  0.21068  1.0000
  H   H2530     1.0  0.60004  0.96389  0.35372  1.0000
  C   C2517     1.0  0.66363  0.50360  0.08299  1.0000
  Fe  Fe439     1.0  0.76894  0.90421  0.25758  1.0000
  S   S871      1.0  0.75709  0.88626  0.27590  1.0000
  C   C2518     1.0  0.74016  0.84131  0.25267  1.0000
  Fe  Fe440     1.0  0.59344  0.72238  0.14320  1.0000
  H   H2531     1.0  0.77503  0.74558  0.00129  1.0000
  S   S872      1.0  0.76893  0.70897  0.09982  1.0000
  S   S873      1.0  0.61994  0.81415  0.18865  1.0000
  H   H2532     1.0  0.76041  0.82610  0.27375  1.0000
  Fe  Fe441     1.0  0.60464  0.83824  0.18723  1.0000
  S   S874      1.0  0.61540  0.85726  0.16946  1.0000
  Fe  Fe442     1.0  0.60940  0.81080  0.21446  1.0000
  S   S875      1.0  0.62421  0.80018  0.23262  1.0000
  Fe  Fe443     1.0  0.66285  0.84448  0.28917  1.0000
  S   S876      1.0  0.67249  0.82437  0.27673  1.0000
  S   S877      1.0  0.63915  0.84704  0.30580  1.0000
  Fe  Fe444     1.0  0.68664  0.86305  0.26833  1.0000
  S   S878      1.0  0.69816  0.84496  0.25400  1.0000
  S   S879      1.0  0.69317  0.88649  0.26063  1.0000
  Fe  Fe445     1.0  0.67394  0.84308  0.25465  1.0000
  S   S880      1.0  0.66660  0.84518  0.23225  1.0000
  Fe  Fe446     1.0  0.69623  0.82757  0.27714  1.0000
  S   S881      1.0  0.71798  0.80788  0.27614  1.0000
  S   S882      1.0  0.66254  0.86285  0.26693  1.0000
  S   S883      1.0  0.68642  0.84610  0.29167  1.0000
  C   C2519     1.0  0.79089  0.66016  0.12246  1.0000
  C   C2520     1.0  0.77666  0.68172  0.08894  1.0000
  H   H2533     1.0  0.65067  0.56366  0.99451  1.0000
  S   S884      1.0  0.76592  0.77995  0.32119  1.0000
  H   H2534     1.0  0.63175  0.78022  0.06921  1.0000
  Fe  Fe447     1.0  0.68076  0.82534  0.05985  1.0000
  S   S885      1.0  0.69560  0.82980  0.07382  1.0000
  S   S886      1.0  0.68283  0.83472  0.03375  1.0000
  Fe  Fe448     1.0  0.66006  0.80923  0.08875  1.0000
  S   S887      1.0  0.67312  0.81190  0.10511  1.0000
  S   S888      1.0  0.63746  0.80080  0.09834  1.0000
  Fe  Fe449     1.0  0.67270  0.83630  0.09068  1.0000
  S   S889      1.0  0.66298  0.85596  0.10377  1.0000
  Fe  Fe450     1.0  0.69476  0.80502  0.08710  1.0000
  S   S890      1.0  0.71390  0.78640  0.09672  1.0000
  S   S891      1.0  0.65799  0.83417  0.07550  1.0000
  S   S892      1.0  0.68169  0.80001  0.07194  1.0000
  Fe  Fe451     1.0  0.72099  0.61569  0.14652  1.0000
  S   S893      1.0  0.71860  0.63865  0.12909  1.0000
  S   S894      1.0  0.70828  0.59721  0.14701  1.0000
  Fe  Fe452     1.0  0.74238  0.62460  0.16224  1.0000
  S   S895      1.0  0.74123  0.64829  0.14620  1.0000
  S   S896      1.0  0.76022  0.61688  0.17767  1.0000
  Fe  Fe453     1.0  0.71562  0.64899  0.14973  1.0000
  S   S897      1.0  0.69801  0.67168  0.15100  1.0000
  Fe  Fe454     1.0  0.74429  0.63582  0.12708  1.0000
  S   S898      1.0  0.76091  0.64128  0.10381  1.0000
  S   S899      1.0  0.71620  0.62623  0.16765  1.0000
  S   S900      1.0  0.74722  0.61184  0.14279  1.0000
  Fe  Fe455     1.0  0.61605  0.69115  0.14062  1.0000
  S   S901      1.0  0.61974  0.69586  0.11451  1.0000
  S   S902      1.0  0.62850  0.66867  0.15416  1.0000
  C   C2521     1.0  0.66742  0.91607  0.31851  1.0000
  Fe  Fe456     1.0  0.62081  0.72007  0.11506  1.0000
  S   S903      1.0  0.64079  0.73037  0.09854  1.0000
  C   C2522     1.0  0.64711  0.69728  0.17563  1.0000
  S   S904      1.0  0.61944  0.71454  0.14096  1.0000
  C   C2523     1.0  0.75263  0.68578  0.10872  1.0000
  H   H2535     1.0  0.62111  0.85848  0.23647  1.0000
  C   C2524     1.0  0.67909  0.67024  0.15125  1.0000
  C   C2525     1.0  0.67334  0.65683  0.15981  1.0000
  C   C2526     1.0  0.65779  0.65630  0.16059  1.0000
  C   C2527     1.0  0.64818  0.66898  0.15243  1.0000
  C   C2528     1.0  0.65423  0.68203  0.14327  1.0000
  C   C2529     1.0  0.66955  0.68279  0.14293  1.0000
  H   H2536     1.0  0.68072  0.64708  0.16622  1.0000
  H   H2537     1.0  0.65320  0.64613  0.16760  1.0000
  H   H2538     1.0  0.64712  0.69163  0.13652  1.0000
  H   H2539     1.0  0.67405  0.69309  0.13612  1.0000
  C   C2530     1.0  0.63999  0.74969  0.09925  1.0000
  C   C2531     1.0  0.65328  0.75618  0.09217  1.0000
  C   C2532     1.0  0.65273  0.77175  0.09226  1.0000
  C   C2533     1.0  0.63881  0.78095  0.09917  1.0000
  C   C2534     1.0  0.62554  0.77444  0.10630  1.0000
  C   C2535     1.0  0.62616  0.75878  0.10645  1.0000
  H   H2540     1.0  0.66399  0.74912  0.08663  1.0000
  H   H2541     1.0  0.66302  0.77665  0.08679  1.0000
  H   H2542     1.0  0.61472  0.78153  0.11164  1.0000
  H   H2543     1.0  0.61586  0.75383  0.11188  1.0000
  C   C2536     1.0  0.61975  0.81531  0.28077  1.0000
  C   C2537     1.0  0.76269  0.77756  0.06476  1.0000
  C   C2538     1.0  0.75149  0.79107  0.06027  1.0000
  C   C2539     1.0  0.73638  0.79398  0.06997  1.0000
  C   C2540     1.0  0.73266  0.78355  0.08436  1.0000
  C   C2541     1.0  0.74393  0.77019  0.08889  1.0000
  C   C2542     1.0  0.75881  0.76709  0.07904  1.0000
  H   H2544     1.0  0.75440  0.79919  0.04919  1.0000
  H   H2545     1.0  0.72770  0.80432  0.06639  1.0000
  H   H2546     1.0  0.74105  0.76205  0.09996  1.0000
  C   C2543     1.0  0.76777  0.65130  0.20222  1.0000
  C   C2544     1.0  0.75323  0.65337  0.19839  1.0000
  C   C2545     1.0  0.75090  0.64313  0.19052  1.0000
  C   C2546     1.0  0.76301  0.63049  0.18673  1.0000
  H   H2547     1.0  0.71856  0.90799  0.10679  1.0000
  C   C2547     1.0  0.78492  0.72604  0.98989  1.0000
  H   H2548     1.0  0.74364  0.66284  0.20172  1.0000
  H   H2549     1.0  0.73959  0.64476  0.18776  1.0000
  H   H2550     1.0  0.66864  0.48573  0.11737  1.0000
  H   H2551     1.0  0.68866  0.98211  0.13486  1.0000
  S   S905      1.0  0.65679  0.57960  0.03947  1.0000
  S   S906      1.0  0.76968  0.66352  0.21343  1.0000
  C   C2548     1.0  0.74546  0.59969  0.08072  1.0000
  C   C2549     1.0  0.66038  0.83968  0.17584  1.0000
  C   C2550     1.0  0.73176  0.80266  0.28813  1.0000
  C   C2551     1.0  0.72765  0.80518  0.30341  1.0000
  C   C2552     1.0  0.73846  0.79866  0.31331  1.0000
  C   C2553     1.0  0.75338  0.78967  0.30796  1.0000
  C   C2554     1.0  0.75768  0.78793  0.29240  1.0000
  C   C2555     1.0  0.74692  0.79437  0.28256  1.0000
  H   H2552     1.0  0.71597  0.81154  0.30783  1.0000
  H   H2553     1.0  0.73509  0.80018  0.32531  1.0000
  H   H2554     1.0  0.76918  0.78137  0.28801  1.0000
  H   H2555     1.0  0.75019  0.79241  0.27072  1.0000
  C   C2556     1.0  0.63694  0.81201  0.23188  1.0000
  C   C2557     1.0  0.63718  0.82614  0.22072  1.0000
  C   C2558     1.0  0.64644  0.83611  0.22095  1.0000
  C   C2559     1.0  0.65547  0.83208  0.23232  1.0000
  C   C2560     1.0  0.65535  0.81791  0.24343  1.0000
  C   C2561     1.0  0.64619  0.80780  0.24312  1.0000
  H   H2556     1.0  0.63009  0.82948  0.21201  1.0000
  H   H2557     1.0  0.64641  0.84712  0.21247  1.0000
  H   H2558     1.0  0.66240  0.81464  0.25217  1.0000
  H   H2559     1.0  0.64605  0.79686  0.25176  1.0000
  H   H2560     1.0  0.75488  0.74970  0.33158  1.0000
  H   H2561     1.0  0.78676  0.68587  0.08107  1.0000
  H   H2562     1.0  0.63177  0.82313  0.29373  1.0000
  C   C2562     1.0  0.61530  0.59603  0.04799  1.0000
  H   H2563     1.0  0.74893  0.96113  0.22955  1.0000
  C   C2563     1.0  0.59679  0.97643  0.35301  1.0000
  C   C2564     1.0  0.74663  0.75206  0.28122  1.0000
  H   H2564     1.0  0.60388  0.59439  0.13031  1.0000
  N   N209      1.0  0.67484  0.84203  0.17523  1.0000
  C   C2565     1.0  0.79002  0.67594  0.12188  1.0000
  C   C2566     1.0  0.73900  0.88670  0.27210  1.0000
  C   C2567     1.0  0.73039  0.87534  0.28110  1.0000
  C   C2568     1.0  0.71647  0.87496  0.27739  1.0000
  C   C2569     1.0  0.71092  0.88623  0.26498  1.0000
  C   C2570     1.0  0.71942  0.89769  0.25614  1.0000
  C   C2571     1.0  0.73355  0.89779  0.25955  1.0000
  H   H2565     1.0  0.73458  0.86675  0.29083  1.0000
  H   H2566     1.0  0.70992  0.86612  0.28433  1.0000
  H   H2567     1.0  0.71521  0.90643  0.24652  1.0000
  H   H2568     1.0  0.74020  0.90647  0.25242  1.0000
  C   C2572     1.0  0.69350  0.96076  0.15223  1.0000
  C   C2573     1.0  0.69887  0.95402  0.16615  1.0000
  C   C2574     1.0  0.70372  0.96318  0.17331  1.0000
  H   H2569     1.0  0.78430  0.97857  0.27093  1.0000
  N   N210      1.0  0.74442  0.75257  0.31230  1.0000
  C   C2575     1.0  0.73265  0.95809  0.13892  1.0000
  H   H2570     1.0  0.69972  0.94166  0.17120  1.0000
  H   H2571     1.0  0.70810  0.95785  0.18391  1.0000
  N   N211      1.0  0.68880  0.54509  0.01040  1.0000
  C   C2576     1.0  0.75626  0.74205  0.30518  1.0000
  C   C2577     1.0  0.69677  0.87036  0.12350  1.0000
  C   C2578     1.0  0.68052  0.87520  0.12859  1.0000
  C   C2579     1.0  0.67022  0.87064  0.12250  1.0000
  C   C2580     1.0  0.67613  0.86114  0.11143  1.0000
  C   C2581     1.0  0.69237  0.85619  0.10645  1.0000
  C   C2582     1.0  0.70267  0.86090  0.11240  1.0000
  H   H2572     1.0  0.67587  0.88244  0.13720  1.0000
  H   H2573     1.0  0.65764  0.87443  0.12642  1.0000
  H   H2574     1.0  0.69701  0.84888  0.09788  1.0000
  H   H2575     1.0  0.71525  0.85714  0.10842  1.0000
  C   C2583     1.0  0.64214  0.88243  0.18699  1.0000
  C   C2584     1.0  0.63029  0.87530  0.19754  1.0000
  C   C2585     1.0  0.62210  0.86737  0.19232  1.0000
  C   C2586     1.0  0.62541  0.86705  0.17639  1.0000
  C   C2587     1.0  0.63709  0.87442  0.16579  1.0000
  C   C2588     1.0  0.64565  0.88186  0.17112  1.0000
  H   H2576     1.0  0.62755  0.87578  0.20981  1.0000
  H   H2577     1.0  0.61304  0.86179  0.20054  1.0000
  H   H2578     1.0  0.63970  0.87415  0.15347  1.0000
  H   H2579     1.0  0.65478  0.88731  0.16292  1.0000
  C   C2589     1.0  0.73276  0.90262  0.19552  1.0000
  C   C2590     1.0  0.72306  0.91749  0.19611  1.0000
  C   C2591     1.0  0.72787  0.92837  0.20118  1.0000
  C   C2592     1.0  0.74254  0.92458  0.20515  1.0000
  C   C2593     1.0  0.75246  0.90997  0.20387  1.0000
  C   C2594     1.0  0.74751  0.89895  0.19927  1.0000
  H   H2580     1.0  0.71173  0.92048  0.19306  1.0000
  H   H2581     1.0  0.72020  0.93966  0.20220  1.0000
  H   H2582     1.0  0.76415  0.90729  0.20598  1.0000
  H   H2583     1.0  0.75526  0.88764  0.19836  1.0000
  C   C2595     1.0  0.67129  0.80574  0.00609  1.0000
  C   C2596     1.0  0.67183  0.82152  0.99961  1.0000
  C   C2597     1.0  0.67583  0.83022  0.00800  1.0000
  C   C2598     1.0  0.67913  0.82322  0.02294  1.0000
  C   C2599     1.0  0.67895  0.80734  0.02919  1.0000
  C   C2600     1.0  0.67508  0.79862  0.02078  1.0000
  Fe  Fe457     1.0  0.67845  0.53808  0.08251  1.0000
  H   H2584     1.0  0.67600  0.84250  0.00309  1.0000
  H   H2585     1.0  0.68174  0.80177  0.04051  1.0000
  H   H2586     1.0  0.67472  0.78640  0.02580  1.0000
  C   C2601     1.0  0.62465  0.88710  0.33205  1.0000
  C   C2602     1.0  0.64032  0.87868  0.32937  1.0000
  C   C2603     1.0  0.64495  0.86662  0.32101  1.0000
  C   C2604     1.0  0.63381  0.86258  0.31570  1.0000
  C   C2605     1.0  0.61811  0.87083  0.31856  1.0000
  C   C2606     1.0  0.61358  0.88321  0.32650  1.0000
  H   H2587     1.0  0.64892  0.88151  0.33376  1.0000
  H   H2588     1.0  0.65702  0.86015  0.31910  1.0000
  H   H2589     1.0  0.60941  0.86770  0.31458  1.0000
  H   H2590     1.0  0.70522  0.89519  0.09518  1.0000
  C   C2607     1.0  0.74593  0.58936  0.11242  1.0000
  H   H2591     1.0  0.69682  0.58689  0.99929  1.0000
  H   H2592     1.0  0.63329  0.84827  0.27461  1.0000
  C   C2608     1.0  0.68183  0.93106  0.11290  1.0000
  C   C2609     1.0  0.67511  0.89999  0.29930  1.0000
  C   C2610     1.0  0.69883  0.58977  0.10278  1.0000
  C   C2611     1.0  0.69387  0.58046  0.11752  1.0000
  C   C2612     1.0  0.69631  0.58325  0.13108  1.0000
  C   C2613     1.0  0.70369  0.59536  0.13000  1.0000
  C   C2614     1.0  0.70781  0.60524  0.11537  1.0000
  C   C2615     1.0  0.70535  0.60245  0.10182  1.0000
  H   H2593     1.0  0.68881  0.57067  0.11839  1.0000
  H   H2594     1.0  0.69297  0.57564  0.14240  1.0000
  H   H2595     1.0  0.71341  0.61466  0.11438  1.0000
  H   H2596     1.0  0.70905  0.60980  0.09045  1.0000
  Fe  Fe458     1.0  0.59358  0.70489  0.11840  1.0000
  S   S907      1.0  0.78136  0.77352  0.05237  1.0000
  C   C2616     1.0  0.60930  0.57939  0.09768  1.0000
  C   C2617     1.0  0.61323  0.56538  0.10851  1.0000
  H   H2597     1.0  0.60613  0.72498  0.17922  1.0000
  C   C2618     1.0  0.77358  0.67313  0.14799  1.0000
  H   H2598     1.0  0.60045  0.61777  0.10969  1.0000
  H   H2599     1.0  0.61676  0.58782  0.09385  1.0000
  H   H2600     1.0  0.60668  0.54361  0.12171  1.0000
  Fe  Fe459     1.0  0.59900  0.80671  0.18663  1.0000
  C   C2619     1.0  0.64605  0.54641  0.01599  1.0000
  C   C2620     1.0  0.65225  0.56695  0.03058  1.0000
  C   C2621     1.0  0.64840  0.55272  0.03942  1.0000
  C   C2622     1.0  0.64512  0.54257  0.03220  1.0000
  C   C2623     1.0  0.64811  0.91140  0.30760  1.0000
  N   N212      1.0  0.73156  0.75060  0.07107  1.0000
  C   C2624     1.0  0.73798  0.73702  0.08042  1.0000
  C   C2625     1.0  0.71660  0.75859  0.07615  1.0000
  C   C2626     1.0  0.72953  0.73137  0.09544  1.0000
  C   C2627     1.0  0.70782  0.75325  0.09110  1.0000
  C   C2628     1.0  0.71438  0.73959  0.10081  1.0000
  C   C2629     1.0  0.74053  0.75628  0.05531  1.0000
  H   H2601     1.0  0.74979  0.73057  0.07643  1.0000
  H   H2602     1.0  0.71156  0.76947  0.06887  1.0000
  H   H2603     1.0  0.73482  0.72079  0.10291  1.0000
  H   H2604     1.0  0.69619  0.75997  0.09529  1.0000
  H   H2605     1.0  0.70780  0.73545  0.11253  1.0000
  S   S908      1.0  0.78308  0.72951  0.05735  1.0000
  H   H2606     1.0  0.78295  0.63327  0.12462  1.0000
  H   H2607     1.0  0.73565  0.83078  0.25856  1.0000
  C   C2630     1.0  0.78838  0.98095  0.25827  1.0000
  C   C2631     1.0  0.75070  0.60836  0.08801  1.0000
  H   H2608     1.0  0.73614  0.57940  0.08388  1.0000
  C   C2632     1.0  0.61439  0.83352  0.25686  1.0000
  H   H2609     1.0  0.59963  0.85325  0.14830  1.0000
  Fe  Fe460     1.0  0.65297  0.53621  0.98128  1.0000
  H   H2610     1.0  0.75631  0.63788  0.23952  1.0000
  S   S909      1.0  0.67562  0.54892  0.10303  1.0000
  H   H2611     1.0  0.65875  0.90078  0.27612  1.0000
  H   H2612     1.0  0.64307  0.89403  0.29184  1.0000
  H   H2613     1.0  0.69314  0.83687  0.13847  1.0000
  C   C2633     1.0  0.63099  0.72347  0.17424  1.0000
  H   H2614     1.0  0.75513  0.60983  0.10959  1.0000
  H   H2615     1.0  0.68989  0.84689  0.18710  1.0000
  C   C2634     1.0  0.69103  0.55301  0.99501  1.0000
  C   C2635     1.0  0.63903  0.78006  0.05714  1.0000
  C   C2636     1.0  0.69857  0.90540  0.09994  1.0000
  H   H2616     1.0  0.68821  0.54544  0.03403  1.0000
  H   H2617     1.0  0.61376  0.86832  0.25274  1.0000
  C   C2637     1.0  0.78011  0.63905  0.19782  1.0000
  H   H2618     1.0  0.64240  0.92512  0.32519  1.0000
  H   H2619     1.0  0.74764  0.75201  0.26903  1.0000
  H   H2620     1.0  0.60211  0.75410  0.14082  1.0000
  H   H2621     1.0  0.64429  0.83093  0.04895  1.0000
  H   H2622     1.0  0.66949  0.85638  0.19179  1.0000
  H   H2623     1.0  0.60150  0.88962  0.32847  1.0000
  H   H2624     1.0  0.67517  0.94097  0.11818  1.0000
  H   H2625     1.0  0.76715  0.73344  0.28389  1.0000
  C   C2638     1.0  0.69000  0.55166  0.02180  1.0000
  H   H2626     1.0  0.72666  0.56419  0.10931  1.0000
  C   C2639     1.0  0.78954  0.61636  0.25087  1.0000
  S   S910      1.0  0.78354  0.95209  0.26047  1.0000
  C   C2640     1.0  0.65531  0.49261  0.08303  1.0000
  H   H2627     1.0  0.63584  0.91302  0.30734  1.0000
  H   H2628     1.0  0.72589  0.77081  0.28230  1.0000
  N   N213      1.0  0.60520  0.57250  0.05869  1.0000
  H   H2629     1.0  0.70356  0.93124  0.11812  1.0000
  C   C2641     1.0  0.67770  0.84540  0.18898  1.0000
  C   C2642     1.0  0.69279  0.97682  0.14564  1.0000
  C   C2643     1.0  0.62773  0.84013  0.27248  1.0000
  C   C2644     1.0  0.61689  0.58034  0.05614  1.0000
  H   H2630     1.0  0.73734  0.76444  0.33127  1.0000
  H   H2631     1.0  0.67591  0.83558  0.19934  1.0000
  H   H2632     1.0  0.69324  0.57216  0.02715  1.0000
  H   H2633     1.0  0.78362  0.65902  0.08285  1.0000
  H   H2634     1.0  0.76663  0.67805  0.15804  1.0000
  H   H2635     1.0  0.75569  0.87902  0.23177  1.0000
  C   C2645     1.0  0.70624  0.91267  0.10641  1.0000
  H   H2636     1.0  0.75444  0.61918  0.08143  1.0000
  H   H2637     1.0  0.75976  0.97780  0.23949  1.0000
  H   H2638     1.0  0.70063  0.48437  0.06904  1.0000
  H   H2639     1.0  0.76216  0.86349  0.25711  1.0000
  H   H2640     1.0  0.62751  0.57449  0.06047  1.0000
  H   H2641     1.0  0.73876  0.75059  0.04674  1.0000
  C   C2646     1.0  0.69294  0.56676  0.01797  1.0000
  C   C2647     1.0  0.68387  0.83762  0.14895  1.0000
  H   H2642     1.0  0.66202  0.92762  0.10665  1.0000
  H   H2643     1.0  0.63309  0.81795  0.01187  1.0000
  H   H2644     1.0  0.65636  0.71815  0.16965  1.0000
  C   C2648     1.0  0.77494  0.65733  0.14827  1.0000
  N   N214      1.0  0.74897  0.84642  0.25948  1.0000
  C   C2649     1.0  0.73673  0.84962  0.23809  1.0000
  C   C2650     1.0  0.75494  0.85952  0.25188  1.0000
  N   N215      1.0  0.62174  0.84367  0.25931  1.0000
  C   C2651     1.0  0.75143  0.86832  0.23746  1.0000
  H   H2645     1.0  0.73863  0.96181  0.18203  1.0000
  H   H2646     1.0  0.61925  0.80411  0.28898  1.0000
  C   C2652     1.0  0.68001  0.50063  0.07810  1.0000
  C   C2653     1.0  0.59249  0.59287  0.13007  1.0000
  H   H2647     1.0  0.63028  0.85622  0.10245  1.0000
  C   C2654     1.0  0.78279  0.73410  0.00172  1.0000
  C   C2655     1.0  0.69399  0.56813  0.99076  1.0000
  H   H2648     1.0  0.76309  0.63681  0.27005  1.0000
  C   C2656     1.0  0.74754  0.97360  0.22439  1.0000
  H   H2649     1.0  0.64267  0.49484  0.08724  1.0000
  H   H2650     1.0  0.63247  0.80296  0.14809  1.0000
  C   C2657     1.0  0.73341  0.76255  0.30435  1.0000
  C   C2658     1.0  0.75104  0.60313  0.10391  1.0000
  H   H2651     1.0  0.69791  0.84330  0.16126  1.0000
  H   H2652     1.0  0.75329  0.75369  0.05514  1.0000
  H   H2653     1.0  0.74170  0.91939  0.15640  1.0000
  C   C2659     1.0  0.64132  0.82239  0.04455  1.0000
  N   N216      1.0  0.62571  0.82438  0.13196  1.0000
  C   C2660     1.0  0.63105  0.83307  0.11745  1.0000
  C   C2661     1.0  0.61441  0.83144  0.14288  1.0000
  C   C2662     1.0  0.62557  0.84935  0.11380  1.0000
  C   C2663     1.0  0.60844  0.84766  0.13952  1.0000
  S   S911      1.0  0.59556  0.83559  0.21329  1.0000
  C   C2664     1.0  0.63152  0.80731  0.13559  1.0000
  H   H2654     1.0  0.63969  0.82748  0.10865  1.0000
  H   H2655     1.0  0.61005  0.82456  0.15432  1.0000
  S   S912      1.0  0.78864  0.93398  0.22318  1.0000
  H   H2656     1.0  0.75920  0.95322  0.17600  1.0000
  C   C2665     1.0  0.61428  0.85669  0.12499  1.0000
  H   H2657     1.0  0.64335  0.80371  0.12823  1.0000
  H   H2658     1.0  0.62334  0.80144  0.13335  1.0000
  N   N217      1.0  0.67005  0.64696  0.12494  1.0000
  C   C2666     1.0  0.67673  0.63283  0.13329  1.0000
  C   C2667     1.0  0.65442  0.65037  0.12470  1.0000
  C   C2668     1.0  0.66766  0.62180  0.14197  1.0000
  C   C2669     1.0  0.64498  0.63965  0.13333  1.0000
  C   C2670     1.0  0.65167  0.62529  0.14202  1.0000
  C   C2671     1.0  0.67986  0.65826  0.11586  1.0000
  H   H2659     1.0  0.68909  0.63004  0.13348  1.0000
  H   H2660     1.0  0.64901  0.66165  0.11829  1.0000
  H   H2661     1.0  0.67306  0.61068  0.14869  1.0000
  H   H2662     1.0  0.63247  0.64272  0.13361  1.0000
  H   H2663     1.0  0.64446  0.61694  0.14890  1.0000
  H   H2664     1.0  0.67264  0.67032  0.11287  1.0000
  H   H2665     1.0  0.68788  0.65901  0.12282  1.0000
  H   H2666     1.0  0.68697  0.65462  0.10484  1.0000
  C   C2672     1.0  0.67448  0.92341  0.10646  1.0000
  C   C2673     1.0  0.69781  0.92560  0.11288  1.0000
  H   H2667     1.0  0.73618  0.74393  0.33665  1.0000
  H   H2668     1.0  0.60969  0.83622  0.24640  1.0000
  C   C2674     1.0  0.75217  0.83755  0.27487  1.0000
  H   H2669     1.0  0.64430  0.50123  0.00813  1.0000
  S   S913      1.0  0.66482  0.79488  0.99675  1.0000
  H   H2670     1.0  0.73693  0.76925  0.05149  1.0000
  N   N218      1.0  0.74460  0.95431  0.16066  1.0000
  C   C2675     1.0  0.74627  0.93841  0.16322  1.0000
  H   H2671     1.0  0.61363  0.54846  0.05794  1.0000
  C   C2676     1.0  0.74085  0.93198  0.15391  1.0000
  H   H2672     1.0  0.61597  0.97675  0.36265  1.0000
  C   C2677     1.0  0.73392  0.94193  0.14173  1.0000
  C   C2678     1.0  0.60163  0.60369  0.04244  1.0000
  H   H2673     1.0  0.75152  0.93063  0.17273  1.0000
  H   H2674     1.0  0.64506  0.49293  0.03652  1.0000
  H   H2675     1.0  0.65137  0.77423  0.05798  1.0000
  C   C2679     1.0  0.60318  0.77110  0.15290  1.0000
  C   C2680     1.0  0.78459  0.63456  0.13588  1.0000
  C   C2681     1.0  0.77213  0.63994  0.25933  1.0000
  C   C2682     1.0  0.68795  0.48676  0.07282  1.0000
  H   H2676     1.0  0.76902  0.65017  0.15864  1.0000
  C   C2683     1.0  0.65281  0.57099  0.01439  1.0000
  H   H2677     1.0  0.74579  0.55643  0.11422  1.0000
  H   H2678     1.0  0.63363  0.79108  0.02794  1.0000
  H   H2679     1.0  0.66523  0.48826  0.98884  1.0000
  C   C2684     1.0  0.73553  0.56650  0.11428  1.0000
  S   S914      1.0  0.65361  0.54796  0.07976  1.0000
  C   C2685     1.0  0.73439  0.76250  0.28868  1.0000
  H   H2680     1.0  0.59231  0.59364  0.08407  1.0000
  H   H2681     1.0  0.76720  0.75655  0.08255  1.0000
  C   C2686     1.0  0.68574  0.52925  0.01459  1.0000
  H   H2682     1.0  0.69146  0.90511  0.30960  1.0000
  C   C2687     1.0  0.61340  0.81915  0.26747  1.0000
  S   S915      1.0  0.60310  0.79423  0.16684  1.0000
  H   H2683     1.0  0.76481  0.73388  0.31156  1.0000
  H   H2684     1.0  0.63450  0.77281  0.05206  1.0000
  N   N219      1.0  0.61900  0.70136  0.18016  1.0000
  S   S916      1.0  0.59488  0.72984  0.11703  1.0000
  H   H2685     1.0  0.65578  0.58199  0.00746  1.0000
  C   C2688     1.0  0.74221  0.86333  0.23058  1.0000
  C   C2689     1.0  0.65411  0.48716  0.02799  1.0000
  H   H2686     1.0  0.73472  0.97300  0.20782  1.0000
  C   C2690     1.0  0.78108  0.68251  0.13463  1.0000
  H   H2687     1.0  0.69037  0.54778  0.98587  1.0000
  H   H2688     1.0  0.66249  0.88210  0.28968  1.0000
  H   H2689     1.0  0.67281  0.91058  0.08165  1.0000
  H   H2690     1.0  0.72916  0.93720  0.13474  1.0000
  C   C2691     1.0  0.74307  0.75259  0.32878  1.0000
  H   H2691     1.0  0.65739  0.51408  0.08732  1.0000
  C   C2692     1.0  0.75761  0.74170  0.28953  1.0000
  C   C2693     1.0  0.60363  0.55447  0.11338  1.0000
  H   H2692     1.0  0.60735  0.68439  0.17892  1.0000
  C   C2694     1.0  0.77765  0.62855  0.19031  1.0000
  C   C2695     1.0  0.59536  0.58278  0.09230  1.0000
  H   H2693     1.0  0.73933  0.87003  0.21943  1.0000
  C   C2696     1.0  0.74865  0.96085  0.17172  1.0000
  H   H2694     1.0  0.59543  0.70370  0.17833  1.0000
  C   C2697     1.0  0.60744  0.55587  0.06666  1.0000
  C   C2698     1.0  0.77486  0.66656  0.08991  1.0000
  H   H2695     1.0  0.72402  0.77092  0.30995  1.0000
  C   C2699     1.0  0.61762  0.71715  0.17815  1.0000
  C   C2700     1.0  0.67922  0.90694  0.30915  1.0000
  C   C2701     1.0  0.59820  0.75821  0.15168  1.0000
  N   N220      1.0  0.74063  0.58102  0.10523  1.0000
  C   C2702     1.0  0.63806  0.82641  0.02960  1.0000
  H   H2696     1.0  0.74497  0.60372  0.06840  1.0000
  C   C2703     1.0  0.74056  0.58588  0.08953  1.0000
  H   H2697     1.0  0.63850  0.83807  0.02234  1.0000
  H   H2698     1.0  0.61013  0.86934  0.12245  1.0000
  N   N221      1.0  0.68204  0.89382  0.22059  1.0000
  C   C2704     1.0  0.66696  0.90248  0.22149  1.0000
  C   C2705     1.0  0.69351  0.89991  0.22237  1.0000
  C   C2706     1.0  0.66323  0.91795  0.22339  1.0000
  C   C2707     1.0  0.69015  0.91527  0.22452  1.0000
  C   C2708     1.0  0.67495  0.92438  0.22485  1.0000
  C   C2709     1.0  0.68573  0.87767  0.21852  1.0000
  H   H2699     1.0  0.65777  0.89747  0.22057  1.0000
  H   H2700     1.0  0.70532  0.89285  0.22228  1.0000
  H   H2701     1.0  0.65135  0.92489  0.22366  1.0000
  H   H2702     1.0  0.69929  0.92000  0.22596  1.0000
  H   H2703     1.0  0.67226  0.93637  0.22632  1.0000
  H   H2704     1.0  0.69803  0.87441  0.21191  1.0000
  H   H2705     1.0  0.68408  0.86952  0.23017  1.0000
  H   H2706     1.0  0.67790  0.87612  0.21178  1.0000
  H   H2707     1.0  0.67801  0.52836  0.00738  1.0000
  C   C2710     1.0  0.64584  0.71344  0.17287  1.0000
  C   C2711     1.0  0.63347  0.69140  0.17933  1.0000
  H   H2708     1.0  0.66883  0.82713  0.98832  1.0000
  H   H2709     1.0  0.62981  0.73608  0.17213  1.0000
  S   S917      1.0  0.69094  0.51327  0.07976  1.0000
  H   H2710     1.0  0.60017  0.61589  0.03613  1.0000
  H   H2711     1.0  0.64421  0.80397  0.06499  1.0000
  C   C2712     1.0  0.68650  0.84116  0.16195  1.0000
  H   H2712     1.0  0.67947  0.52629  0.02709  1.0000
  C   C2713     1.0  0.73797  0.96413  0.14864  1.0000
  H   H2713     1.0  0.72980  0.56739  0.12665  1.0000
  C   C2714     1.0  0.64141  0.80709  0.05348  1.0000
  H   H2714     1.0  0.65860  0.68936  0.17460  1.0000
  C   C2715     1.0  0.65369  0.49183  0.01207  1.0000
  H   H2715     1.0  0.63455  0.67884  0.18121  1.0000
  H   H2716     1.0  0.65107  0.84054  0.18627  1.0000
  H   H2717     1.0  0.66354  0.90115  0.10109  1.0000
  C   C2716     1.0  0.63498  0.81514  0.02375  1.0000
  C   C2717     1.0  0.63535  0.79990  0.03292  1.0000
  H   H2718     1.0  0.74411  0.69300  0.11626  1.0000
  S   S918      1.0  0.68788  0.55793  0.06472  1.0000
  H   H2719     1.0  0.74588  0.58558  0.12489  1.0000
  C   C2718     1.0  0.62687  0.82590  0.28338  1.0000
  S   S919      1.0  0.77551  0.90133  0.23276  1.0000
  H   H2720     1.0  0.66676  0.83328  0.13912  1.0000
  N   N222      1.0  0.63837  0.79610  0.04766  1.0000
  H   H2721     1.0  0.64563  0.83506  0.16333  1.0000
  H   H2722     1.0  0.68206  0.89141  0.09127  1.0000
  S   S920      1.0  0.79042  0.73638  0.32727  1.0000
  C   C2719     1.0  0.64995  0.56062  0.00705  1.0000
  C   C2720     1.0  0.76202  0.66099  0.10045  1.0000
  H   H2723     1.0  0.75736  0.84412  0.28012  1.0000
  N   N223      1.0  0.68285  0.91070  0.10016  1.0000
  H   H2724     1.0  0.68431  0.89280  0.29215  1.0000
  H   H2725     1.0  0.67037  0.92129  0.32644  1.0000
  C   C2721     1.0  0.75061  0.67089  0.10930  1.0000
  H   H2726     1.0  0.78252  0.64089  0.26302  1.0000
  H   H2727     1.0  0.74020  0.66705  0.11674  1.0000
  C   C2722     1.0  0.75364  0.98312  0.22992  1.0000
  C   C2723     1.0  0.67494  0.90313  0.09316  1.0000
  C   C2724     1.0  0.76577  0.69113  0.09874  1.0000
  C   C2725     1.0  0.62279  0.85868  0.24810  1.0000
  C   C2726     1.0  0.65725  0.83649  0.16290  1.0000
  C   C2727     1.0  0.65575  0.89446  0.28856  1.0000
  C   C2728     1.0  0.66908  0.83548  0.14937  1.0000
  H   H2728     1.0  0.72975  0.84552  0.23271  1.0000
  H   H2729     1.0  0.78977  0.73421  0.02256  1.0000
  Fe  Fe461     1.0  0.78839  0.71763  0.08097  1.0000
  H   H2730     1.0  0.69700  0.52052  0.01265  1.0000
  C   C2729     1.0  0.69483  0.57507  0.00236  1.0000
  H   H2731     1.0  0.60816  0.81087  0.26508  1.0000
  C   C2730     1.0  0.76667  0.62847  0.24049  1.0000
  H   H2732     1.0  0.61088  0.77685  0.14289  1.0000
  H   H2733     1.0  0.76747  0.65172  0.25243  1.0000
  H   H2734     1.0  0.59597  0.55262  0.07287  1.0000
  N   N224      1.0  0.77636  0.62809  0.24984  1.0000
  H   H2735     1.0  0.61446  0.55329  0.07575  1.0000
  C   C2731     1.0  0.60485  0.69504  0.18378  1.0000
  H   H2736     1.0  0.72683  0.96597  0.12982  1.0000
  Fe  Fe462     1.0  0.78121  0.93416  0.24886  1.0000
  H   H2737     1.0  0.63466  0.86114  0.24599  1.0000
  H   H2738     1.0  0.60041  0.69200  0.19670  1.0000
  C   C2732     1.0  0.70339  0.97910  0.16658  1.0000
  C   C2733     1.0  0.59179  0.57989  0.05320  1.0000
  H   H2739     1.0  0.74106  0.83526  0.28325  1.0000
  H   H2740     1.0  0.78803  0.77979  0.08011  1.0000
  H   H2741     1.0  0.77979  0.69490  0.13399  1.0000
  C   C2734     1.0  0.73959  0.98026  0.21214  1.0000
  Fe  Fe463     1.0  0.78778  0.76165  0.31420  1.0000
  C   C2735     1.0  0.66554  0.48443  0.00122  1.0000
  H   H2742     1.0  0.77544  0.62952  0.14540  1.0000
  H   H2743     1.0  0.76261  0.61760  0.22400  1.0000
  Fe  Fe464     1.0  0.59444  0.91704  0.34476  1.0000
  H   H2744     1.0  0.73609  0.97678  0.14698  1.0000
  H   H2745     1.0  0.78712  0.61887  0.18729  1.0000
  C   C2736     1.0  0.78384  0.60531  0.23226  1.0000
  C   C2737     1.0  0.78918  0.96980  0.24989  1.0000
  C   C2738     1.0  0.60578  0.98371  0.35804  1.0000
  C   C2739     1.0  0.59704  0.98295  0.59617  1.0000
  H   H2746     1.0  0.65282  0.67169  0.89738  1.0000
  C   C2740     1.0  0.69510  0.84879  0.91779  1.0000
  C   C2741     1.0  0.62559  0.88257  0.74266  1.0000
  H   H2747     1.0  0.71558  0.58564  0.94088  1.0000
  Fe  Fe465     1.0  0.67782  0.54891  0.95425  1.0000
  H   H2748     1.0  0.62484  0.88270  0.60595  1.0000
  S   S921      1.0  0.69544  0.56367  0.95090  1.0000
  C   C2742     1.0  0.61063  0.89038  0.82783  1.0000
  Fe  Fe466     1.0  0.64819  0.54492  0.94805  1.0000
  S   S922      1.0  0.63053  0.55479  0.93267  1.0000
  S   S923      1.0  0.67386  0.53676  0.93762  1.0000
  C   C2743     1.0  0.68361  0.87524  0.92144  1.0000
  H   H2749     1.0  0.61757  0.87762  0.75297  1.0000
  Fe  Fe467     1.0  0.67484  0.80682  0.93863  1.0000
  S   S924      1.0  0.69836  0.80166  0.92249  1.0000
  Fe  Fe468     1.0  0.64974  0.83456  0.94710  1.0000
  S   S925      1.0  0.59870  0.90172  0.62656  1.0000
  S   S926      1.0  0.64289  0.86101  0.94031  1.0000
  Fe  Fe469     1.0  0.64095  0.80358  0.95081  1.0000
  S   S927      1.0  0.62160  0.79411  0.94803  1.0000
  N   N225      1.0  0.68982  0.88111  0.90602  1.0000
  S   S928      1.0  0.65283  0.81956  0.93010  1.0000
  Fe  Fe470     1.0  0.73176  0.62461  0.88259  1.0000
  S   S929      1.0  0.73159  0.63538  0.90207  1.0000
  S   S930      1.0  0.71870  0.60614  0.88407  1.0000
  C   C2744     1.0  0.66025  0.89566  0.80714  1.0000
  Fe  Fe471     1.0  0.72510  0.65850  0.88570  1.0000
  S   S931      1.0  0.70639  0.67723  0.89602  1.0000
  S   S932      1.0  0.72335  0.64766  0.86717  1.0000
  S   S933      1.0  0.65221  0.55872  0.96311  1.0000
  S   S934      1.0  0.60143  0.72619  0.88417  1.0000
  H   H2750     1.0  0.68694  0.63245  0.88204  1.0000
  Fe  Fe472     1.0  0.62361  0.72668  0.91526  1.0000
  S   S935      1.0  0.63024  0.73817  0.88993  1.0000
  S   S936      1.0  0.63872  0.72766  0.93077  1.0000
  Fe  Fe473     1.0  0.60447  0.74708  0.89110  1.0000
  C   C2745     1.0  0.59646  0.60921  0.96575  1.0000
  Fe  Fe474     1.0  0.62696  0.71657  0.88520  1.0000
  S   S937      1.0  0.64580  0.70495  0.86751  1.0000
  H   H2751     1.0  0.65259  0.90535  0.73200  1.0000
  S   S938      1.0  0.62255  0.70408  0.91051  1.0000
  Fe  Fe475     1.0  0.66225  0.91609  0.85973  1.0000
  S   S939      1.0  0.63657  0.92658  0.86167  1.0000
  S   S940      1.0  0.67175  0.89084  0.87017  1.0000
  Fe  Fe476     1.0  0.67178  0.94497  0.83704  1.0000
  S   S941      1.0  0.64693  0.95798  0.83681  1.0000
  S   S942      1.0  0.69147  0.95606  0.82121  1.0000
  Fe  Fe477     1.0  0.64280  0.94854  0.86279  1.0000
  S   S943      1.0  0.62536  0.96297  0.87914  1.0000
  Fe  Fe478     1.0  0.64290  0.93513  0.83559  1.0000
  S   S944      1.0  0.62919  0.93480  0.81850  1.0000
  S   S945      1.0  0.66811  0.93720  0.86332  1.0000
  S   S946      1.0  0.66813  0.92292  0.83340  1.0000
  Fe  Fe479     1.0  0.74935  0.94469  0.73821  1.0000
  S   S947      1.0  0.76221  0.93110  0.75729  1.0000
  Fe  Fe480     1.0  0.75097  0.91524  0.72707  1.0000
  S   S948      1.0  0.76385  0.89942  0.74543  1.0000
  S   S949      1.0  0.74924  0.90309  0.70922  1.0000
  Fe  Fe481     1.0  0.74675  0.91421  0.76153  1.0000
  S   S950      1.0  0.73521  0.90364  0.78596  1.0000
  C   C2746     1.0  0.59832  0.93974  0.87281  1.0000
  C   C2747     1.0  0.62447  0.90562  0.83546  1.0000
  S   S951      1.0  0.73254  0.92867  0.74371  1.0000
  S   S952      1.0  0.76638  0.93269  0.71972  1.0000
  Fe  Fe482     1.0  0.67831  0.88800  0.64996  1.0000
  S   S953      1.0  0.68863  0.86205  0.65676  1.0000
  S   S954      1.0  0.66847  0.90092  0.62832  1.0000
  Fe  Fe483     1.0  0.68594  0.89531  0.67743  1.0000
  S   S955      1.0  0.69683  0.87035  0.68627  1.0000
  S   S956      1.0  0.68371  0.91263  0.69185  1.0000
  Fe  Fe484     1.0  0.70839  0.86963  0.66121  1.0000
  S   S957      1.0  0.73471  0.85983  0.65725  1.0000
  Fe  Fe485     1.0  0.67630  0.86498  0.68138  1.0000
  S   S958      1.0  0.66265  0.84837  0.69971  1.0000
  S   S959      1.0  0.69906  0.89544  0.65258  1.0000
  S   S960      1.0  0.66440  0.89018  0.67420  1.0000
  H   H2752     1.0  0.65610  0.92034  0.79678  1.0000
  H   H2753     1.0  0.78879  0.59675  0.82218  1.0000
  S   S961      1.0  0.76851  0.79117  0.64680  1.0000
  C   C2748     1.0  0.59626  0.60887  0.92467  1.0000
  C   C2749     1.0  0.59796  0.78333  0.86309  1.0000
  S   S962      1.0  0.62161  0.84188  0.80949  1.0000
  H   H2754     1.0  0.72487  0.60229  0.91495  1.0000
  H   H2755     1.0  0.73782  0.66355  0.96552  1.0000
  H   H2756     1.0  0.76866  0.66358  0.90046  1.0000
  C   C2750     1.0  0.74363  0.84045  0.65501  1.0000
  C   C2751     1.0  0.73537  0.83088  0.65231  1.0000
  C   C2752     1.0  0.74307  0.81565  0.65013  1.0000
  C   C2753     1.0  0.75897  0.80983  0.65085  1.0000
  C   C2754     1.0  0.76713  0.81929  0.65390  1.0000
  C   C2755     1.0  0.75950  0.83459  0.65586  1.0000
  H   H2757     1.0  0.72316  0.83531  0.65159  1.0000
  H   H2758     1.0  0.73671  0.80839  0.64774  1.0000
  H   H2759     1.0  0.59190  0.96906  0.84752  1.0000
  H   H2760     1.0  0.76594  0.84194  0.65797  1.0000
  C   C2756     1.0  0.65558  0.85190  0.75062  1.0000
  C   C2757     1.0  0.64808  0.84221  0.74699  1.0000
  C   C2758     1.0  0.65068  0.84081  0.73138  1.0000
  C   C2759     1.0  0.66049  0.84937  0.71932  1.0000
  C   C2760     1.0  0.66800  0.85900  0.72301  1.0000
  C   C2761     1.0  0.66577  0.86005  0.73864  1.0000
  H   H2761     1.0  0.64047  0.83560  0.75623  1.0000
  H   H2762     1.0  0.64489  0.83327  0.72863  1.0000
  H   H2763     1.0  0.67520  0.86599  0.71385  1.0000
  H   H2764     1.0  0.67144  0.86769  0.74139  1.0000
  C   C2762     1.0  0.73096  0.90662  0.70422  1.0000
  C   C2763     1.0  0.73008  0.90014  0.69224  1.0000
  C   C2764     1.0  0.71559  0.90195  0.68848  1.0000
  C   C2765     1.0  0.70190  0.91053  0.69648  1.0000
  C   C2766     1.0  0.70278  0.91729  0.70830  1.0000
  C   C2767     1.0  0.71729  0.91525  0.71224  1.0000
  H   H2765     1.0  0.74065  0.89373  0.68578  1.0000
  H   H2766     1.0  0.71509  0.89685  0.67921  1.0000
  H   H2767     1.0  0.69223  0.92398  0.71449  1.0000
  H   H2768     1.0  0.71788  0.92034  0.72146  1.0000
  C   C2768     1.0  0.62019  0.88621  0.59537  1.0000
  C   C2769     1.0  0.63698  0.88563  0.71535  1.0000
  C   C2770     1.0  0.64622  0.89522  0.71642  1.0000
  C   C2771     1.0  0.72985  0.76025  0.92494  1.0000
  C   C2772     1.0  0.70634  0.79176  0.96570  1.0000
  H   H2769     1.0  0.65805  0.66422  0.93365  1.0000
  C   C2773     1.0  0.61501  0.91555  0.81131  1.0000
  C   C2774     1.0  0.67144  0.88223  0.81150  1.0000
  H   H2770     1.0  0.63043  0.90689  0.84369  1.0000
  C   C2775     1.0  0.70505  0.94175  0.81191  1.0000
  C   C2776     1.0  0.70722  0.92597  0.81978  1.0000
  C   C2777     1.0  0.71700  0.91433  0.81191  1.0000
  C   C2778     1.0  0.72455  0.91844  0.79614  1.0000
  C   C2779     1.0  0.72269  0.93426  0.78836  1.0000
  C   C2780     1.0  0.71297  0.94593  0.79626  1.0000
  H   H2771     1.0  0.70132  0.92272  0.83194  1.0000
  H   H2772     1.0  0.71850  0.90211  0.81800  1.0000
  H   H2773     1.0  0.72837  0.93750  0.77613  1.0000
  H   H2774     1.0  0.71110  0.95808  0.79002  1.0000
  S   S963      1.0  0.59791  0.73689  0.91703  1.0000
  Fe  Fe486     1.0  0.65940  0.80647  0.97285  1.0000
  H   H2775     1.0  0.62312  0.86320  0.71731  1.0000
  N   N226      1.0  0.62702  0.87925  0.72845  1.0000
  H   H2776     1.0  0.60586  0.80180  0.91788  1.0000
  H   H2777     1.0  0.77656  0.87592  0.71646  1.0000
  H   H2778     1.0  0.74313  0.74544  0.96268  1.0000
  C   C2781     1.0  0.65764  0.48480  0.95261  1.0000
  C   C2782     1.0  0.59301  0.55989  0.96896  1.0000
  C   C2783     1.0  0.69071  0.68646  0.88646  1.0000
  C   C2784     1.0  0.67820  0.69715  0.89336  1.0000
  C   C2785     1.0  0.66456  0.70312  0.88731  1.0000
  C   C2786     1.0  0.66352  0.69880  0.87404  1.0000
  C   C2787     1.0  0.67638  0.68880  0.86658  1.0000
  C   C2788     1.0  0.68995  0.68259  0.87282  1.0000
  H   H2779     1.0  0.67878  0.70042  0.90376  1.0000
  H   H2780     1.0  0.65479  0.71084  0.89318  1.0000
  H   H2781     1.0  0.67570  0.68553  0.85622  1.0000
  H   H2782     1.0  0.69967  0.67469  0.86717  1.0000
  C   C2789     1.0  0.64901  0.86919  0.92018  1.0000
  C   C2790     1.0  0.65878  0.85971  0.90994  1.0000
  C   C2791     1.0  0.66496  0.86646  0.89433  1.0000
  C   C2792     1.0  0.66146  0.88275  0.88882  1.0000
  C   C2793     1.0  0.65118  0.89228  0.89881  1.0000
  C   C2794     1.0  0.64503  0.88549  0.91451  1.0000
  H   H2783     1.0  0.66221  0.84724  0.91418  1.0000
  H   H2784     1.0  0.67292  0.85905  0.88666  1.0000
  H   H2785     1.0  0.64844  0.90489  0.89462  1.0000
  H   H2786     1.0  0.63746  0.89290  0.92237  1.0000
  C   C2795     1.0  0.62622  0.77490  0.94494  1.0000
  C   C2796     1.0  0.61470  0.76939  0.94172  1.0000
  C   C2797     1.0  0.61839  0.75475  0.93770  1.0000
  C   C2798     1.0  0.63355  0.74539  0.93717  1.0000
  C   C2799     1.0  0.64492  0.75059  0.94102  1.0000
  C   C2800     1.0  0.64132  0.76541  0.94474  1.0000
  S   S964      1.0  0.77539  0.62935  0.90344  1.0000
  H   H2787     1.0  0.67110  0.92631  0.63934  1.0000
  H   H2788     1.0  0.65667  0.74337  0.94065  1.0000
  H   H2789     1.0  0.65027  0.76954  0.94719  1.0000
  C   C2801     1.0  0.72035  0.74930  0.93204  1.0000
  C   C2802     1.0  0.70398  0.75443  0.93548  1.0000
  C   C2803     1.0  0.69715  0.77051  0.93225  1.0000
  C   C2804     1.0  0.70668  0.78149  0.92560  1.0000
  C   C2805     1.0  0.72302  0.77634  0.92172  1.0000
  H   H2790     1.0  0.69657  0.74597  0.94075  1.0000
  H   H2791     1.0  0.68452  0.77434  0.93467  1.0000
  H   H2792     1.0  0.73041  0.78479  0.91632  1.0000
  C   C2806     1.0  0.61773  0.90233  0.62744  1.0000
  C   C2807     1.0  0.62437  0.89254  0.64000  1.0000
  C   C2808     1.0  0.63984  0.89217  0.64054  1.0000
  C   C2809     1.0  0.64889  0.90133  0.62831  1.0000
  C   C2810     1.0  0.64229  0.91101  0.61568  1.0000
  C   C2811     1.0  0.62670  0.91168  0.61534  1.0000
  H   H2793     1.0  0.61753  0.88517  0.64933  1.0000
  H   H2794     1.0  0.64486  0.88458  0.65026  1.0000
  H   H2795     1.0  0.64928  0.91795  0.60606  1.0000
  H   H2796     1.0  0.77761  0.61892  0.80245  1.0000
  C   C2812     1.0  0.70150  0.57561  0.93228  1.0000
  C   C2813     1.0  0.71163  0.58547  0.93072  1.0000
  C   C2814     1.0  0.71688  0.59495  0.91603  1.0000
  C   C2815     1.0  0.71211  0.59457  0.90276  1.0000
  C   C2816     1.0  0.70190  0.58479  0.90432  1.0000
  C   C2817     1.0  0.69656  0.57539  0.91904  1.0000
  H   H2797     1.0  0.77660  0.96931  0.70964  1.0000
  H   H2798     1.0  0.69816  0.58443  0.89411  1.0000
  H   H2799     1.0  0.68876  0.56785  0.92011  1.0000
  H   H2800     1.0  0.62895  0.52681  0.91870  1.0000
  H   H2801     1.0  0.68849  0.90126  0.88699  1.0000
  C   C2818     1.0  0.78522  0.65919  0.93151  1.0000
  S   S965      1.0  0.76208  0.70736  0.95745  1.0000
  C   C2819     1.0  0.76728  0.59869  0.83999  1.0000
  H   H2802     1.0  0.69572  0.90297  0.90301  1.0000
  N   N227      1.0  0.59652  0.61448  0.93825  1.0000
  S   S966      1.0  0.76921  0.74065  0.93406  1.0000
  S   S967      1.0  0.74202  0.97116  0.73287  1.0000
  C   C2820     1.0  0.59905  0.97289  0.61062  1.0000
  C   C2821     1.0  0.61134  0.55966  0.94376  1.0000
  C   C2822     1.0  0.60833  0.55579  0.96019  1.0000
  H   H2803     1.0  0.59547  0.93985  0.83659  1.0000
  C   C2823     1.0  0.68215  0.64026  0.89019  1.0000
  H   H2804     1.0  0.60125  0.57066  0.92341  1.0000
  C   C2824     1.0  0.66302  0.66223  0.89901  1.0000
  C   C2825     1.0  0.70883  0.84523  0.71834  1.0000
  H   H2805     1.0  0.75464  0.67266  0.95801  1.0000
  H   H2806     1.0  0.61778  0.54960  0.96618  1.0000
  H   H2807     1.0  0.75628  0.65376  0.95479  1.0000
  C   C2826     1.0  0.71063  0.85703  0.72450  1.0000
  N   N228      1.0  0.62692  0.78895  0.90592  1.0000
  C   C2827     1.0  0.63729  0.79588  0.90858  1.0000
  C   C2828     1.0  0.63188  0.77443  0.90235  1.0000
  C   C2829     1.0  0.65302  0.78808  0.90808  1.0000
  C   C2830     1.0  0.64749  0.76625  0.90187  1.0000
  C   C2831     1.0  0.65809  0.77313  0.90480  1.0000
  C   C2832     1.0  0.78289  0.97093  0.71748  1.0000
  H   H2808     1.0  0.63326  0.80725  0.91174  1.0000
  C   C2833     1.0  0.65153  0.49141  0.91221  1.0000
  H   H2809     1.0  0.66109  0.79340  0.91071  1.0000
  H   H2810     1.0  0.65116  0.75436  0.89994  1.0000
  H   H2811     1.0  0.67010  0.76671  0.90496  1.0000
  C   C2834     1.0  0.65373  0.51900  0.91815  1.0000
  C   C2835     1.0  0.77032  0.61530  0.81395  1.0000
  H   H2812     1.0  0.66252  0.93494  0.67268  1.0000
  C   C2836     1.0  0.62855  0.89378  0.58130  1.0000
  H   H2813     1.0  0.67618  0.88307  0.92899  1.0000
  H   H2814     1.0  0.59891  0.87816  0.60710  1.0000
  H   H2815     1.0  0.59791  0.59173  0.95335  1.0000
  C   C2837     1.0  0.75172  0.60701  0.84357  1.0000
  C   C2838     1.0  0.77621  0.65584  0.80311  1.0000
  H   H2816     1.0  0.59799  0.96084  0.61299  1.0000
  H   H2817     1.0  0.72256  0.62683  0.82867  1.0000
  C   C2839     1.0  0.59830  0.79960  0.83158  1.0000
  C   C2840     1.0  0.77907  0.64136  0.91374  1.0000
  C   C2841     1.0  0.59831  0.80752  0.84280  1.0000
  S   S968      1.0  0.74993  0.66120  0.87479  1.0000
  C   C2842     1.0  0.64103  0.96592  0.63720  1.0000
  H   H2818     1.0  0.69672  0.83617  0.92222  1.0000
  Fe  Fe487     1.0  0.77796  0.91782  0.73931  1.0000
  Fe  Fe488     1.0  0.59715  0.71506  0.91019  1.0000
  H   H2819     1.0  0.64542  0.73958  0.85441  1.0000
  C   C2843     1.0  0.66891  0.65232  0.88835  1.0000
  H   H2820     1.0  0.70219  0.86055  0.73468  1.0000
  C   C2844     1.0  0.61830  0.89223  0.83847  1.0000
  C   C2845     1.0  0.62257  0.91743  0.82200  1.0000
  H   H2821     1.0  0.76831  0.97688  0.77108  1.0000
  H   H2822     1.0  0.72358  0.62394  0.84885  1.0000
  H   H2823     1.0  0.60296  0.77660  0.94203  1.0000
  H   H2824     1.0  0.69961  0.62895  0.90406  1.0000
  H   H2825     1.0  0.67726  0.93332  0.78117  1.0000
  C   C2846     1.0  0.66496  0.90986  0.79973  1.0000
  H   H2826     1.0  0.72783  0.69178  0.90235  1.0000
  S   S969      1.0  0.66337  0.78932  0.95779  1.0000
  N   N229      1.0  0.59944  0.88820  0.58271  1.0000
  S   S970      1.0  0.64642  0.52325  0.96717  1.0000
  H   H2827     1.0  0.68057  0.85450  0.93959  1.0000
  H   H2828     1.0  0.76731  0.66495  0.79805  1.0000
  H   H2829     1.0  0.70382  0.89793  0.79810  1.0000
  H   H2830     1.0  0.62174  0.91916  0.60555  1.0000
  H   H2831     1.0  0.69889  0.83967  0.72391  1.0000
  C   C2847     1.0  0.73178  0.84802  0.69827  1.0000
  C   C2848     1.0  0.72320  0.86446  0.71722  1.0000
  C   C2849     1.0  0.64304  0.95688  0.62632  1.0000
  S   S971      1.0  0.72866  0.72922  0.93720  1.0000
  C   C2850     1.0  0.71663  0.82941  0.69832  1.0000
  H   H2832     1.0  0.68493  0.93164  0.79808  1.0000
  C   C2851     1.0  0.63925  0.51734  0.91709  1.0000
  C   C2852     1.0  0.73084  0.75111  0.96589  1.0000
  H   H2833     1.0  0.69734  0.92375  0.78149  1.0000
  Fe  Fe489     1.0  0.78819  0.72601  0.91905  1.0000
  S   S972      1.0  0.65202  0.85450  0.76987  1.0000
  C   C2853     1.0  0.60918  0.90198  0.81414  1.0000
  N   N230      1.0  0.71910  0.84121  0.70512  1.0000
  H   H2834     1.0  0.75714  0.96184  0.75954  1.0000
  H   H2835     1.0  0.74007  0.84468  0.68793  1.0000
  C   C2854     1.0  0.63475  0.89197  0.74420  1.0000
  H   H2836     1.0  0.76954  0.81651  0.61688  1.0000
  H   H2837     1.0  0.73338  0.66283  0.91162  1.0000
  H   H2838     1.0  0.65467  0.52980  0.92040  1.0000
  C   C2855     1.0  0.74879  0.98177  0.74229  1.0000
  Fe  Fe490     1.0  0.75459  0.72370  0.93606  1.0000
  H   H2839     1.0  0.72457  0.87390  0.72161  1.0000
  C   C2856     1.0  0.73395  0.85982  0.70414  1.0000
  C   C2857     1.0  0.68329  0.64857  0.91284  1.0000
  C   C2858     1.0  0.68934  0.63831  0.90255  1.0000
  H   H2840     1.0  0.62359  0.76883  0.90051  1.0000
  H   H2841     1.0  0.60948  0.75074  0.93503  1.0000
  H   H2842     1.0  0.78298  0.63338  0.83843  1.0000
  C   C2859     1.0  0.68521  0.92555  0.78890  1.0000
  S   S973      1.0  0.67878  0.52723  0.97369  1.0000
  H   H2843     1.0  0.70498  0.97752  0.83364  1.0000
  H   H2844     1.0  0.70822  0.84700  0.89436  1.0000
  S   S974      1.0  0.61100  0.87629  0.78653  1.0000
  H   H2845     1.0  0.61352  0.92465  0.80089  1.0000
  Fe  Fe491     1.0  0.60349  0.86419  0.81160  1.0000
  C   C2860     1.0  0.69154  0.89740  0.80062  1.0000
  H   H2846     1.0  0.65200  0.49676  0.95345  1.0000
  H   H2847     1.0  0.74456  0.60369  0.85523  1.0000
  H   H2848     1.0  0.74244  0.75637  0.92175  1.0000
  C   C2861     1.0  0.68721  0.89817  0.89998  1.0000
  H   H2849     1.0  0.70345  0.87581  0.88409  1.0000
  Fe  Fe492     1.0  0.60286  0.83430  0.80347  1.0000
  H   H2850     1.0  0.71711  0.97189  0.80805  1.0000
  C   C2862     1.0  0.75481  0.62353  0.81802  1.0000
  C   C2863     1.0  0.78807  0.82730  0.61631  1.0000
  H   H2851     1.0  0.69601  0.87275  0.81169  1.0000
  C   C2864     1.0  0.68720  0.88308  0.80826  1.0000
  C   C2865     1.0  0.70154  0.85488  0.90213  1.0000
  N   N231      1.0  0.68049  0.91053  0.79636  1.0000
  H   H2852     1.0  0.63610  0.96089  0.61737  1.0000
  N   N232      1.0  0.63688  0.76091  0.83917  1.0000
  C   C2866     1.0  0.63689  0.77108  0.84784  1.0000
  C   C2867     1.0  0.63631  0.76620  0.82361  1.0000
  C   C2868     1.0  0.63671  0.78693  0.84085  1.0000
  C   C2869     1.0  0.63607  0.78199  0.81627  1.0000
  C   C2870     1.0  0.63633  0.79238  0.82496  1.0000
  C   C2871     1.0  0.63657  0.74449  0.84694  1.0000
  H   H2853     1.0  0.63651  0.76706  0.86035  1.0000
  H   H2854     1.0  0.63565  0.75832  0.81687  1.0000
  H   H2855     1.0  0.63617  0.79509  0.84785  1.0000
  H   H2856     1.0  0.63495  0.78635  0.80412  1.0000
  H   H2857     1.0  0.63544  0.80478  0.81954  1.0000
  C   C2872     1.0  0.60279  0.95990  0.84855  1.0000
  H   H2858     1.0  0.69525  0.79554  0.97409  1.0000
  H   H2859     1.0  0.62472  0.74363  0.85445  1.0000
  N   N233      1.0  0.66083  0.94655  0.64926  1.0000
  C   C2873     1.0  0.65003  0.96052  0.64871  1.0000
  C   C2874     1.0  0.66275  0.93753  0.63875  1.0000
  C   C2875     1.0  0.69950  0.76594  0.97378  1.0000
  C   C2876     1.0  0.65398  0.94260  0.62708  1.0000
  H   H2860     1.0  0.60936  0.80714  0.89656  1.0000
  C   C2877     1.0  0.66972  0.94084  0.66176  1.0000
  H   H2861     1.0  0.64829  0.96756  0.65721  1.0000
  H   H2862     1.0  0.67803  0.50791  0.91767  1.0000
  H   H2863     1.0  0.68721  0.77164  0.97690  1.0000
  H   H2864     1.0  0.75022  0.63362  0.80954  1.0000
  C   C2878     1.0  0.60238  0.97849  0.62206  1.0000
  H   H2865     1.0  0.67312  0.95060  0.66429  1.0000
  H   H2866     1.0  0.62871  0.90424  0.55680  1.0000
  H   H2867     1.0  0.68081  0.93223  0.65847  1.0000
  N   N234      1.0  0.74256  0.67256  0.94088  1.0000
  C   C2879     1.0  0.74021  0.66334  0.93245  1.0000
  C   C2880     1.0  0.73927  0.68856  0.93599  1.0000
  C   C2881     1.0  0.73494  0.67012  0.91846  1.0000
  C   C2882     1.0  0.73401  0.69570  0.92203  1.0000
  C   C2883     1.0  0.73189  0.68639  0.91321  1.0000
  C   C2884     1.0  0.74800  0.66527  0.95557  1.0000
  H   H2868     1.0  0.74289  0.65064  0.93623  1.0000
  H   H2869     1.0  0.74080  0.69591  0.94282  1.0000
  H   H2870     1.0  0.73154  0.70839  0.91808  1.0000
  H   H2871     1.0  0.60313  0.89860  0.55816  1.0000
  S   S975      1.0  0.59843  0.77356  0.88279  1.0000
  C   C2885     1.0  0.59782  0.77542  0.85192  1.0000
  Fe  Fe493     1.0  0.67229  0.51596  0.95800  1.0000
  S   S976      1.0  0.67276  0.82288  0.95421  1.0000
  H   H2872     1.0  0.67366  0.67483  0.92408  1.0000
  Fe  Fe494     1.0  0.75640  0.63713  0.88960  1.0000
  S   S977      1.0  0.63592  0.81961  0.96741  1.0000
  H   H2873     1.0  0.77390  0.67935  0.91627  1.0000
  H   H2874     1.0  0.77938  0.81491  0.65450  1.0000
  H   H2875     1.0  0.60115  0.94681  0.87912  1.0000
  H   H2876     1.0  0.66786  0.87121  0.81743  1.0000
  Fe  Fe495     1.0  0.74885  0.64823  0.85737  1.0000
  H   H2877     1.0  0.64799  0.89508  0.80960  1.0000
  C   C2886     1.0  0.59899  0.56774  0.93612  1.0000
  S   S978      1.0  0.68397  0.49058  0.95751  1.0000
  C   C2887     1.0  0.59535  0.62512  0.96461  1.0000
  H   H2878     1.0  0.72332  0.81760  0.70305  1.0000
  H   H2879     1.0  0.61945  0.88326  0.84907  1.0000
  Fe  Fe496     1.0  0.62750  0.85329  0.78395  1.0000
  C   C2888     1.0  0.66400  0.67063  0.92225  1.0000
  H   H2880     1.0  0.63973  0.89624  0.58090  1.0000
  S   S979      1.0  0.75726  0.62418  0.87128  1.0000
  C   C2889     1.0  0.61736  0.86927  0.72721  1.0000
  H   H2881     1.0  0.65541  0.68129  0.91792  1.0000
  H   H2882     1.0  0.65448  0.89989  0.70615  1.0000
  C   C2890     1.0  0.77452  0.65780  0.91010  1.0000
  N   N235      1.0  0.67031  0.66035  0.91098  1.0000
  H   H2883     1.0  0.68918  0.64720  0.92220  1.0000
  C   C2891     1.0  0.69882  0.87118  0.89641  1.0000
  H   H2884     1.0  0.72056  0.83220  0.68528  1.0000
  C   C2892     1.0  0.59803  0.79942  0.85851  1.0000
  H   H2885     1.0  0.70460  0.79689  0.95351  1.0000
  H   H2886     1.0  0.67503  0.90398  0.90497  1.0000
  S   S980      1.0  0.59731  0.93174  0.58472  1.0000
  C   C2893     1.0  0.59485  0.92512  0.88092  1.0000
  S   S981      1.0  0.75505  0.65680  0.83101  1.0000
  H   H2887     1.0  0.72933  0.64078  0.83470  1.0000
  C   C2894     1.0  0.72634  0.76744  0.96397  1.0000
  H   H2888     1.0  0.74373  0.86555  0.69835  1.0000
  S   S982      1.0  0.77258  0.71064  0.91903  1.0000
  S   S983      1.0  0.60213  0.87401  0.83233  1.0000
  H   H2889     1.0  0.59697  0.61819  0.91370  1.0000
  C   C2895     1.0  0.75622  0.97424  0.75485  1.0000
  C   C2896     1.0  0.70356  0.74961  0.97555  1.0000
  H   H2890     1.0  0.63399  0.89400  0.75566  1.0000
  H   H2891     1.0  0.63820  0.88289  0.70410  1.0000
  H   H2892     1.0  0.66336  0.65416  0.87862  1.0000
  H   H2893     1.0  0.70392  0.82923  0.70084  1.0000
  C   C2897     1.0  0.77760  0.66673  0.91900  1.0000
  H   H2894     1.0  0.63941  0.73686  0.83839  1.0000
  C   C2898     1.0  0.76246  0.98281  0.76144  1.0000
  H   H2895     1.0  0.60563  0.87649  0.72556  1.0000
  C   C2899     1.0  0.60551  0.88361  0.59592  1.0000
  S   S984      1.0  0.61040  0.84385  0.77751  1.0000
  C   C2900     1.0  0.61043  0.79723  0.90690  1.0000
  H   H2896     1.0  0.60281  0.78934  0.90725  1.0000
  H   H2897     1.0  0.60357  0.97082  0.63336  1.0000
  C   C2901     1.0  0.72948  0.62811  0.83643  1.0000
  C   C2902     1.0  0.59513  0.93587  0.84911  1.0000
  H   H2898     1.0  0.73061  0.98112  0.78061  1.0000
  C   C2903     1.0  0.68612  0.85903  0.92754  1.0000
  C   C2904     1.0  0.78928  0.95805  0.72819  1.0000
  C   C2905     1.0  0.63007  0.97875  0.88340  1.0000
  H   H2899     1.0  0.61570  0.85994  0.73811  1.0000
  Fe  Fe497     1.0  0.77793  0.72350  0.95453  1.0000
  C   C2906     1.0  0.71934  0.74218  0.97162  1.0000
  H   H2900     1.0  0.59800  0.80565  0.86711  1.0000
  C   C2907     1.0  0.62236  0.89827  0.56783  1.0000
  C   C2908     1.0  0.64516  0.89829  0.73097  1.0000
  N   N236      1.0  0.74573  0.61932  0.83265  1.0000
  Fe  Fe498     1.0  0.78149  0.69569  0.94019  1.0000
  C   C2909     1.0  0.63810  0.50348  0.91405  1.0000
  N   N237      1.0  0.71086  0.77461  0.96813  1.0000
  C   C2910     1.0  0.77661  0.60289  0.82507  1.0000
  C   C2911     1.0  0.66688  0.50664  0.91645  1.0000
  C   C2912     1.0  0.60780  0.89518  0.56871  1.0000
  C   C2913     1.0  0.59710  0.60407  0.95236  1.0000
  C   C2914     1.0  0.77349  0.64991  0.81942  1.0000
  H   H2901     1.0  0.77648  0.78821  0.61451  1.0000
  H   H2902     1.0  0.77209  0.58917  0.84881  1.0000
  H   H2903     1.0  0.72267  0.72956  0.97262  1.0000
  H   H2904     1.0  0.65564  0.93539  0.61877  1.0000
  H   H2905     1.0  0.60306  0.90074  0.80602  1.0000
  C   C2915     1.0  0.59567  0.63005  0.93698  1.0000
  C   C2916     1.0  0.59503  0.63562  0.95012  1.0000
  H   H2906     1.0  0.63251  0.97704  0.63674  1.0000
  H   H2907     1.0  0.78651  0.72795  0.72399  1.0000
  S   S985      1.0  0.59990  0.80906  0.81151  1.0000
  C   C2917     1.0  0.78897  0.87606  0.71378  1.0000
  H   H2908     1.0  0.73532  0.77431  0.95905  1.0000
  H   H2909     1.0  0.60982  0.96354  0.85468  1.0000
  Fe  Fe499     1.0  0.59326  0.86625  0.78160  1.0000
  S   S986      1.0  0.78871  0.66940  0.94376  1.0000
  H   H2910     1.0  0.62687  0.50200  0.91332  1.0000
  H   H2911     1.0  0.78831  0.94643  0.72818  1.0000
  H   H2912     1.0  0.71551  0.79658  0.96761  1.0000
  C   C2918     1.0  0.78547  0.79215  0.60403  1.0000
  H   H2913     1.0  0.59504  0.92095  0.89331  1.0000
  H   H2914     1.0  0.59778  0.77742  0.82763  1.0000
  H   H2915     1.0  0.59857  0.81987  0.83935  1.0000
  N   N238      1.0  0.59880  0.94474  0.85702  1.0000
  N   N239      1.0  0.66561  0.49301  0.91368  1.0000
  H   H2916     1.0  0.60630  0.59879  0.92273  1.0000
  H   H2917     1.0  0.78015  0.83656  0.62189  1.0000
  H   H2918     1.0  0.59408  0.64804  0.94907  1.0000
  C   C2919     1.0  0.78697  0.63399  0.92598  1.0000
  H   H2919     1.0  0.78277  0.71377  0.70554  1.0000
  C   C2920     1.0  0.78995  0.64283  0.93484  1.0000
  C   C2921     1.0  0.78213  0.81591  0.61345  1.0000
  H   H2920     1.0  0.59751  0.76309  0.85539  1.0000
  S   S987      1.0  0.59151  0.97690  0.58211  1.0000
  H   H2921     1.0  0.59527  0.63831  0.92579  1.0000
  H   H2922     1.0  0.65127  0.97989  0.86537  1.0000
  H   H2923     1.0  0.78478  0.90125  0.70953  1.0000
  C   C2922     1.0  0.78502  0.63806  0.82587  1.0000
  H   H2924     1.0  0.77990  0.79724  0.59374  1.0000
  S   S988      1.0  0.77615  0.73569  0.97373  1.0000
  H   H2925     1.0  0.61011  0.95914  0.83659  1.0000
  H   H2926     1.0  0.60959  0.98071  0.90225  1.0000
  C   C2923     1.0  0.59788  0.78357  0.83624  1.0000
  H   H2927     1.0  0.69549  0.57441  0.97854  1.0000
  C   C2924     1.0  0.79022  0.64983  0.79324  1.0000
  H   H2928     1.0  0.59470  0.62930  0.97493  1.0000
  H   H2929     1.0  0.59663  0.60090  0.97695  1.0000
  C   C2925     1.0  0.59150  0.91582  0.87284  1.0000
  C   C2926     1.0  0.59144  0.92128  0.85688  1.0000
  H   H2930     1.0  0.79066  0.62132  0.92875  1.0000
  H   H2931     1.0  0.69450  0.74281  0.97972  1.0000
  Fe  Fe500     1.0  0.87209  0.45858  0.41534  1.0000
  H   H2932     1.0  0.98865  0.32357  0.43830  1.0000
  S   S989      1.0  0.86640  0.43598  0.41441  1.0000
  H   H2933     1.0  0.82236  0.21707  0.26507  1.0000
  H   H2934     1.0  0.82452  0.33952  0.37151  1.0000
  S   S990      1.0  0.87678  0.47985  0.39625  1.0000
  S   S991      1.0  0.89536  0.45349  0.42197  1.0000
  C   C2927     1.0  0.82738  0.30472  0.22179  1.0000
  H   H2935     1.0  0.89066  0.25160  0.20852  1.0000
  C   C2928     1.0  0.81896  0.07271  0.29286  1.0000
  H   H2936     1.0  0.81055  0.18457  0.42534  1.0000
  H   H2937     1.0  0.81452  0.21347  0.17962  1.0000
  S   S992      1.0  0.96836  0.13825  0.26514  1.0000
  H   H2938     1.0  0.93621  0.40452  0.34840  1.0000
  H   H2939     1.0  0.79860  0.32772  0.32473  1.0000
  S   S993      1.0  0.97152  0.25418  0.19708  1.0000
  H   H2940     1.0  0.86128  0.19767  0.38703  1.0000
  C   C2929     1.0  0.80288  0.25652  0.38037  1.0000
  H   H2941     1.0  0.83584  0.19443  0.16676  1.0000
  C   C2930     1.0  0.92655  0.47458  0.45030  1.0000
  C   C2931     1.0  0.95763  0.44083  0.43785  1.0000
  H   H2942     1.0  0.93310  0.26064  0.43531  1.0000
  Fe  Fe501     1.0  0.96423  0.25933  0.17410  1.0000
  S   S994      1.0  0.93981  0.27217  0.17065  1.0000
  C   C2932     1.0  0.82387  0.36486  0.32179  1.0000
  C   C2933     1.0  0.81895  0.25309  0.27165  1.0000
  C   C2934     1.0  0.97562  0.15185  0.22471  1.0000
  Fe  Fe502     1.0  0.89235  0.11141  0.27916  1.0000
  S   S995      1.0  0.89519  0.10826  0.25475  1.0000
  S   S996      1.0  0.91113  0.10436  0.29328  1.0000
  Fe  Fe503     1.0  0.85733  0.12537  0.28271  1.0000
  S   S997      1.0  0.85717  0.12411  0.25847  1.0000
  C   C2935     1.0  0.92488  0.25532  0.43310  1.0000
  Fe  Fe504     1.0  0.87234  0.10010  0.26401  1.0000
  S   S998      1.0  0.86687  0.07846  0.26077  1.0000
  Fe  Fe505     1.0  0.87971  0.13251  0.25135  1.0000
  S   S999      1.0  0.88544  0.15093  0.22956  1.0000
  S   S1000     1.0  0.87106  0.10086  0.28883  1.0000
  S   S1001     1.0  0.87844  0.13623  0.27515  1.0000
  Fe  Fe506     1.0  0.86757  0.24186  0.17730  1.0000
  S   S1002     1.0  0.85084  0.22549  0.18499  1.0000
  S   S1003     1.0  0.89308  0.23352  0.16671  1.0000
  Fe  Fe507     1.0  0.84396  0.26742  0.19170  1.0000
  Fe  Fe508     1.0  0.86337  0.25994  0.42528  1.0000
  H   H2943     1.0  0.88532  0.13746  0.32490  1.0000
  Fe  Fe509     1.0  0.84462  0.23327  0.20774  1.0000
  S   S1004     1.0  0.84004  0.21724  0.23147  1.0000
  Fe  Fe510     1.0  0.83304  0.24701  0.17729  1.0000
  C   C2936     1.0  0.97211  0.21109  0.41430  1.0000
  S   S1005     1.0  0.86268  0.24783  0.20076  1.0000
  S   S1006     1.0  0.85026  0.26283  0.16740  1.0000
  H   H2944     1.0  0.93422  0.44677  0.41230  1.0000
  H   H2945     1.0  0.81148  0.24821  0.09829  1.0000
  Fe  Fe511     1.0  0.87368  0.35525  0.36959  1.0000
  S   S1007     1.0  0.85563  0.37073  0.38453  1.0000
  S   S1008     1.0  0.89722  0.34206  0.37488  1.0000
  Fe  Fe512     1.0  0.85449  0.36278  0.34476  1.0000
  Fe  Fe513     1.0  0.85442  0.38807  0.36165  1.0000
  S   S1009     1.0  0.85342  0.41385  0.35958  1.0000
  Fe  Fe514     1.0  0.83814  0.36112  0.37889  1.0000
  H   H2946     1.0  0.97689  0.13914  0.23037  1.0000
  S   S1010     1.0  0.87356  0.37309  0.34694  1.0000
  S   S1011     1.0  0.85625  0.34364  0.36646  1.0000
  S   S1012     1.0  0.84588  0.26416  0.41048  1.0000
  H   H2947     1.0  0.94640  0.23085  0.21172  1.0000
  C   C2937     1.0  0.91205  0.26486  0.42685  1.0000
  C   C2938     1.0  0.81296  0.21565  0.38567  1.0000
  H   H2948     1.0  0.80511  0.19044  0.02369  1.0000
  S   S1013     1.0  0.81202  0.24826  0.16798  1.0000
  C   C2939     1.0  0.92723  0.40230  0.34354  1.0000
  C   C2940     1.0  0.82619  0.34608  0.30094  1.0000
  H   H2949     1.0  0.88400  0.25985  0.45431  1.0000
  Fe  Fe515     1.0  0.95687  0.38574  0.37685  1.0000
  S   S1014     1.0  0.93065  0.39056  0.38329  1.0000
  S   S1015     1.0  0.97078  0.38594  0.39367  1.0000
  H   H2950     1.0  0.83675  0.41527  0.42735  1.0000
  Fe  Fe516     1.0  0.96732  0.27239  0.43796  1.0000
  S   S1016     1.0  0.95751  0.29683  0.42551  1.0000
  S   S1017     1.0  0.97454  0.25124  0.42722  1.0000
  C   C2941     1.0  0.83442  0.19406  0.17914  1.0000
  Fe  Fe517     1.0  0.80702  0.18212  0.35343  1.0000
  H   H2951     1.0  0.82308  0.38366  0.40860  1.0000
  C   C2942     1.0  0.97037  0.30961  0.41608  1.0000
  C   C2943     1.0  0.96398  0.32541  0.41032  1.0000
  C   C2944     1.0  0.97373  0.33621  0.40360  1.0000
  H   H2952     1.0  0.81215  0.22853  0.42337  1.0000
  H   H2953     1.0  0.91949  0.25907  0.13468  1.0000
  H   H2954     1.0  0.95142  0.32942  0.41125  1.0000
  H   H2955     1.0  0.96861  0.34844  0.39955  1.0000
  C   C2945     1.0  0.90661  0.35501  0.37807  1.0000
  C   C2946     1.0  0.92246  0.35038  0.37903  1.0000
  C   C2947     1.0  0.93007  0.36118  0.38075  1.0000
  C   C2948     1.0  0.92168  0.37644  0.38181  1.0000
  C   C2949     1.0  0.90579  0.38089  0.38119  1.0000
  C   C2950     1.0  0.89836  0.37028  0.37907  1.0000
  H   H2956     1.0  0.92894  0.33861  0.37810  1.0000
  H   H2957     1.0  0.94233  0.35766  0.38135  1.0000
  H   H2958     1.0  0.89929  0.39271  0.38196  1.0000
  H   H2959     1.0  0.88630  0.37406  0.37799  1.0000
  C   C2951     1.0  0.90518  0.44015  0.38656  1.0000
  C   C2952     1.0  0.82690  0.32531  0.40494  1.0000
  C   C2953     1.0  0.92481  0.42033  0.39859  1.0000
  H   H2960     1.0  0.93416  0.48290  0.44858  1.0000
  C   C2954     1.0  0.81424  0.40479  0.38360  1.0000
  Fe  Fe518     1.0  0.84405  0.23912  0.42123  1.0000
  H   H2961     1.0  0.83851  0.32728  0.39895  1.0000
  C   C2955     1.0  0.90129  0.25812  0.42391  1.0000
  H   H2962     1.0  0.93235  0.28017  0.38781  1.0000
  H   H2963     1.0  0.82050  0.26477  0.26529  1.0000
  Fe  Fe519     1.0  0.89896  0.47568  0.40459  1.0000
  H   H2964     1.0  0.86893  0.25023  0.46762  1.0000
  H   H2965     1.0  0.87860  0.32410  0.40190  1.0000
  C   C2956     1.0  0.92772  0.25150  0.20971  1.0000
  H   H2966     1.0  0.89299  0.44496  0.38575  1.0000
  C   C2957     1.0  0.82480  0.30997  0.41244  1.0000
  H   H2967     1.0  0.84129  0.21856  0.12714  1.0000
  H   H2968     1.0  0.83937  0.23232  0.14808  1.0000
  C   C2958     1.0  0.90915  0.42626  0.39741  1.0000
  H   H2969     1.0  0.85138  0.26886  0.22028  1.0000
  C   C2959     1.0  0.84936  0.08104  0.25466  1.0000
  C   C2960     1.0  0.92980  0.45967  0.43033  1.0000
  H   H2970     1.0  0.91024  0.27748  0.42472  1.0000
  C   C2961     1.0  0.82644  0.22298  0.40150  1.0000
  C   C2962     1.0  0.82872  0.06983  0.25248  1.0000
  C   C2963     1.0  0.84255  0.06811  0.25752  1.0000
  S   S1018     1.0  0.88487  0.27035  0.41686  1.0000
  H   H2971     1.0  0.82366  0.05978  0.25465  1.0000
  H   H2972     1.0  0.84799  0.05675  0.26369  1.0000
  C   C2964     1.0  0.81403  0.23766  0.15378  1.0000
  C   C2965     1.0  0.84767  0.14645  0.31246  1.0000
  C   C2966     1.0  0.84732  0.15477  0.32356  1.0000
  H   H2973     1.0  0.85794  0.14472  0.30316  1.0000
  H   H2974     1.0  0.85729  0.15956  0.32269  1.0000
  C   C2967     1.0  0.87351  0.16954  0.23084  1.0000
  C   C2968     1.0  0.87629  0.18248  0.21859  1.0000
  C   C2969     1.0  0.86636  0.19730  0.21904  1.0000
  C   C2970     1.0  0.85360  0.19921  0.23174  1.0000
  C   C2971     1.0  0.85101  0.18637  0.24416  1.0000
  C   C2972     1.0  0.86093  0.17152  0.24369  1.0000
  H   H2975     1.0  0.88602  0.18096  0.20864  1.0000
  H   H2976     1.0  0.86849  0.20718  0.20945  1.0000
  C   C2973     1.0  0.80020  0.37578  0.25945  1.0000
  H   H2977     1.0  0.85869  0.16156  0.25315  1.0000
  S   S1019     1.0  0.89253  0.46057  0.46212  1.0000
  C   C2974     1.0  0.92652  0.26110  0.17076  1.0000
  C   C2975     1.0  0.91108  0.26873  0.16938  1.0000
  C   C2976     1.0  0.90048  0.26024  0.16877  1.0000
  C   C2977     1.0  0.90545  0.24414  0.16914  1.0000
  C   C2978     1.0  0.92073  0.23646  0.17088  1.0000
  C   C2979     1.0  0.93115  0.24487  0.17189  1.0000
  H   H2978     1.0  0.90732  0.28127  0.16865  1.0000
  H   H2979     1.0  0.88865  0.26625  0.16749  1.0000
  H   H2980     1.0  0.92458  0.22397  0.17133  1.0000
  H   H2981     1.0  0.94279  0.23875  0.17332  1.0000
  H   H2982     1.0  0.82291  0.37213  0.32980  1.0000
  S   S1020     1.0  0.85957  0.47221  0.43440  1.0000
  S   S1021     1.0  0.97511  0.23038  0.46354  1.0000
  C   C2980     1.0  0.93638  0.42818  0.38860  1.0000
  C   C2981     1.0  0.84431  0.27881  0.22503  1.0000
  H   H2983     1.0  0.93999  0.46111  0.36035  1.0000
  C   C2982     1.0  0.82544  0.33112  0.35120  1.0000
  H   H2984     1.0  0.81378  0.27004  0.40629  1.0000
  H   H2985     1.0  0.90009  0.42010  0.40485  1.0000
  S   S1022     1.0  0.80337  0.01649  0.22417  1.0000
  C   C2983     1.0  0.95314  0.12789  0.27274  1.0000
  C   C2984     1.0  0.95157  0.11806  0.28773  1.0000
  C   C2985     1.0  0.93885  0.11054  0.29377  1.0000
  C   C2986     1.0  0.92759  0.11292  0.28492  1.0000
  C   C2987     1.0  0.92923  0.12262  0.26986  1.0000
  C   C2988     1.0  0.94206  0.13000  0.26375  1.0000
  H   H2986     1.0  0.96011  0.11631  0.29469  1.0000
  H   H2987     1.0  0.93762  0.10299  0.30540  1.0000
  H   H2988     1.0  0.92060  0.12448  0.26296  1.0000
  H   H2989     1.0  0.94322  0.13757  0.25213  1.0000
  H   H2990     1.0  0.81109  0.13871  0.32588  1.0000
  S   S1023     1.0  0.81580  0.35747  0.39636  1.0000
  H   H2991     1.0  0.96359  0.35842  0.33074  1.0000
  H   H2992     1.0  0.96865  0.43372  0.44076  1.0000
  C   C2989     1.0  0.94880  0.29899  0.46918  1.0000
  C   C2990     1.0  0.97868  0.15175  0.36188  1.0000
  S   S1024     1.0  0.97641  0.20865  0.20924  1.0000
  H   H2993     1.0  0.81976  0.06019  0.29737  1.0000
  H   H2994     1.0  0.87750  0.30406  0.41187  1.0000
  H   H2995     1.0  0.93507  0.25952  0.20869  1.0000
  C   C2991     1.0  0.82880  0.23110  0.14559  1.0000
  C   C2992     1.0  0.86531  0.43022  0.39771  1.0000
  C   C2993     1.0  0.86748  0.41414  0.39841  1.0000
  C   C2994     1.0  0.86451  0.40899  0.38647  1.0000
  C   C2995     1.0  0.85928  0.41987  0.37370  1.0000
  C   C2996     1.0  0.85775  0.43595  0.37264  1.0000
  C   C2997     1.0  0.86082  0.44114  0.38458  1.0000
  Fe  Fe520     1.0  0.88335  0.46845  0.43963  1.0000
  H   H2996     1.0  0.85375  0.44447  0.36277  1.0000
  H   H2997     1.0  0.85900  0.45357  0.38396  1.0000
  H   H2998     1.0  0.98021  0.26147  0.13153  1.0000
  H   H2999     1.0  0.82134  0.31485  0.21448  1.0000
  C   C2998     1.0  0.91197  0.25730  0.20886  1.0000
  S   S1025     1.0  0.80639  0.28850  0.42965  1.0000
  H   H3000     1.0  0.88703  0.23862  0.45942  1.0000
  C   C2999     1.0  0.81948  0.18210  0.41502  1.0000
  H   H3001     1.0  0.87047  0.17702  0.39214  1.0000
  H   H3002     1.0  0.84767  0.10559  0.24401  1.0000
  H   H3003     1.0  0.80561  0.22757  0.20049  1.0000
  N   N240      1.0  0.81396  0.24997  0.28766  1.0000
  C   C3000     1.0  0.80239  0.27994  0.13310  1.0000
  N   N241      1.0  0.96492  0.30133  0.46541  1.0000
  C   C3001     1.0  0.81136  0.26241  0.29611  1.0000
  C   C3002     1.0  0.99036  0.29504  0.47165  1.0000
  C   C3003     1.0  0.80825  0.26324  0.11421  1.0000
  H   H3004     1.0  0.80796  0.25179  0.36988  1.0000
  C   C3004     1.0  0.81247  0.37154  0.24706  1.0000
  H   H3005     1.0  0.82451  0.17010  0.38127  1.0000
  H   H3006     1.0  0.79548  0.34660  0.37836  1.0000
  H   H3007     1.0  0.98859  0.17219  0.25677  1.0000
  C   C3005     1.0  0.84230  0.09567  0.24666  1.0000
  C   C3006     1.0  0.80492  0.25906  0.10194  1.0000
  H   H3008     1.0  0.80199  0.28333  0.16669  1.0000
  H   H3009     1.0  0.80414  0.17476  0.40539  1.0000
  H   H3010     1.0  0.87102  0.40561  0.40849  1.0000
  C   C3007     1.0  0.79709  0.16195  0.06393  1.0000
  S   S1026     1.0  0.84546  0.26748  0.44594  1.0000
  H   H3011     1.0  0.80322  0.98969  0.21301  1.0000
  H   H3012     1.0  0.91376  0.45887  0.36883  1.0000
  H   H3013     1.0  0.96334  0.27557  0.13867  1.0000
  C   C3008     1.0  0.92352  0.31059  0.40594  1.0000
  H   H3014     1.0  0.90043  0.32497  0.41142  1.0000
  S   S1027     1.0  0.80550  0.08673  0.23632  1.0000
  S   S1028     1.0  0.83168  0.29101  0.26707  1.0000
  C   C3009     1.0  0.83835  0.35519  0.31673  1.0000
  C   C3010     1.0  0.97494  0.29294  0.47513  1.0000
  H   H3015     1.0  0.82620  0.24378  0.25060  1.0000
  S   S1029     1.0  0.83393  0.13171  0.29872  1.0000
  Fe  Fe521     1.0  0.96792  0.25318  0.47136  1.0000
  C   C3011     1.0  0.81479  0.22324  0.28776  1.0000
  C   C3012     1.0  0.93835  0.44809  0.42191  1.0000
  H   H3016     1.0  0.80800  0.23271  0.30844  1.0000
  H   H3017     1.0  0.91764  0.21957  0.43648  1.0000
  S   S1030     1.0  0.94189  0.22701  0.44605  1.0000
  H   H3018     1.0  0.84112  0.18778  0.25398  1.0000
  H   H3019     1.0  0.85058  0.17580  0.37719  1.0000
  C   C3013     1.0  0.81239  0.22513  0.41277  1.0000
  H   H3020     1.0  0.79252  0.07893  0.27203  1.0000
  C   C3014     1.0  0.79311  0.15964  0.05106  1.0000
  C   C3015     1.0  0.79384  0.29958  0.21269  1.0000
  N   N242      1.0  0.80045  0.33293  0.34571  1.0000
  Fe  Fe522     1.0  0.98244  0.23025  0.19193  1.0000
  C   C3016     1.0  0.79899  0.21743  0.39708  1.0000
  C   C3017     1.0  0.96961  0.31242  0.45251  1.0000
  H   H3021     1.0  0.95993  0.21696  0.41787  1.0000
  Fe  Fe523     1.0  0.98303  0.13895  0.28130  1.0000
  S   S1031     1.0  0.98116  0.42815  0.37558  1.0000
  H   H3022     1.0  0.91586  0.48141  0.44577  1.0000
  C   C3018     1.0  0.80613  0.09743  0.27978  1.0000
  C   C3019     1.0  0.80843  0.21648  0.20927  1.0000
  H   H3023     1.0  0.79682  0.10447  0.27381  1.0000
  C   C3020     1.0  0.98245  0.18924  0.23658  1.0000
  H   H3024     1.0  0.82453  0.37102  0.24723  1.0000
  C   C3021     1.0  0.95419  0.23226  0.13239  1.0000
  H   H3025     1.0  0.98483  0.15130  0.38335  1.0000
  C   C3022     1.0  0.81369  0.19799  0.04613  1.0000
  N   N243      1.0  0.84549  0.18265  0.39912  1.0000
  C   C3023     1.0  0.93205  0.25430  0.13339  1.0000
  Fe  Fe524     1.0  0.79464  0.21297  0.10982  1.0000
  N   N244      1.0  0.93514  0.46188  0.44209  1.0000
  C   C3024     1.0  0.81779  0.33755  0.36432  1.0000
  C   C3025     1.0  0.81198  0.23524  0.29575  1.0000
  H   H3026     1.0  0.81491  0.27557  0.13400  1.0000
  C   C3026     1.0  0.80382  0.17466  0.06210  1.0000
  H   H3027     1.0  0.79958  0.37305  0.31992  1.0000
  S   S1032     1.0  0.80240  0.04201  0.25420  1.0000
  H   H3028     1.0  0.79919  0.29275  0.13272  1.0000
  H   H3029     1.0  0.95938  0.42992  0.41896  1.0000
  N   N245      1.0  0.90771  0.13842  0.30961  1.0000
  C   C3027     1.0  0.91833  0.13649  0.31856  1.0000
  C   C3028     1.0  0.90955  0.14746  0.29466  1.0000
  C   C3029     1.0  0.93134  0.14352  0.31250  1.0000
  C   C3030     1.0  0.92244  0.15463  0.28822  1.0000
  C   C3031     1.0  0.93341  0.15259  0.29720  1.0000
  C   C3032     1.0  0.89412  0.13103  0.31633  1.0000
  H   H3030     1.0  0.91691  0.12925  0.33037  1.0000
  H   H3031     1.0  0.90132  0.14876  0.28744  1.0000
  H   H3032     1.0  0.93996  0.14171  0.31948  1.0000
  H   H3033     1.0  0.92422  0.16126  0.27615  1.0000
  H   H3034     1.0  0.94372  0.15767  0.29214  1.0000
  H   H3035     1.0  0.88833  0.13078  0.30710  1.0000
  H   H3036     1.0  0.89794  0.11854  0.32220  1.0000
  H   H3037     1.0  0.94510  0.29433  0.39904  1.0000
  H   H3038     1.0  0.82159  0.40850  0.37177  1.0000
  S   S1033     1.0  0.97135  0.15131  0.33477  1.0000
  C   C3033     1.0  0.80041  0.23593  0.15058  1.0000
  H   H3039     1.0  0.89541  0.23648  0.42464  1.0000
  C   C3034     1.0  0.91701  0.44787  0.37695  1.0000
  C   C3035     1.0  0.92681  0.23899  0.43676  1.0000
  H   H3040     1.0  0.90373  0.28847  0.38888  1.0000
  H   H3041     1.0  0.92802  0.40935  0.40676  1.0000
  C   C3036     1.0  0.83019  0.39802  0.41950  1.0000
  N   N246      1.0  0.93238  0.44181  0.37802  1.0000
  H   H3042     1.0  0.93735  0.27612  0.13283  1.0000
  H   H3043     1.0  0.94860  0.42325  0.38924  1.0000
  C   C3037     1.0  0.90366  0.24196  0.47747  1.0000
  H   H3044     1.0  0.97658  0.23737  0.13032  1.0000
  H   H3045     1.0  0.80420  0.27342  0.29038  1.0000
  H   H3046     1.0  0.90764  0.38438  0.34525  1.0000
  S   S1034     1.0  0.97853  0.16180  0.28851  1.0000
  S   S1035     1.0  0.96673  0.40423  0.35777  1.0000
  H   H3047     1.0  0.80025  0.30904  0.20594  1.0000
  C   C3038     1.0  0.91995  0.37874  0.34207  1.0000
  H   H3048     1.0  0.91910  0.46716  0.42711  1.0000
  C   C3039     1.0  0.92379  0.36350  0.33950  1.0000
  C   C3040     1.0  0.92455  0.22536  0.21198  1.0000
  C   C3041     1.0  0.93956  0.35608  0.33552  1.0000
  C   C3042     1.0  0.79815  0.99843  0.23409  1.0000
  C   C3043     1.0  0.98293  0.20950  0.42329  1.0000
  H   H3049     1.0  0.83695  0.18988  0.42102  1.0000
  H   H3050     1.0  0.91455  0.35741  0.34086  1.0000
  C   C3044     1.0  0.82777  0.42530  0.40628  1.0000
  H   H3051     1.0  0.94270  0.34423  0.33357  1.0000
  C   C3045     1.0  0.82087  0.15138  0.33636  1.0000
  C   C3046     1.0  0.80974  0.30741  0.42028  1.0000
  H   H3052     1.0  0.80198  0.41163  0.38398  1.0000
  H   H3053     1.0  0.83480  0.30015  0.41218  1.0000
  S   S1036     1.0  0.94896  0.26281  0.45766  1.0000
  H   H3054     1.0  0.91093  0.23605  0.46820  1.0000
  Fe  Fe525     1.0  0.95769  0.24107  0.44821  1.0000
  C   C3047     1.0  0.92548  0.29014  0.39284  1.0000
  Fe  Fe526     1.0  0.98190  0.40339  0.37394  1.0000
  H   H3055     1.0  0.82336  0.10866  0.23503  1.0000
  H   H3056     1.0  0.81963  0.43166  0.38479  1.0000
  C   C3048     1.0  0.93260  0.29802  0.39919  1.0000
  Fe  Fe527     1.0  0.82789  0.26929  0.43195  1.0000
  H   H3057     1.0  0.95122  0.45264  0.37519  1.0000
  H   H3058     1.0  0.98935  0.26533  0.21500  1.0000
  S   S1037     1.0  0.86335  0.23434  0.43420  1.0000
  Fe  Fe528     1.0  0.84424  0.24208  0.45411  1.0000
  C   C3049     1.0  0.94479  0.44983  0.36787  1.0000
  C   C3050     1.0  0.88342  0.31158  0.40125  1.0000
  H   H3059     1.0  0.92900  0.31678  0.41088  1.0000
  C   C3051     1.0  0.83186  0.41308  0.41868  1.0000
  S   S1038     1.0  0.83711  0.29177  0.19599  1.0000
  H   H3060     1.0  0.88050  0.31009  0.39070  1.0000
  N   N247      1.0  0.84207  0.06414  0.21533  1.0000
  C   C3052     1.0  0.85081  0.05215  0.22438  1.0000
  C   C3053     1.0  0.83016  0.06153  0.21049  1.0000
  C   C3054     1.0  0.84752  0.03713  0.22904  1.0000
  C   C3055     1.0  0.82677  0.04659  0.21468  1.0000
  C   C3056     1.0  0.83546  0.03435  0.22407  1.0000
  C   C3057     1.0  0.84599  0.07967  0.21004  1.0000
  H   H3061     1.0  0.86019  0.05424  0.22831  1.0000
  H   H3062     1.0  0.82308  0.07108  0.20350  1.0000
  H   H3063     1.0  0.85424  0.02773  0.23650  1.0000
  H   H3064     1.0  0.81735  0.04451  0.21081  1.0000
  H   H3065     1.0  0.83269  0.02279  0.22760  1.0000
  H   H3066     1.0  0.83512  0.08910  0.20998  1.0000
  H   H3067     1.0  0.85226  0.08161  0.21807  1.0000
  H   H3068     1.0  0.85355  0.08086  0.19802  1.0000
  S   S1039     1.0  0.79502  0.35686  0.29900  1.0000
  H   H3069     1.0  0.82669  0.19411  0.04370  1.0000
  H   H3070     1.0  0.92972  0.21294  0.21291  1.0000
  C   C3058     1.0  0.82181  0.08443  0.24428  1.0000
  H   H3071     1.0  0.82720  0.33882  0.29290  1.0000
  S   S1040     1.0  0.82540  0.25336  0.20083  1.0000
  C   C3059     1.0  0.79687  0.32016  0.42060  1.0000
  C   C3060     1.0  0.82589  0.30449  0.23764  1.0000
  C   C3061     1.0  0.82939  0.09563  0.28875  1.0000
  S   S1041     1.0  0.82483  0.24444  0.44197  1.0000
  C   C3062     1.0  0.81180  0.35596  0.30576  1.0000
  H   H3072     1.0  0.90707  0.26984  0.20713  1.0000
  C   C3063     1.0  0.93409  0.23543  0.21129  1.0000
  C   C3064     1.0  0.86084  0.18661  0.39615  1.0000
  H   H3073     1.0  0.96664  0.15856  0.23296  1.0000
  N   N248      1.0  0.90048  0.30728  0.40006  1.0000
  C   C3065     1.0  0.90930  0.29493  0.39342  1.0000
  C   C3066     1.0  0.90738  0.31507  0.40632  1.0000
  C   C3067     1.0  0.81653  0.32874  0.34203  1.0000
  C   C3068     1.0  0.79623  0.16982  0.03647  1.0000
  H   H3074     1.0  0.91595  0.40420  0.35232  1.0000
  H   H3075     1.0  0.96158  0.31925  0.44493  1.0000
  C   C3069     1.0  0.83041  0.19359  0.21070  1.0000
  C   C3070     1.0  0.90346  0.24178  0.42718  1.0000
  C   C3071     1.0  0.83393  0.29159  0.24710  1.0000
  H   H3076     1.0  0.80679  0.17638  0.07220  1.0000
  C   C3072     1.0  0.82211  0.24131  0.26330  1.0000
  C   C3073     1.0  0.81068  0.36536  0.31617  1.0000
  H   H3077     1.0  0.85031  0.17388  0.21078  1.0000
  H   H3078     1.0  0.84959  0.26885  0.24800  1.0000
  S   S1042     1.0  0.84430  0.22439  0.40463  1.0000
  C   C3074     1.0  0.80634  0.26670  0.40082  1.0000
  H   H3079     1.0  0.95329  0.44217  0.36021  1.0000
  S   S1043     1.0  0.85531  0.35430  0.32322  1.0000
  Fe  Fe529     1.0  0.98500  0.38440  0.34917  1.0000
  H   H3080     1.0  0.81005  0.29427  0.18463  1.0000
  C   C3075     1.0  0.81998  0.22630  0.27144  1.0000
  C   C3076     1.0  0.93809  0.23838  0.13349  1.0000
  C   C3077     1.0  0.82857  0.09736  0.24149  1.0000
  C   C3078     1.0  0.91615  0.23221  0.43371  1.0000
  C   C3079     1.0  0.83445  0.18504  0.41251  1.0000
  C   C3080     1.0  0.82116  0.14322  0.32522  1.0000
  C   C3081     1.0  0.83945  0.34585  0.30627  1.0000
  H   H3081     1.0  0.94509  0.29953  0.45829  1.0000
  H   H3082     1.0  0.95284  0.45404  0.45556  1.0000
  N   N249      1.0  0.82049  0.40747  0.39569  1.0000
  C   C3082     1.0  0.79279  0.26870  0.09476  1.0000
  H   H3083     1.0  0.80181  0.29008  0.21930  1.0000
  C   C3083     1.0  0.94221  0.26387  0.13235  1.0000
  C   C3084     1.0  0.84201  0.17736  0.38800  1.0000
  H   H3084     1.0  0.83354  0.38839  0.42898  1.0000
  H   H3085     1.0  0.96891  0.14610  0.36785  1.0000
  S   S1044     1.0  0.83524  0.37966  0.35701  1.0000
  H   H3086     1.0  0.86591  0.39661  0.38740  1.0000
  H   H3087     1.0  0.83738  0.21690  0.37902  1.0000
  C   C3085     1.0  0.84331  0.27883  0.24073  1.0000
  C   C3086     1.0  0.95242  0.43871  0.42563  1.0000
  C   C3087     1.0  0.79410  0.28514  0.17774  1.0000
  N   N250      1.0  0.82085  0.20483  0.20191  1.0000
  C   C3088     1.0  0.96834  0.26820  0.12973  1.0000
  C   C3089     1.0  0.82660  0.21849  0.38784  1.0000
  C   C3090     1.0  0.97701  0.20507  0.40072  1.0000
  C   C3091     1.0  0.81395  0.33806  0.40550  1.0000
  C   C3092     1.0  0.98491  0.31493  0.44872  1.0000
  S   S1045     1.0  0.80068  0.20811  0.35155  1.0000
  C   C3093     1.0  0.79910  0.98723  0.22566  1.0000
  C   C3094     1.0  0.82987  0.22330  0.13379  1.0000
  C   C3095     1.0  0.89922  0.22057  0.21161  1.0000
  C   C3096     1.0  0.83375  0.15756  0.33528  1.0000
  H   H3088     1.0  0.89792  0.22159  0.19950  1.0000
  C   C3097     1.0  0.94872  0.45247  0.44608  1.0000
  H   H3089     1.0  0.81418  0.39219  0.38526  1.0000
  S   S1046     1.0  0.83236  0.16972  0.34786  1.0000
  H   H3090     1.0  0.85063  0.33837  0.30230  1.0000
  C   C3098     1.0  0.83444  0.14097  0.31311  1.0000
  C   C3099     1.0  0.84460  0.18291  0.18790  1.0000
  C   C3100     1.0  0.82722  0.17417  0.39021  1.0000
  C   C3101     1.0  0.83637  0.29177  0.21552  1.0000
  H   H3091     1.0  0.82280  0.26476  0.29597  1.0000
  C   C3102     1.0  0.88250  0.46894  0.47852  1.0000
  H   H3092     1.0  0.81655  0.11718  0.27683  1.0000
  H   H3093     1.0  0.81749  0.25553  0.11991  1.0000
  C   C3103     1.0  0.82243  0.20489  0.18644  1.0000
  C   C3104     1.0  0.96405  0.24221  0.13118  1.0000
  H   H3094     1.0  0.81338  0.21182  0.37529  1.0000
  C   C3105     1.0  0.90277  0.24691  0.20959  1.0000
  H   H3095     1.0  0.83821  0.32835  0.34791  1.0000
  H   H3096     1.0  0.84003  0.07243  0.29990  1.0000
  H   H3097     1.0  0.79764  0.21174  0.21471  1.0000
  S   S1047     1.0  0.81765  0.21349  0.11459  1.0000
  C   C3106     1.0  0.81620  0.22194  0.13031  1.0000
  C   C3107     1.0  0.81271  0.26083  0.38719  1.0000
  Fe  Fe530     1.0  0.80975  0.30822  0.27479  1.0000
  Fe  Fe531     1.0  0.79409  0.33702  0.28882  1.0000
  H   H3098     1.0  0.79896  0.06145  0.28572  1.0000
  H   H3099     1.0  0.98320  0.46634  0.40358  1.0000
  H   H3100     1.0  0.81861  0.31436  0.24245  1.0000
  H   H3101     1.0  0.82885  0.19324  0.22308  1.0000
  N   N251      1.0  0.93151  0.38626  0.34099  1.0000
  H   H3102     1.0  0.97921  0.21414  0.43388  1.0000
  C   C3108     1.0  0.98232  0.44929  0.39143  1.0000
  H   H3103     1.0  0.95624  0.38526  0.33554  1.0000
  H   H3104     1.0  0.79479  0.15406  0.07533  1.0000
  S   S1048     1.0  0.98681  0.12424  0.30490  1.0000
  S   S1049     1.0  0.80379  0.33392  0.26402  1.0000
  C   C3109     1.0  0.79899  0.33541  0.41336  1.0000
  C   C3110     1.0  0.79275  0.99525  0.25040  1.0000
  C   C3111     1.0  0.88180  0.24955  0.46395  1.0000
  H   H3105     1.0  0.82260  0.32390  0.33174  1.0000
  S   S1050     1.0  0.84679  0.22832  0.47863  1.0000
  C   C3112     1.0  0.83036  0.07954  0.29447  1.0000
  C   C3113     1.0  0.86804  0.47962  0.47866  1.0000
  S   S1051     1.0  0.79510  0.19868  0.09301  1.0000
  S   S1052     1.0  0.80233  0.31168  0.29946  1.0000
  C   C3114     1.0  0.81586  0.17665  0.40377  1.0000
  N   N252      1.0  0.80647  0.18483  0.04783  1.0000
  C   C3115     1.0  0.79862  0.29125  0.18799  1.0000
  N   N253      1.0  0.90905  0.23114  0.21130  1.0000
  C   C3116     1.0  0.98618  0.20214  0.22482  1.0000
  C   C3117     1.0  0.80305  0.18239  0.03502  1.0000
  C   C3118     1.0  0.80142  0.34157  0.36814  1.0000
  H   H3106     1.0  0.88733  0.22357  0.21915  1.0000
  H   H3107     1.0  0.97311  0.18405  0.23641  1.0000
  C   C3119     1.0  0.80911  0.36750  0.23475  1.0000
  H   H3108     1.0  0.92611  0.41088  0.33229  1.0000
  C   C3120     1.0  0.82220  0.42224  0.39473  1.0000
  H   H3109     1.0  0.81226  0.21961  0.21845  1.0000
  H   H3110     1.0  0.93021  0.23078  0.13478  1.0000
  C   C3121     1.0  0.94703  0.37919  0.33678  1.0000
  H   H3111     1.0  0.81064  0.15292  0.34580  1.0000
  C   C3122     1.0  0.95128  0.36399  0.33403  1.0000
  C   C3123     1.0  0.79869  0.22239  0.41053  1.0000
  H   H3112     1.0  0.97649  0.45799  0.38280  1.0000
  C   C3124     1.0  0.82435  0.39541  0.40788  1.0000
  H   H3113     1.0  0.90434  0.20810  0.21642  1.0000
  H   H3114     1.0  0.82525  0.25929  0.38219  1.0000
  C   C3125     1.0  0.80150  0.22802  0.13893  1.0000
  C   C3126     1.0  0.84252  0.18255  0.20382  1.0000
  H   H3115     1.0  0.95901  0.21988  0.13258  1.0000
  H   H3116     1.0  0.86300  0.18862  0.40687  1.0000
  S   S1053     1.0  0.97364  0.36594  0.36686  1.0000
  C   C3127     1.0  0.98661  0.30457  0.41500  1.0000
  H   H3117     1.0  0.96976  0.27595  0.11780  1.0000
  S   S1054     1.0  0.92301  0.47678  0.38940  1.0000
  S   S1055     1.0  0.96920  0.47906  0.44966  1.0000
  N   N254      1.0  0.80714  0.08163  0.28543  1.0000
  H   H3118     1.0  0.95263  0.47314  0.39748  1.0000
  S   S1056     1.0  0.98590  0.26442  0.45230  1.0000
  H   H3119     1.0  0.85408  0.17453  0.18238  1.0000
  S   S1057     1.0  0.97396  0.23511  0.16979  1.0000
  H   H3120     1.0  0.80486  0.25932  0.30849  1.0000
  N   N255      1.0  0.79971  0.27661  0.11924  1.0000
  C   C3128     1.0  0.79286  0.33917  0.35863  1.0000
  H   H3121     1.0  0.81282  0.21169  0.29426  1.0000
  H   H3122     1.0  0.80962  0.20276  0.05697  1.0000
  H   H3123     1.0  0.82948  0.43694  0.40531  1.0000
  H   H3124     1.0  0.79500  0.27403  0.14388  1.0000
  C   C3129     1.0  0.81721  0.10467  0.28138  1.0000
  N   N256      1.0  0.95796  0.25777  0.13128  1.0000
  S   S1058     1.0  0.98597  0.26800  0.16000  1.0000
  H   H3125     1.0  0.79213  0.00373  0.25703  1.0000
  H   H3126     1.0  0.83814  0.10110  0.28990  1.0000
  H   H3127     1.0  0.86282  0.48299  0.46850  1.0000
  H   H3128     1.0  0.81022  0.20793  0.03648  1.0000
  C   C3130     1.0  0.98769  0.15470  0.37065  1.0000
  H   H3129     1.0  0.81853  0.36380  0.22527  1.0000
  H   H3130     1.0  0.97134  0.15379  0.21382  1.0000
  H   H3131     1.0  0.96869  0.20619  0.39367  1.0000
  H   H3132     1.0  0.92261  0.46963  0.46303  1.0000
  Fe  Fe532     1.0  0.98493  0.14713  0.31100  1.0000
  C   C3131     1.0  0.98246  0.15578  0.34544  1.0000
  H   H3133     1.0  0.94783  0.28725  0.47691  1.0000
  C   C3132     1.0  0.98604  0.43338  0.39073  1.0000
  C   C3133     1.0  0.79511  0.07445  0.28397  1.0000
  C   C3134     1.0  0.98997  0.33125  0.40243  1.0000
  H   H3134     1.0  0.80297  0.37849  0.26918  1.0000
  C   C3135     1.0  0.79359  0.36771  0.23499  1.0000
  N   N257      1.0  0.88835  0.24932  0.47712  1.0000
  H   H3135     1.0  0.94063  0.30817  0.47522  1.0000
  C   C3136     1.0  0.98614  0.45405  0.40316  1.0000
  H   H3136     1.0  0.98716  0.26973  0.24141  1.0000
  Fe  Fe533     1.0  0.79177  0.03529  0.23809  1.0000
  Fe  Fe534     1.0  0.79282  0.06688  0.24308  1.0000
  Fe  Fe535     1.0  0.98878  0.36766  0.38191  1.0000
  H   H3137     1.0  0.98526  0.17507  0.20166  1.0000
  H   H3138     1.0  0.79295  0.16832  0.02642  1.0000
  S   S1059     1.0  0.79153  0.17641  0.37717  1.0000
  N   N258      1.0  0.99056  0.15675  0.22131  1.0000
  C   C3137     1.0  0.79115  0.33049  0.33602  1.0000
  C   C3138     1.0  0.94485  0.48376  0.40052  1.0000
  C   C3139     1.0  0.86599  0.20298  0.78509  1.0000
  S   S1060     1.0  0.96342  0.16555  0.75651  1.0000
  Fe  Fe536     1.0  0.97083  0.15836  0.79794  1.0000
  S   S1061     1.0  0.95568  0.18064  0.78740  1.0000
  S   S1062     1.0  0.81958  0.25579  0.73603  1.0000
  Fe  Fe537     1.0  0.94586  0.16483  0.77940  1.0000
  S   S1063     1.0  0.91986  0.17108  0.78029  1.0000
  H   H3139     1.0  0.81330  0.29983  0.66830  1.0000
  S   S1064     1.0  0.95940  0.14245  0.79184  1.0000
  C   C3140     1.0  0.82617  0.23071  0.63446  1.0000
  H   H3140     1.0  0.90066  0.21185  0.80736  1.0000
  H   H3141     1.0  0.92494  0.30988  0.57767  1.0000
  H   H3142     1.0  0.92841  0.28890  0.58276  1.0000
  H   H3143     1.0  0.93949  0.26813  0.83318  1.0000
  H   H3144     1.0  0.83681  0.22156  0.63431  1.0000
  C   C3141     1.0  0.82380  0.20899  0.60766  1.0000
  C   C3142     1.0  0.94041  0.45944  0.58306  1.0000
  Fe  Fe538     1.0  0.97134  0.22074  0.87140  1.0000
  S   S1065     1.0  0.94623  0.21804  0.88198  1.0000
  H   H3145     1.0  0.84161  0.48149  0.60388  1.0000
  H   H3146     1.0  0.96527  0.18733  0.86075  1.0000
  Fe  Fe539     1.0  0.84206  0.14559  0.74434  1.0000
  S   S1066     1.0  0.82066  0.14343  0.76369  1.0000
  S   S1067     1.0  0.84029  0.15952  0.72004  1.0000
  Fe  Fe540     1.0  0.86478  0.12953  0.76595  1.0000
  S   S1068     1.0  0.84528  0.12560  0.78712  1.0000
  S   S1069     1.0  0.89001  0.12101  0.76886  1.0000
  Fe  Fe541     1.0  0.83413  0.11897  0.77139  1.0000
  S   S1070     1.0  0.82089  0.09952  0.78181  1.0000
  Fe  Fe542     1.0  0.83357  0.15022  0.77770  1.0000
  S   S1071     1.0  0.82196  0.16681  0.79390  1.0000
  S   S1072     1.0  0.85478  0.12050  0.75086  1.0000
  S   S1073     1.0  0.85372  0.15480  0.75756  1.0000
  Fe  Fe543     1.0  0.86478  0.19045  0.84180  1.0000
  S   S1074     1.0  0.86525  0.21547  0.83001  1.0000
  S   S1075     1.0  0.87238  0.17227  0.82717  1.0000
  H   H3147     1.0  0.80474  0.26021  0.82004  1.0000
  S   S1076     1.0  0.85739  0.22285  0.86513  1.0000
  H   H3148     1.0  0.86792  0.39221  0.61831  1.0000
  Fe  Fe544     1.0  0.84373  0.22131  0.84856  1.0000
  Fe  Fe545     1.0  0.87895  0.21440  0.84758  1.0000
  S   S1077     1.0  0.90173  0.22266  0.83711  1.0000
  S   S1078     1.0  0.87981  0.18888  0.85827  1.0000
  H   H3149     1.0  0.95160  0.26048  0.89533  1.0000
  H   H3150     1.0  0.95808  0.47496  0.61974  1.0000
  C   C3143     1.0  0.82615  0.22291  0.82062  1.0000
  H   H3151     1.0  0.91882  0.25678  0.85415  1.0000
  C   C3144     1.0  0.83561  0.30437  0.65443  1.0000
  C   C3145     1.0  0.86432  0.41721  0.60842  1.0000
  C   C3146     1.0  0.94977  0.22010  0.53587  1.0000
  H   H3152     1.0  0.94609  0.24231  0.89730  1.0000
  S   S1079     1.0  0.80551  0.27722  0.76264  1.0000
  H   H3153     1.0  0.99046  0.17615  0.79816  1.0000
  C   C3147     1.0  0.88532  0.25701  0.50130  1.0000
  H   H3154     1.0  0.85933  0.30703  0.64363  1.0000
  H   H3155     1.0  0.85751  0.23456  0.52639  1.0000
  C   C3148     1.0  0.82402  0.22339  0.55856  1.0000
  H   H3156     1.0  0.90557  0.40763  0.58159  1.0000
  H   H3157     1.0  0.83781  0.20068  0.56731  1.0000
  S   S1080     1.0  0.88632  0.35383  0.64528  1.0000
  C   C3149     1.0  0.82801  0.21270  0.53158  1.0000
  C   C3150     1.0  0.82688  0.16075  0.69617  1.0000
  S   S1081     1.0  0.88732  0.31672  0.64635  1.0000
  S   S1082     1.0  0.97944  0.23237  0.84626  1.0000
  Fe  Fe546     1.0  0.90447  0.33136  0.64386  1.0000
  S   S1083     1.0  0.92605  0.32104  0.65397  1.0000
  S   S1084     1.0  0.91007  0.33621  0.61768  1.0000
  Fe  Fe547     1.0  0.88011  0.24354  0.56503  1.0000
  S   S1085     1.0  0.86562  0.26764  0.55798  1.0000
  S   S1086     1.0  0.90640  0.24143  0.55637  1.0000
  Fe  Fe548     1.0  0.85097  0.22981  0.58121  1.0000
  H   H3158     1.0  0.84868  0.22286  0.77658  1.0000
  Fe  Fe549     1.0  0.85070  0.25540  0.55156  1.0000
  S   S1087     1.0  0.85935  0.44882  0.59524  1.0000
  H   H3159     1.0  0.83868  0.18521  0.83143  1.0000
  C   C3151     1.0  0.93151  0.47147  0.59069  1.0000
  S   S1088     1.0  0.86620  0.23152  0.55674  1.0000
  S   S1089     1.0  0.86643  0.23938  0.59006  1.0000
  H   H3160     1.0  0.89953  0.15242  0.73206  1.0000
  H   H3161     1.0  0.80831  0.17649  0.76681  1.0000
  C   C3152     1.0  0.82053  0.09814  0.75205  1.0000
  C   C3153     1.0  0.81234  0.22293  0.60631  1.0000
  H   H3162     1.0  0.89727  0.27605  0.55545  1.0000
  H   H3163     1.0  0.93652  0.29879  0.56308  1.0000
  S   S1090     1.0  0.98818  0.23847  0.58512  1.0000
  S   S1091     1.0  0.95576  0.36986  0.66764  1.0000
  H   H3164     1.0  0.81451  0.19289  0.94898  1.0000
  H   H3165     1.0  0.83306  0.17667  0.93089  1.0000
  C   C3154     1.0  0.96154  0.47951  0.60688  1.0000
  S   S1092     1.0  0.92359  0.47429  0.54512  1.0000
  C   C3155     1.0  0.82023  0.19579  0.61924  1.0000
  Fe  Fe550     1.0  0.96562  0.25419  0.59440  1.0000
  S   S1093     1.0  0.96791  0.27442  0.57378  1.0000
  S   S1094     1.0  0.94219  0.24750  0.60457  1.0000
  C   C3156     1.0  0.81421  0.21286  0.74767  1.0000
  H   H3166     1.0  0.89960  0.32177  0.57358  1.0000
  H   H3167     1.0  0.96284  0.12134  0.74243  1.0000
  C   C3157     1.0  0.87933  0.25712  0.48859  1.0000
  C   C3158     1.0  0.95633  0.45396  0.58337  1.0000
  S   S1095     1.0  0.97633  0.26263  0.60924  1.0000
  H   H3168     1.0  0.90564  0.24913  0.51172  1.0000
  H   H3169     1.0  0.81142  0.17656  0.91647  1.0000
  H   H3170     1.0  0.82826  0.10632  0.74782  1.0000
  Fe  Fe551     1.0  0.80691  0.25263  0.76128  1.0000
  Fe  Fe552     1.0  0.81606  0.28104  0.73664  1.0000
  C   C3159     1.0  0.89990  0.20349  0.80078  1.0000
  C   C3160     1.0  0.82583  0.29719  0.66775  1.0000
  H   H3171     1.0  0.87789  0.26283  0.51062  1.0000
  C   C3161     1.0  0.80176  0.06384  0.69446  1.0000
  C   C3162     1.0  0.82434  0.22107  0.80645  1.0000
  C   C3163     1.0  0.91610  0.24366  0.56972  1.0000
  C   C3164     1.0  0.93150  0.24611  0.56444  1.0000
  C   C3165     1.0  0.93957  0.24753  0.57501  1.0000
  C   C3166     1.0  0.93226  0.24643  0.59092  1.0000
  C   C3167     1.0  0.91680  0.24426  0.59612  1.0000
  C   C3168     1.0  0.90873  0.24296  0.58554  1.0000
  H   H3172     1.0  0.93716  0.24700  0.55216  1.0000
  H   H3173     1.0  0.95149  0.24927  0.57092  1.0000
  H   H3174     1.0  0.91106  0.24347  0.60840  1.0000
  H   H3175     1.0  0.89691  0.24107  0.58977  1.0000
  C   C3169     1.0  0.93393  0.33463  0.65819  1.0000
  C   C3170     1.0  0.92420  0.34756  0.66409  1.0000
  C   C3171     1.0  0.93087  0.35813  0.66758  1.0000
  C   C3172     1.0  0.94725  0.35597  0.66475  1.0000
  C   C3173     1.0  0.95690  0.34299  0.65894  1.0000
  C   C3174     1.0  0.95026  0.33228  0.65583  1.0000
  H   H3176     1.0  0.91155  0.34922  0.66628  1.0000
  H   H3177     1.0  0.92336  0.36801  0.67234  1.0000
  H   H3178     1.0  0.96952  0.34107  0.65694  1.0000
  H   H3179     1.0  0.95785  0.32228  0.65140  1.0000
  H   H3180     1.0  0.90035  0.45642  0.49174  1.0000
  C   C3175     1.0  0.93742  0.27010  0.63259  1.0000
  H   H3181     1.0  0.97731  0.33506  0.59627  1.0000
  H   H3182     1.0  0.88428  0.23314  0.79266  1.0000
  H   H3183     1.0  0.88470  0.18573  0.79431  1.0000
  C   C3176     1.0  0.81551  0.09265  0.76820  1.0000
  C   C3177     1.0  0.88136  0.47095  0.50515  1.0000
  H   H3184     1.0  0.87550  0.26797  0.59278  1.0000
  C   C3178     1.0  0.97066  0.25681  0.50826  1.0000
  N   N259      1.0  0.81230  0.19866  0.72973  1.0000
  Fe  Fe553     1.0  0.89755  0.47886  0.55369  1.0000
  C   C3179     1.0  0.96381  0.25957  0.52341  1.0000
  H   H3185     1.0  0.80178  0.07758  0.78610  1.0000
  H   H3186     1.0  0.95119  0.26133  0.52759  1.0000
  H   H3187     1.0  0.87483  0.41320  0.56608  1.0000
  H   H3188     1.0  0.97096  0.28193  0.64540  1.0000
  H   H3189     1.0  0.92952  0.19788  0.82537  1.0000
  S   S1096     1.0  0.88560  0.48043  0.57863  1.0000
  C   C3180     1.0  0.85919  0.21894  0.78139  1.0000
  C   C3181     1.0  0.91015  0.24186  0.48984  1.0000
  S   S1097     1.0  0.79740  0.13842  0.68909  1.0000
  H   H3190     1.0  0.82977  0.21011  0.80274  1.0000
  H   H3191     1.0  0.85276  0.41984  0.61588  1.0000
  H   H3192     1.0  0.96292  0.26783  0.86843  1.0000
  H   H3193     1.0  0.94831  0.23095  0.52646  1.0000
  H   H3194     1.0  0.93847  0.22069  0.54478  1.0000
  C   C3182     1.0  0.83842  0.19652  0.91247  1.0000
  C   C3183     1.0  0.91542  0.37771  0.63310  1.0000
  C   C3184     1.0  0.89405  0.41028  0.58912  1.0000
  C   C3185     1.0  0.80538  0.19659  0.62958  1.0000
  H   H3195     1.0  0.86074  0.19438  0.78330  1.0000
  C   C3186     1.0  0.85291  0.23191  0.50523  1.0000
  H   H3196     1.0  0.97161  0.39141  0.60558  1.0000
  C   C3187     1.0  0.82673  0.24525  0.62400  1.0000
  H   H3197     1.0  0.83724  0.45993  0.56975  1.0000
  H   H3198     1.0  0.79862  0.25801  0.86847  1.0000
  Fe  Fe554     1.0  0.79575  0.26261  0.73044  1.0000
  H   H3199     1.0  0.81838  0.10696  0.68454  1.0000
  H   H3200     1.0  0.84162  0.21854  0.89670  1.0000
  H   H3201     1.0  0.91923  0.47610  0.59014  1.0000
  H   H3202     1.0  0.86357  0.31595  0.61381  1.0000
  H   H3203     1.0  0.89699  0.27703  0.59717  1.0000
  H   H3204     1.0  0.96170  0.27363  0.84053  1.0000
  H   H3205     1.0  0.86039  0.24228  0.78149  1.0000
  H   H3206     1.0  0.89050  0.43520  0.57921  1.0000
  C   C3188     1.0  0.83582  0.16869  0.80310  1.0000
  C   C3189     1.0  0.85161  0.16139  0.79879  1.0000
  C   C3190     1.0  0.86274  0.16287  0.80604  1.0000
  C   C3191     1.0  0.85814  0.17139  0.81786  1.0000
  C   C3192     1.0  0.84234  0.17869  0.82225  1.0000
  C   C3193     1.0  0.83118  0.17738  0.81483  1.0000
  H   H3207     1.0  0.85526  0.15456  0.78989  1.0000
  H   H3208     1.0  0.87493  0.15729  0.80254  1.0000
  H   H3209     1.0  0.93485  0.25848  0.63584  1.0000
  C   C3194     1.0  0.83085  0.18935  0.92732  1.0000
  S   S1098     1.0  0.84089  0.26637  0.52972  1.0000
  C   C3195     1.0  0.93382  0.21974  0.86939  1.0000
  C   C3196     1.0  0.93908  0.22308  0.85305  1.0000
  C   C3197     1.0  0.92901  0.22422  0.84328  1.0000
  C   C3198     1.0  0.91371  0.22178  0.84978  1.0000
  C   C3199     1.0  0.90838  0.21848  0.86611  1.0000
  C   C3200     1.0  0.91839  0.21760  0.87589  1.0000
  H   H3210     1.0  0.95093  0.22463  0.84789  1.0000
  H   H3211     1.0  0.93319  0.22675  0.83064  1.0000
  H   H3212     1.0  0.89656  0.21662  0.87121  1.0000
  H   H3213     1.0  0.91423  0.21501  0.88853  1.0000
  C   C3201     1.0  0.89778  0.28631  0.55907  1.0000
  C   C3202     1.0  0.91195  0.15691  0.77716  1.0000
  C   C3203     1.0  0.92018  0.14130  0.77810  1.0000
  C   C3204     1.0  0.91342  0.13028  0.77551  1.0000
  C   C3205     1.0  0.89835  0.13484  0.77219  1.0000
  C   C3206     1.0  0.89023  0.15042  0.77135  1.0000
  C   C3207     1.0  0.89704  0.16143  0.77368  1.0000
  H   H3214     1.0  0.93171  0.13772  0.78084  1.0000
  H   H3215     1.0  0.91980  0.11822  0.77616  1.0000
  H   H3216     1.0  0.87874  0.15410  0.76877  1.0000
  H   H3217     1.0  0.89071  0.17352  0.77265  1.0000
  H   H3218     1.0  0.82504  0.27945  0.70483  1.0000
  C   C3208     1.0  0.81591  0.23343  0.79685  1.0000
  C   C3209     1.0  0.96124  0.21672  0.55856  1.0000
  C   C3210     1.0  0.81130  0.07320  0.69534  1.0000
  S   S1099     1.0  0.98237  0.23440  0.88107  1.0000
  C   C3211     1.0  0.79892  0.23953  0.64461  1.0000
  H   H3219     1.0  0.81596  0.22211  0.72291  1.0000
  H   H3220     1.0  0.81033  0.21621  0.87111  1.0000
  H   H3221     1.0  0.91400  0.17883  0.85995  1.0000
  C   C3212     1.0  0.98695  0.25471  0.50282  1.0000
  H   H3222     1.0  0.81896  0.18307  0.81819  1.0000
  C   C3213     1.0  0.82552  0.22209  0.91844  1.0000
  H   H3223     1.0  0.95933  0.39407  0.63317  1.0000
  H   H3224     1.0  0.95184  0.20972  0.53077  1.0000
  H   H3225     1.0  0.84158  0.19119  0.54296  1.0000
  C   C3214     1.0  0.88916  0.46467  0.49179  1.0000
  C   C3215     1.0  0.86985  0.42305  0.55761  1.0000
  H   H3226     1.0  0.83090  0.26010  0.48176  1.0000
  H   H3227     1.0  0.80202  0.25710  0.79457  1.0000
  H   H3228     1.0  0.81798  0.19542  0.89359  1.0000
  C   C3216     1.0  0.85595  0.31889  0.68488  1.0000
  C   C3217     1.0  0.88774  0.39806  0.60009  1.0000
  C   C3218     1.0  0.87287  0.40156  0.60981  1.0000
  C   C3219     1.0  0.82031  0.19852  0.93755  1.0000
  H   H3229     1.0  0.82316  0.06774  0.69694  1.0000
  H   H3230     1.0  0.98673  0.34103  0.76835  1.0000
  Fe  Fe555     1.0  0.86978  0.46690  0.57553  1.0000
  C   C3220     1.0  0.83679  0.25453  0.49141  1.0000
  N   N260      1.0  0.93613  0.18360  0.84631  1.0000
  C   C3221     1.0  0.95027  0.18614  0.84646  1.0000
  C   C3222     1.0  0.92542  0.18030  0.86007  1.0000
  C   C3223     1.0  0.95417  0.18501  0.86068  1.0000
  H   H3231     1.0  0.95522  0.47625  0.54271  1.0000
  H   H3232     1.0  0.82074  0.20321  0.65104  1.0000
  H   H3233     1.0  0.95853  0.18924  0.83551  1.0000
  H   H3234     1.0  0.85153  0.45808  0.52803  1.0000
  C   C3224     1.0  0.80058  0.07686  0.76288  1.0000
  N   N261      1.0  0.81236  0.22801  0.64455  1.0000
  H   H3235     1.0  0.84189  0.30646  0.61004  1.0000
  H   H3236     1.0  0.95748  0.38214  0.59107  1.0000
  C   C3225     1.0  0.88544  0.31164  0.56538  1.0000
  N   N262      1.0  0.83194  0.28732  0.68008  1.0000
  N   N263      1.0  0.91199  0.29956  0.56816  1.0000
  C   C3226     1.0  0.86615  0.30532  0.60953  1.0000
  S   S1100     1.0  0.84259  0.20766  0.59498  1.0000
  S   S1101     1.0  0.84205  0.19621  0.85887  1.0000
  C   C3227     1.0  0.85391  0.29999  0.60731  1.0000
  H   H3237     1.0  0.93132  0.37593  0.60417  1.0000
  C   C3228     1.0  0.84289  0.25558  0.51562  1.0000
  H   H3238     1.0  0.81342  0.26831  0.61576  1.0000
  C   C3229     1.0  0.92618  0.29934  0.57309  1.0000
  C   C3230     1.0  0.97733  0.22049  0.53282  1.0000
  N   N264      1.0  0.93081  0.38159  0.62564  1.0000
  N   N265      1.0  0.94125  0.13845  0.74069  1.0000
  C   C3231     1.0  0.93392  0.12787  0.73902  1.0000
  C   C3232     1.0  0.93388  0.15396  0.73935  1.0000
  C   C3233     1.0  0.91893  0.13278  0.73564  1.0000
  C   C3234     1.0  0.91888  0.15927  0.73599  1.0000
  C   C3235     1.0  0.91139  0.14859  0.73411  1.0000
  Fe  Fe556     1.0  0.97454  0.17943  0.76554  1.0000
  H   H3239     1.0  0.93947  0.11548  0.74067  1.0000
  H   H3240     1.0  0.93940  0.16226  0.74128  1.0000
  C   C3236     1.0  0.81308  0.25701  0.62389  1.0000
  H   H3241     1.0  0.91292  0.17149  0.73536  1.0000
  Fe  Fe557     1.0  0.97804  0.14452  0.76955  1.0000
  C   C3237     1.0  0.85688  0.43441  0.56276  1.0000
  H   H3242     1.0  0.87560  0.47969  0.62953  1.0000
  C   C3238     1.0  0.95667  0.13309  0.74490  1.0000
  N   N266      1.0  0.88529  0.12977  0.82362  1.0000
  C   C3239     1.0  0.87148  0.13351  0.83412  1.0000
  C   C3240     1.0  0.88606  0.12154  0.81277  1.0000
  C   C3241     1.0  0.85789  0.12930  0.83367  1.0000
  C   C3242     1.0  0.87275  0.11706  0.81204  1.0000
  C   C3243     1.0  0.85855  0.12108  0.82251  1.0000
  C   C3244     1.0  0.89901  0.13568  0.82304  1.0000
  H   H3243     1.0  0.87071  0.14039  0.84248  1.0000
  H   H3244     1.0  0.89694  0.11862  0.80441  1.0000
  H   H3245     1.0  0.84682  0.13287  0.84158  1.0000
  H   H3246     1.0  0.87341  0.11086  0.80313  1.0000
  H   H3247     1.0  0.84802  0.11805  0.82179  1.0000
  H   H3248     1.0  0.89968  0.14643  0.81350  1.0000
  H   H3249     1.0  0.89822  0.13889  0.83426  1.0000
  H   H3250     1.0  0.91006  0.12675  0.82074  1.0000
  N   N267      1.0  0.95437  0.47269  0.59845  1.0000
  H   H3251     1.0  0.80918  0.17523  0.73953  1.0000
  H   H3252     1.0  0.80877  0.12450  0.71790  1.0000
  H   H3253     1.0  0.81563  0.16224  0.67762  1.0000
  C   C3245     1.0  0.83270  0.20822  0.55756  1.0000
  C   C3246     1.0  0.81550  0.09863  0.69594  1.0000
  H   H3254     1.0  0.86735  0.26333  0.48806  1.0000
  C   C3247     1.0  0.80558  0.08240  0.74673  1.0000
  H   H3255     1.0  0.81575  0.22342  0.74986  1.0000
  H   H3256     1.0  0.91054  0.20205  0.79117  1.0000
  H   H3257     1.0  0.80793  0.24348  0.89284  1.0000
  S   S1102     1.0  0.98127  0.20110  0.74890  1.0000
  H   H3258     1.0  0.79289  0.06865  0.76713  1.0000
  S   S1103     1.0  0.97335  0.15522  0.82261  1.0000
  C   C3248     1.0  0.82617  0.31329  0.70130  1.0000
  C   C3249     1.0  0.84540  0.23905  0.49260  1.0000
  H   H3259     1.0  0.81983  0.09702  0.72889  1.0000
  C   C3250     1.0  0.80858  0.24889  0.54756  1.0000
  H   H3260     1.0  0.96344  0.44476  0.57729  1.0000
  N   N268      1.0  0.94161  0.25942  0.87686  1.0000
  C   C3251     1.0  0.85786  0.29103  0.66628  1.0000
  C   C3252     1.0  0.95306  0.26562  0.86541  1.0000
  H   H3261     1.0  0.83767  0.24741  0.61600  1.0000
  C   C3253     1.0  0.95241  0.26896  0.84955  1.0000
  C   C3254     1.0  0.93998  0.26589  0.84545  1.0000
  C   C3255     1.0  0.94268  0.25530  0.89341  1.0000
  H   H3262     1.0  0.96788  0.26172  0.54503  1.0000
  C   C3256     1.0  0.81393  0.13449  0.71169  1.0000
  H   H3263     1.0  0.81465  0.31125  0.70762  1.0000
  S   S1104     1.0  0.84198  0.28058  0.59746  1.0000
  H   H3264     1.0  0.93118  0.25959  0.90094  1.0000
  S   S1105     1.0  0.95848  0.25574  0.49663  1.0000
  H   H3265     1.0  0.82969  0.20880  0.52081  1.0000
  C   C3257     1.0  0.82314  0.13939  0.71881  1.0000
  C   C3258     1.0  0.96311  0.46065  0.59131  1.0000
  H   H3266     1.0  0.88651  0.41591  0.53740  1.0000
  C   C3259     1.0  0.92938  0.25637  0.87294  1.0000
  H   H3267     1.0  0.91172  0.37847  0.64565  1.0000
  C   C3260     1.0  0.81572  0.09288  0.74135  1.0000
  S   S1106     1.0  0.81501  0.23084  0.77863  1.0000
  H   H3268     1.0  0.80916  0.28599  0.69491  1.0000
  S   S1107     1.0  0.83801  0.29067  0.72519  1.0000
  C   C3261     1.0  0.85171  0.30122  0.65372  1.0000
  C   C3262     1.0  0.88553  0.42590  0.58775  1.0000
  C   C3263     1.0  0.98818  0.21839  0.55500  1.0000
  Fe  Fe558     1.0  0.98047  0.28170  0.58780  1.0000
  C   C3264     1.0  0.93137  0.28137  0.62055  1.0000
  H   H3269     1.0  0.81480  0.21359  0.66693  1.0000
  H   H3270     1.0  0.94237  0.17893  0.82343  1.0000
  C   C3265     1.0  0.87636  0.42456  0.54154  1.0000
  C   C3266     1.0  0.87061  0.42940  0.59736  1.0000
  Fe  Fe559     1.0  0.89079  0.35777  0.61891  1.0000
  C   C3267     1.0  0.81202  0.20002  0.76010  1.0000
  H   H3271     1.0  0.80037  0.21004  0.65876  1.0000
  H   H3272     1.0  0.92066  0.25085  0.88196  1.0000
  H   H3273     1.0  0.81487  0.23315  0.59746  1.0000
  H   H3274     1.0  0.82901  0.18493  0.62029  1.0000
  H   H3275     1.0  0.80621  0.05132  0.69528  1.0000
  H   H3276     1.0  0.83743  0.47064  0.54991  1.0000
  C   C3268     1.0  0.83937  0.30512  0.70757  1.0000
  N   N269      1.0  0.79428  0.19492  0.90599  1.0000
  C   C3269     1.0  0.81083  0.14298  0.69701  1.0000
  C   C3270     1.0  0.84774  0.28414  0.67946  1.0000
  H   H3277     1.0  0.97460  0.47664  0.60339  1.0000
  H   H3278     1.0  0.83198  0.17084  0.69007  1.0000
  N   N270      1.0  0.80554  0.08891  0.69482  1.0000
  C   C3271     1.0  0.82950  0.15262  0.71109  1.0000
  C   C3272     1.0  0.85671  0.44833  0.53642  1.0000
  H   H3279     1.0  0.95531  0.13238  0.75762  1.0000
  N   N271      1.0  0.88576  0.20889  0.79421  1.0000
  C   C3273     1.0  0.87926  0.22460  0.79045  1.0000
  C   C3274     1.0  0.87945  0.19815  0.79139  1.0000
  C   C3275     1.0  0.86580  0.22985  0.78411  1.0000
  C   C3276     1.0  0.83717  0.45884  0.55784  1.0000
  N   N272      1.0  0.81776  0.23308  0.54624  1.0000
  H   H3280     1.0  0.81451  0.23549  0.52316  1.0000
  H   H3281     1.0  0.97547  0.45631  0.59151  1.0000
  H   H3282     1.0  0.82656  0.09148  0.69949  1.0000
  H   H3283     1.0  0.92394  0.27858  0.61461  1.0000
  C   C3277     1.0  0.97321  0.25988  0.53327  1.0000
  H   H3284     1.0  0.81197  0.20053  0.77196  1.0000
  N   N273      1.0  0.96306  0.21909  0.54263  1.0000
  C   C3278     1.0  0.93227  0.18524  0.83118  1.0000
  C   C3279     1.0  0.80559  0.20032  0.89370  1.0000
  C   C3280     1.0  0.82167  0.27966  0.69388  1.0000
  H   H3285     1.0  0.98326  0.22789  0.77522  1.0000
  C   C3281     1.0  0.93493  0.29620  0.61622  1.0000
  H   H3286     1.0  0.93017  0.30511  0.60698  1.0000
  C   C3282     1.0  0.94704  0.27381  0.64011  1.0000
  H   H3287     1.0  0.94717  0.31114  0.62062  1.0000
  H   H3288     1.0  0.95175  0.26498  0.64944  1.0000
  C   C3283     1.0  0.94459  0.29953  0.62397  1.0000
  H   H3289     1.0  0.85184  0.43312  0.57527  1.0000
  H   H3290     1.0  0.92196  0.18020  0.83263  1.0000
  H   H3291     1.0  0.92231  0.23603  0.49002  1.0000
  H   H3292     1.0  0.87030  0.28891  0.66603  1.0000
  N   N274      1.0  0.95070  0.28830  0.63559  1.0000
  H   H3293     1.0  0.90631  0.38587  0.62690  1.0000
  H   H3294     1.0  0.81766  0.33051  0.68200  1.0000
  S   S1108     1.0  0.85079  0.18472  0.89956  1.0000
  Fe  Fe560     1.0  0.85705  0.19721  0.87434  1.0000
  N   N275      1.0  0.85073  0.44704  0.55222  1.0000
  C   C3284     1.0  0.79540  0.24755  0.89320  1.0000
  C   C3285     1.0  0.96077  0.29188  0.64369  1.0000
  H   H3295     1.0  0.81013  0.20948  0.70607  1.0000
  C   C3286     1.0  0.86682  0.48153  0.50534  1.0000
  H   H3296     1.0  0.83073  0.31263  0.64488  1.0000
  C   C3287     1.0  0.87280  0.27832  0.59752  1.0000
  H   H3297     1.0  0.87516  0.32108  0.56695  1.0000
  Fe  Fe561     1.0  0.86948  0.33949  0.64535  1.0000
  C   C3288     1.0  0.83548  0.26273  0.50294  1.0000
  H   H3298     1.0  0.95381  0.29433  0.65527  1.0000
  H   H3299     1.0  0.95001  0.21537  0.56642  1.0000
  Fe  Fe562     1.0  0.89146  0.32338  0.62018  1.0000
  C   C3289     1.0  0.89933  0.31194  0.56912  1.0000
  H   H3300     1.0  0.85968  0.21996  0.50613  1.0000
  C   C3290     1.0  0.85169  0.24016  0.51671  1.0000
  C   C3291     1.0  0.95315  0.39043  0.62655  1.0000
  H   H3301     1.0  0.93336  0.38778  0.64576  1.0000
  H   H3302     1.0  0.97878  0.22238  0.52019  1.0000
  C   C3292     1.0  0.95216  0.38361  0.60301  1.0000
  C   C3293     1.0  0.93845  0.38674  0.63367  1.0000
  Fe  Fe563     1.0  0.85102  0.26271  0.58238  1.0000
  H   H3303     1.0  0.82369  0.23475  0.91512  1.0000
  S   S1109     1.0  0.89882  0.37866  0.60107  1.0000
  H   H3304     1.0  0.80278  0.18642  0.63861  1.0000
  C   C3294     1.0  0.96004  0.38886  0.61111  1.0000
  C   C3295     1.0  0.93743  0.38005  0.61049  1.0000
  H   H3305     1.0  0.82243  0.22735  0.56925  1.0000
  H   H3306     1.0  0.91586  0.36549  0.63258  1.0000
  S   S1110     1.0  0.89745  0.30425  0.60685  1.0000
  S   S1111     1.0  0.84479  0.33987  0.65989  1.0000
  C   C3296     1.0  0.88498  0.28349  0.59998  1.0000
  S   S1112     1.0  0.82202  0.23919  0.84319  1.0000
  S   S1113     1.0  0.87248  0.34525  0.61895  1.0000
  C   C3297     1.0  0.81211  0.21298  0.65592  1.0000
  H   H3307     1.0  0.87455  0.43849  0.51829  1.0000
  C   C3298     1.0  0.85725  0.28661  0.60110  1.0000
  H   H3308     1.0  0.89972  0.19197  0.80922  1.0000
  C   C3299     1.0  0.88171  0.29712  0.60574  1.0000
  C   C3300     1.0  0.83567  0.21291  0.90800  1.0000
  S   S1114     1.0  0.83445  0.25292  0.57541  1.0000
  H   H3309     1.0  0.88658  0.46757  0.51531  1.0000
  H   H3310     1.0  0.86745  0.32106  0.67868  1.0000
  C   C3301     1.0  0.90084  0.24930  0.50192  1.0000
  C   C3302     1.0  0.88467  0.29869  0.56040  1.0000
  H   H3311     1.0  0.86445  0.30191  0.70425  1.0000
  C   C3303     1.0  0.84280  0.32692  0.67849  1.0000
  H   H3312     1.0  0.87380  0.29809  0.55798  1.0000
  C   C3304     1.0  0.82789  0.32421  0.68682  1.0000
  C   C3305     1.0  0.81914  0.23700  0.82558  1.0000
  C   C3306     1.0  0.81943  0.22783  0.53297  1.0000
  C   C3307     1.0  0.81438  0.21198  0.73246  1.0000
  C   C3308     1.0  0.81016  0.24925  0.81629  1.0000
  H   H3313     1.0  0.94617  0.18103  0.88583  1.0000
  C   C3309     1.0  0.91142  0.28698  0.56300  1.0000
  H   H3314     1.0  0.82253  0.26742  0.69318  1.0000
  S   S1115     1.0  0.88333  0.46314  0.55161  1.0000
  C   C3310     1.0  0.86970  0.43721  0.53084  1.0000
  C   C3311     1.0  0.92833  0.25962  0.85720  1.0000
  H   H3315     1.0  0.92144  0.27723  0.56228  1.0000
  H   H3316     1.0  0.83297  0.21338  0.82774  1.0000
  H   H3317     1.0  0.85250  0.27663  0.68943  1.0000
  H   H3318     1.0  0.80420  0.19110  0.71371  1.0000
  C   C3312     1.0  0.92893  0.17908  0.87452  1.0000
  C   C3313     1.0  0.81772  0.21489  0.93316  1.0000
  C   C3314     1.0  0.94344  0.18142  0.87478  1.0000
  H   H3319     1.0  0.82520  0.13304  0.73030  1.0000
  H   H3320     1.0  0.82868  0.27468  0.50200  1.0000
  H   H3321     1.0  0.96452  0.14130  0.73805  1.0000
  C   C3315     1.0  0.83475  0.20289  0.54394  1.0000
  C   C3316     1.0  0.80868  0.24753  0.80184  1.0000
  C   C3317     1.0  0.85422  0.30809  0.69939  1.0000
  Fe  Fe564     1.0  0.98138  0.36505  0.65612  1.0000
  H   H3322     1.0  0.98240  0.16051  0.84837  1.0000
  S   S1116     1.0  0.79282  0.28827  0.72949  1.0000
  C   C3318     1.0  0.98529  0.16721  0.82319  1.0000
  C   C3319     1.0  0.98737  0.16801  0.83766  1.0000
  C   C3320     1.0  0.81294  0.19766  0.71371  1.0000
  H   H3323     1.0  0.92031  0.17675  0.88539  1.0000
  H   H3324     1.0  0.86321  0.46624  0.61717  1.0000
  H   H3325     1.0  0.80914  0.10548  0.70508  1.0000
  C   C3321     1.0  0.97370  0.21654  0.56497  1.0000
  C   C3322     1.0  0.79905  0.25416  0.63422  1.0000
  C   C3323     1.0  0.81757  0.15593  0.68916  1.0000
  H   H3326     1.0  0.82488  0.19147  0.70859  1.0000
  H   H3327     1.0  0.96557  0.30236  0.63678  1.0000
  S   S1117     1.0  0.80452  0.22645  0.94583  1.0000
  C   C3324     1.0  0.81037  0.18593  0.74181  1.0000
  H   H3328     1.0  0.91288  0.12430  0.73489  1.0000
  C   C3325     1.0  0.81001  0.18649  0.75718  1.0000
  C   C3326     1.0  0.80561  0.08192  0.77360  1.0000
  C   C3327     1.0  0.79743  0.22365  0.61644  1.0000
  H   H3329     1.0  0.82610  0.45555  0.55830  1.0000
  C   C3328     1.0  0.80135  0.21208  0.88095  1.0000
  H   H3330     1.0  0.97110  0.28444  0.48556  1.0000
  S   S1118     1.0  0.97499  0.30683  0.58968  1.0000
  H   H3331     1.0  0.81357  0.25411  0.55430  1.0000
  S   S1119     1.0  0.79396  0.25473  0.70951  1.0000
  C   C3329     1.0  0.98954  0.25756  0.52794  1.0000
  H   H3332     1.0  0.93508  0.45471  0.57654  1.0000
  C   C3330     1.0  0.98391  0.32523  0.60339  1.0000
  H   H3333     1.0  0.97203  0.21527  0.57756  1.0000
  H   H3334     1.0  0.79618  0.24846  0.55349  1.0000
  C   C3331     1.0  0.98451  0.30989  0.60261  1.0000
  C   C3332     1.0  0.79876  0.18239  0.91917  1.0000
  H   H3335     1.0  0.80894  0.25699  0.53579  1.0000
  C   C3333     1.0  0.85908  0.47873  0.61686  1.0000
  C   C3334     1.0  0.93874  0.47808  0.59829  1.0000
  S   S1120     1.0  0.98665  0.36246  0.63126  1.0000
  C   C3335     1.0  0.99010  0.22013  0.53886  1.0000
  S   S1121     1.0  0.79890  0.07692  0.73301  1.0000
  H   H3336     1.0  0.79647  0.18724  0.92978  1.0000
  C   C3336     1.0  0.79396  0.21057  0.62822  1.0000
  H   H3337     1.0  0.79188  0.17317  0.92198  1.0000
  H   H3338     1.0  0.79444  0.12674  0.77614  1.0000
  S   S1122     1.0  0.99078  0.15843  0.77667  1.0000
  H   H3339     1.0  0.79185  0.99961  0.72868  1.0000
  C   C3337     1.0  0.79146  0.98792  0.72814  1.0000
  C   C3338     1.0  0.98453  0.82579  0.23187  1.0000
  S   S1123     1.0  0.79422  0.75569  0.29055  1.0000
  S   S1124     1.0  0.85221  0.51825  0.41364  1.0000
  H   H3340     1.0  0.87496  0.67259  0.13357  1.0000
  Fe  Fe565     1.0  0.86946  0.62442  0.32321  1.0000
  S   S1125     1.0  0.85100  0.61667  0.34406  1.0000
  S   S1126     1.0  0.86343  0.64139  0.30108  1.0000
  Fe  Fe566     1.0  0.89601  0.60917  0.34134  1.0000
  S   S1127     1.0  0.87936  0.60054  0.36342  1.0000
  S   S1128     1.0  0.92119  0.60049  0.34387  1.0000
  Fe  Fe567     1.0  0.86856  0.59356  0.34766  1.0000
  S   S1129     1.0  0.86586  0.56887  0.34999  1.0000
  Fe  Fe568     1.0  0.86393  0.62437  0.35758  1.0000
  S   S1130     1.0  0.85322  0.64048  0.37447  1.0000
  S   S1131     1.0  0.88620  0.60091  0.32567  1.0000
  S   S1132     1.0  0.88130  0.63351  0.33656  1.0000
  Fe  Fe569     1.0  0.89892  0.68395  0.40170  1.0000
  S   S1133     1.0  0.90484  0.70558  0.38451  1.0000
  S   S1134     1.0  0.90579  0.66214  0.39189  1.0000
  Fe  Fe570     1.0  0.88834  0.70018  0.42922  1.0000
  S   S1135     1.0  0.89311  0.72332  0.41409  1.0000
  C   C3339     1.0  0.89019  0.70127  0.46627  1.0000
  Fe  Fe571     1.0  0.88203  0.71821  0.39711  1.0000
  S   S1136     1.0  0.86706  0.73761  0.38232  1.0000
  Fe  Fe572     1.0  0.91535  0.70862  0.40280  1.0000
  S   S1137     1.0  0.93975  0.71324  0.39472  1.0000
  S   S1138     1.0  0.87521  0.69627  0.41326  1.0000
  S   S1139     1.0  0.91145  0.68582  0.41904  1.0000
  C   C3340     1.0  0.99060  0.52843  0.47235  1.0000
  S   S1140     1.0  0.81231  0.76269  0.31452  1.0000
  H   H3341     1.0  0.87827  0.69940  0.13177  1.0000
  Fe  Fe573     1.0  0.92288  0.81727  0.23197  1.0000
  S   S1141     1.0  0.90566  0.83552  0.21923  1.0000
  S   S1142     1.0  0.94905  0.81349  0.22289  1.0000
  Fe  Fe574     1.0  0.89767  0.80163  0.25530  1.0000
  S   S1143     1.0  0.87816  0.81819  0.24431  1.0000
  S   S1144     1.0  0.89268  0.78301  0.27716  1.0000
  Fe  Fe575     1.0  0.89480  0.81540  0.22132  1.0000
  S   S1145     1.0  0.88886  0.81378  0.19940  1.0000
  Fe  Fe576     1.0  0.89059  0.83673  0.24329  1.0000
  S   S1146     1.0  0.87576  0.85806  0.25235  1.0000
  S   S1147     1.0  0.91308  0.79698  0.23235  1.0000
  S   S1148     1.0  0.90897  0.82038  0.25598  1.0000
  Fe  Fe577     1.0  0.86421  0.74545  0.14732  1.0000
  S   S1149     1.0  0.88873  0.73318  0.13760  1.0000
  S   S1150     1.0  0.84258  0.75006  0.13737  1.0000
  Fe  Fe578     1.0  0.87284  0.74727  0.17696  1.0000
  S   S1151     1.0  0.89767  0.73454  0.17007  1.0000
  S   S1152     1.0  0.86612  0.75387  0.20046  1.0000
  Fe  Fe579     1.0  0.89680  0.75003  0.14624  1.0000
  S   S1153     1.0  0.91677  0.76260  0.13414  1.0000
  Fe  Fe580     1.0  0.88751  0.71891  0.16228  1.0000
  S   S1154     1.0  0.89728  0.69297  0.16614  1.0000
  S   S1155     1.0  0.87224  0.76388  0.15356  1.0000
  S   S1156     1.0  0.86259  0.73004  0.17160  1.0000
  H   H3342     1.0  0.83044  0.68193  0.16543  1.0000
  H   H3343     1.0  0.89635  0.80587  0.29204  1.0000
  Fe  Fe581     1.0  0.81556  0.73674  0.32548  1.0000
  S   S1157     1.0  0.82728  0.71989  0.34466  1.0000
  Fe  Fe582     1.0  0.81879  0.75501  0.29158  1.0000
  S   S1158     1.0  0.83368  0.76536  0.26899  1.0000
  S   S1159     1.0  0.82423  0.72936  0.30235  1.0000
  Fe  Fe583     1.0  0.81211  0.68229  0.22470  1.0000
  S   S1160     1.0  0.83254  0.66215  0.22805  1.0000
  H   H3344     1.0  0.85188  0.55117  0.40771  1.0000
  C   C3341     1.0  0.82120  0.74465  0.99603  1.0000
  S   S1161     1.0  0.81199  0.64050  0.22173  1.0000
  H   H3345     1.0  0.96743  0.66616  0.42359  1.0000
  Fe  Fe584     1.0  0.81424  0.64851  0.24226  1.0000
  S   S1162     1.0  0.81596  0.63207  0.26586  1.0000
  Fe  Fe585     1.0  0.82840  0.65632  0.20735  1.0000
  S   S1163     1.0  0.84844  0.64921  0.18807  1.0000
  C   C3342     1.0  0.85413  0.82967  0.27899  1.0000
  S   S1164     1.0  0.80958  0.67779  0.20246  1.0000
  C   C3343     1.0  0.79964  0.77713  0.08263  1.0000
  S   S1165     1.0  0.81804  0.73797  0.04778  1.0000
  C   C3344     1.0  0.80338  0.70480  0.00256  1.0000
  H   H3346     1.0  0.96440  0.76697  0.14679  1.0000
  H   H3347     1.0  0.85134  0.75547  0.06889  1.0000
  H   H3348     1.0  0.93169  0.75524  0.18108  1.0000
  H   H3349     1.0  0.83291  0.64647  0.35301  1.0000
  H   H3350     1.0  0.96843  0.61460  0.34637  1.0000
  Fe  Fe586     1.0  0.82066  0.72523  0.07238  1.0000
  S   S1166     1.0  0.84324  0.72312  0.07969  1.0000
  H   H3351     1.0  0.79736  0.68519  0.28391  1.0000
  S   S1167     1.0  0.81244  0.70425  0.07165  1.0000
  H   H3352     1.0  0.81797  0.77659  0.11091  1.0000
  H   H3353     1.0  0.87496  0.83526  0.28092  1.0000
  C   C3345     1.0  0.93652  0.64088  0.33522  1.0000
  H   H3354     1.0  0.85751  0.71713  0.14665  1.0000
  H   H3355     1.0  0.85113  0.84044  0.27046  1.0000
  C   C3346     1.0  0.84487  0.81849  0.28376  1.0000
  C   C3347     1.0  0.97731  0.83947  0.23748  1.0000
  H   H3356     1.0  0.88280  0.61049  0.40571  1.0000
  C   C3348     1.0  0.86570  0.68062  0.13973  1.0000
  C   C3349     1.0  0.83075  0.71114  0.16599  1.0000
  H   H3357     1.0  0.86605  0.79100  0.30825  1.0000
  H   H3358     1.0  0.94719  0.66787  0.42374  1.0000
  C   C3350     1.0  0.86760  0.82670  0.28497  1.0000
  H   H3359     1.0  0.85084  0.66390  0.15061  1.0000
  H   H3360     1.0  0.83414  0.70943  0.17733  1.0000
  H   H3361     1.0  0.81886  0.70863  0.16849  1.0000
  C   C3351     1.0  0.84310  0.74108  0.12225  1.0000
  C   C3352     1.0  0.82892  0.73987  0.11975  1.0000
  C   C3353     1.0  0.82882  0.73391  0.10702  1.0000
  C   C3354     1.0  0.84293  0.72914  0.09671  1.0000
  C   C3355     1.0  0.85716  0.72985  0.09955  1.0000
  C   C3356     1.0  0.85727  0.73579  0.11228  1.0000
  H   H3362     1.0  0.81792  0.74383  0.12750  1.0000
  H   H3363     1.0  0.81781  0.73327  0.10507  1.0000
  H   H3364     1.0  0.86814  0.72611  0.09165  1.0000
  H   H3365     1.0  0.86827  0.73670  0.11408  1.0000
  C   C3357     1.0  0.88352  0.68097  0.17270  1.0000
  C   C3358     1.0  0.86836  0.68599  0.18131  1.0000
  C   C3359     1.0  0.85774  0.67595  0.18674  1.0000
  C   C3360     1.0  0.86209  0.66115  0.18302  1.0000
  C   C3361     1.0  0.87720  0.65618  0.17439  1.0000
  C   C3362     1.0  0.88797  0.66598  0.16946  1.0000
  H   H3366     1.0  0.86494  0.69740  0.18414  1.0000
  H   H3367     1.0  0.84607  0.67982  0.19345  1.0000
  H   H3368     1.0  0.88059  0.64472  0.17154  1.0000
  H   H3369     1.0  0.89971  0.66202  0.16290  1.0000
  C   C3363     1.0  0.87761  0.77568  0.27513  1.0000
  C   C3364     1.0  0.87450  0.77868  0.26025  1.0000
  C   C3365     1.0  0.86134  0.77482  0.25843  1.0000
  C   C3366     1.0  0.85107  0.76813  0.27155  1.0000
  C   C3367     1.0  0.85451  0.76441  0.28646  1.0000
  C   C3368     1.0  0.86794  0.76806  0.28824  1.0000
  H   H3370     1.0  0.88231  0.78406  0.25015  1.0000
  H   H3371     1.0  0.85906  0.77719  0.24686  1.0000
  H   H3372     1.0  0.84674  0.75895  0.29661  1.0000
  H   H3373     1.0  0.87051  0.76545  0.29976  1.0000
  C   C3369     1.0  0.88483  0.79586  0.19973  1.0000
  C   C3370     1.0  0.88080  0.78537  0.21392  1.0000
  C   C3371     1.0  0.87578  0.77199  0.21408  1.0000
  C   C3372     1.0  0.87498  0.76901  0.20000  1.0000
  C   C3373     1.0  0.87998  0.77902  0.18573  1.0000
  C   C3374     1.0  0.88476  0.79249  0.18560  1.0000
  H   H3374     1.0  0.88092  0.78796  0.22478  1.0000
  H   H3375     1.0  0.87218  0.76414  0.22514  1.0000
  H   H3376     1.0  0.87955  0.77679  0.17480  1.0000
  H   H3377     1.0  0.88798  0.80054  0.17456  1.0000
  C   C3375     1.0  0.83483  0.88376  0.22834  1.0000
  C   C3376     1.0  0.83367  0.88405  0.24398  1.0000
  C   C3377     1.0  0.84620  0.87592  0.25139  1.0000
  C   C3378     1.0  0.85976  0.86718  0.24332  1.0000
  C   C3379     1.0  0.86064  0.86627  0.22795  1.0000
  C   C3380     1.0  0.84826  0.87471  0.22042  1.0000
  H   H3378     1.0  0.82341  0.89100  0.25016  1.0000
  H   H3379     1.0  0.84546  0.87657  0.26332  1.0000
  H   H3380     1.0  0.87108  0.85951  0.22167  1.0000
  H   H3381     1.0  0.84923  0.87445  0.20832  1.0000
  H   H3382     1.0  0.83874  0.75473  0.05733  1.0000
  H   H3383     1.0  0.85284  0.91131  0.21469  1.0000
  C   C3381     1.0  0.98968  0.54449  0.41034  1.0000
  H   H3384     1.0  0.85060  0.72069  0.47273  1.0000
  H   H3385     1.0  0.92238  0.77434  0.17153  1.0000
  H   H3386     1.0  0.94827  0.61513  0.39396  1.0000
  H   H3387     1.0  0.92174  0.62820  0.40661  1.0000
  C   C3382     1.0  0.80853  0.70693  0.24719  1.0000
  H   H3388     1.0  0.95025  0.60486  0.37918  1.0000
  C   C3383     1.0  0.92595  0.76738  0.18267  1.0000
  C   C3384     1.0  0.94314  0.76522  0.14168  1.0000
  C   C3385     1.0  0.93314  0.75535  0.14296  1.0000
  C   C3386     1.0  0.93669  0.73961  0.15071  1.0000
  C   C3387     1.0  0.95015  0.73376  0.15710  1.0000
  H   H3389     1.0  0.94046  0.77741  0.13567  1.0000
  H   H3390     1.0  0.92931  0.73179  0.15141  1.0000
  H   H3391     1.0  0.95282  0.72152  0.16301  1.0000
  C   C3388     1.0  0.82213  0.67088  0.35222  1.0000
  C   C3389     1.0  0.96093  0.84479  0.23959  1.0000
  C   C3390     1.0  0.95188  0.83651  0.23586  1.0000
  C   C3391     1.0  0.95931  0.82309  0.22976  1.0000
  C   C3392     1.0  0.81297  0.77177  0.07171  1.0000
  N   N276      1.0  0.95121  0.67965  0.43935  1.0000
  H   H3392     1.0  0.95527  0.85539  0.24394  1.0000
  H   H3393     1.0  0.93929  0.84076  0.23727  1.0000
  S   S1168     1.0  0.79221  0.71088  0.29861  1.0000
  C   C3393     1.0  0.98919  0.72705  0.12552  1.0000
  C   C3394     1.0  0.85532  0.73276  0.37250  1.0000
  C   C3395     1.0  0.85277  0.71755  0.37588  1.0000
  C   C3396     1.0  0.84370  0.71394  0.36759  1.0000
  C   C3397     1.0  0.83724  0.72545  0.35575  1.0000
  C   C3398     1.0  0.83969  0.74068  0.35242  1.0000
  C   C3399     1.0  0.84864  0.74434  0.36084  1.0000
  H   H3394     1.0  0.85781  0.70857  0.38487  1.0000
  H   H3395     1.0  0.84187  0.70211  0.37022  1.0000
  H   H3396     1.0  0.83478  0.74961  0.34331  1.0000
  H   H3397     1.0  0.85053  0.75614  0.35823  1.0000
  C   C3400     1.0  0.97573  0.69603  0.35743  1.0000
  H   H3398     1.0  0.98309  0.53535  0.41530  1.0000
  C   C3401     1.0  0.92001  0.50249  0.40069  1.0000
  H   H3399     1.0  0.89239  0.53434  0.39714  1.0000
  H   H3400     1.0  0.90285  0.71505  0.44592  1.0000
  C   C3402     1.0  0.94770  0.71824  0.40781  1.0000
  C   C3403     1.0  0.96376  0.71828  0.40395  1.0000
  C   C3404     1.0  0.97061  0.72189  0.41424  1.0000
  C   C3405     1.0  0.96140  0.72571  0.42836  1.0000
  C   C3406     1.0  0.94530  0.72577  0.43219  1.0000
  C   C3407     1.0  0.93846  0.72187  0.42202  1.0000
  H   H3401     1.0  0.97098  0.71547  0.39298  1.0000
  C   C3408     1.0  0.87413  0.74350  0.47284  1.0000
  H   H3402     1.0  0.93817  0.72878  0.44308  1.0000
  H   H3403     1.0  0.92605  0.72189  0.42504  1.0000
  C   C3409     1.0  0.85029  0.63836  0.29154  1.0000
  C   C3410     1.0  0.84291  0.62561  0.29737  1.0000
  C   C3411     1.0  0.83234  0.62379  0.28948  1.0000
  C   C3412     1.0  0.82904  0.63472  0.27579  1.0000
  C   C3413     1.0  0.83618  0.64763  0.27022  1.0000
  C   C3414     1.0  0.84685  0.64936  0.27796  1.0000
  H   H3404     1.0  0.84545  0.61707  0.30785  1.0000
  H   H3405     1.0  0.82682  0.61380  0.29393  1.0000
  H   H3406     1.0  0.83345  0.65635  0.25998  1.0000
  H   H3407     1.0  0.85244  0.65929  0.27342  1.0000
  C   C3415     1.0  0.93253  0.61420  0.34173  1.0000
  C   C3416     1.0  0.94753  0.60863  0.34511  1.0000
  H   H3408     1.0  0.89917  0.56566  0.33182  1.0000
  H   H3409     1.0  0.82988  0.72369  0.15982  1.0000
  C   C3417     1.0  0.92695  0.63037  0.33693  1.0000
  H   H3410     1.0  0.95194  0.59614  0.34880  1.0000
  H   H3411     1.0  0.91539  0.63478  0.33430  1.0000
  C   C3418     1.0  0.86775  0.64681  0.37911  1.0000
  C   C3419     1.0  0.88370  0.64098  0.37331  1.0000
  C   C3420     1.0  0.89524  0.64614  0.37693  1.0000
  C   C3421     1.0  0.89094  0.65691  0.38666  1.0000
  C   C3422     1.0  0.87500  0.66293  0.39230  1.0000
  C   C3423     1.0  0.86342  0.65789  0.38852  1.0000
  H   H3412     1.0  0.88722  0.63232  0.36619  1.0000
  H   H3413     1.0  0.90755  0.64159  0.37233  1.0000
  H   H3414     1.0  0.87156  0.67126  0.39980  1.0000
  H   H3415     1.0  0.85110  0.66247  0.39302  1.0000
  C   C3424     1.0  0.85638  0.53222  0.39596  1.0000
  C   C3425     1.0  0.86035  0.52810  0.38138  1.0000
  C   C3426     1.0  0.86285  0.53958  0.36743  1.0000
  C   C3427     1.0  0.86190  0.55515  0.36791  1.0000
  C   C3428     1.0  0.85813  0.55927  0.38249  1.0000
  C   C3429     1.0  0.85516  0.54787  0.39646  1.0000
  H   H3416     1.0  0.86104  0.51616  0.38086  1.0000
  H   H3417     1.0  0.86561  0.53635  0.35619  1.0000
  H   H3418     1.0  0.85724  0.57126  0.38299  1.0000
  S   S1169     1.0  0.81431  0.70624  0.02735  1.0000
  H   H3419     1.0  0.89877  0.56070  0.39027  1.0000
  H   H3420     1.0  0.98126  0.80745  0.22311  1.0000
  S   S1170     1.0  0.97726  0.73544  0.16343  1.0000
  H   H3421     1.0  0.91922  0.55443  0.33039  1.0000
  C   C3430     1.0  0.84142  0.76260  0.06325  1.0000
  C   C3431     1.0  0.90222  0.53993  0.35731  1.0000
  C   C3432     1.0  0.95565  0.67425  0.42459  1.0000
  N   N277      1.0  0.86994  0.69276  0.34152  1.0000
  C   C3433     1.0  0.87943  0.68569  0.35203  1.0000
  C   C3434     1.0  0.86896  0.70828  0.33430  1.0000
  C   C3435     1.0  0.88758  0.69437  0.35625  1.0000
  C   C3436     1.0  0.87698  0.71733  0.33820  1.0000
  C   C3437     1.0  0.88619  0.71035  0.34939  1.0000
  H   H3422     1.0  0.82173  0.66570  0.30151  1.0000
  H   H3423     1.0  0.88052  0.67333  0.35741  1.0000
  H   H3424     1.0  0.86140  0.71393  0.32599  1.0000
  H   H3425     1.0  0.83972  0.67235  0.29784  1.0000
  C   C3438     1.0  0.79495  0.71120  0.99050  1.0000
  H   H3426     1.0  0.96804  0.85273  0.20581  1.0000
  H   H3427     1.0  0.82129  0.68630  0.29745  1.0000
  N   N278      1.0  0.98240  0.74289  0.11756  1.0000
  H   H3428     1.0  0.96080  0.73709  0.11854  1.0000
  H   H3429     1.0  0.90002  0.59661  0.38486  1.0000
  C   C3439     1.0  0.80740  0.72111  0.25120  1.0000
  H   H3430     1.0  0.82273  0.73645  0.00745  1.0000
  C   C3440     1.0  0.96559  0.68432  0.34254  1.0000
  C   C3441     1.0  0.95716  0.69205  0.45659  1.0000
  H   H3431     1.0  0.79662  0.70491  0.98143  1.0000
  C   C3442     1.0  0.96116  0.76104  0.10676  1.0000
  H   H3432     1.0  0.82660  0.92927  0.21531  1.0000
  C   C3443     1.0  0.82949  0.77015  0.08863  1.0000
  C   C3444     1.0  0.80529  0.69391  0.25908  1.0000
  C   C3445     1.0  0.85668  0.72666  0.47726  1.0000
  H   H3433     1.0  0.84109  0.76724  0.09122  1.0000
  C   C3446     1.0  0.82389  0.93163  0.23906  1.0000
  S   S1171     1.0  0.88881  0.49028  0.42267  1.0000
  S   S1172     1.0  0.97379  0.63443  0.37705  1.0000
  C   C3447     1.0  0.93725  0.67783  0.44964  1.0000
  Fe  Fe587     1.0  0.98194  0.63833  0.35105  1.0000
  H   H3434     1.0  0.83542  0.64887  0.32453  1.0000
  N   N279      1.0  0.86618  0.73625  0.46715  1.0000
  H   H3435     1.0  0.81144  0.69559  0.34771  1.0000
  H   H3436     1.0  0.80192  0.73327  0.27001  1.0000
  C   C3448     1.0  0.82129  0.93271  0.26631  1.0000
  H   H3437     1.0  0.83456  0.82052  0.27900  1.0000
  H   H3438     1.0  0.95673  0.75650  0.18266  1.0000
  H   H3439     1.0  0.86447  0.90328  0.23828  1.0000
  C   C3449     1.0  0.96978  0.77278  0.10193  1.0000
  S   S1173     1.0  0.97935  0.59128  0.39296  1.0000
  C   C3450     1.0  0.83196  0.92616  0.22539  1.0000
  C   C3451     1.0  0.92051  0.60441  0.38464  1.0000
  S   S1174     1.0  0.82041  0.89562  0.21797  1.0000
  H   H3440     1.0  0.85802  0.67388  0.34783  1.0000
  C   C3452     1.0  0.89994  0.55470  0.38107  1.0000
  H   H3441     1.0  0.91823  0.79467  0.19118  1.0000
  H   H3442     1.0  0.91600  0.52073  0.41321  1.0000
  H   H3443     1.0  0.95615  0.68445  0.41444  1.0000
  H   H3444     1.0  0.89482  0.52092  0.37590  1.0000
  N   N280      1.0  0.83655  0.78867  0.22208  1.0000
  C   C3453     1.0  0.83653  0.79765  0.23198  1.0000
  C   C3454     1.0  0.84137  0.79353  0.20617  1.0000
  C   C3455     1.0  0.84186  0.81168  0.22603  1.0000
  C   C3456     1.0  0.84652  0.80762  0.19980  1.0000
  C   C3457     1.0  0.84695  0.81663  0.20984  1.0000
  C   C3458     1.0  0.83250  0.77325  0.22874  1.0000
  H   H3445     1.0  0.83286  0.79370  0.24461  1.0000
  H   H3446     1.0  0.84191  0.78618  0.19832  1.0000
  H   H3447     1.0  0.84245  0.81845  0.23393  1.0000
  H   H3448     1.0  0.85092  0.81113  0.18723  1.0000
  H   H3449     1.0  0.85168  0.82718  0.20508  1.0000
  H   H3450     1.0  0.82198  0.77391  0.23858  1.0000
  H   H3451     1.0  0.83004  0.76853  0.21980  1.0000
  H   H3452     1.0  0.84249  0.76477  0.23341  1.0000
  N   N281      1.0  0.82494  0.67334  0.32033  1.0000
  C   C3459     1.0  0.81828  0.68632  0.32668  1.0000
  C   C3460     1.0  0.83015  0.65916  0.32959  1.0000
  C   C3461     1.0  0.81672  0.68527  0.34271  1.0000
  C   C3462     1.0  0.97931  0.83268  0.17667  1.0000
  Fe  Fe588     1.0  0.86617  0.49318  0.41569  1.0000
  C   C3463     1.0  0.82699  0.67454  0.30346  1.0000
  H   H3453     1.0  0.82121  0.66988  0.36465  1.0000
  H   H3454     1.0  0.97502  0.82561  0.17157  1.0000
  C   C3464     1.0  0.96112  0.68667  0.44266  1.0000
  C   C3465     1.0  0.79358  0.60491  0.24196  1.0000
  H   H3455     1.0  0.87941  0.74081  0.44352  1.0000
  Fe  Fe589     1.0  0.79903  0.73069  0.30347  1.0000
  H   H3456     1.0  0.96914  0.56261  0.40661  1.0000
  C   C3466     1.0  0.86745  0.73920  0.45014  1.0000
  H   H3457     1.0  0.84523  0.77275  0.05433  1.0000
  H   H3458     1.0  0.94056  0.68227  0.39261  1.0000
  H   H3459     1.0  0.89467  0.68878  0.36499  1.0000
  C   C3467     1.0  0.94640  0.67359  0.38513  1.0000
  H   H3460     1.0  0.93960  0.69461  0.47788  1.0000
  H   H3461     1.0  0.79742  0.65529  0.11228  1.0000
  S   S1175     1.0  0.79385  0.66908  0.24015  1.0000
  H   H3462     1.0  0.80999  0.73120  0.24206  1.0000
  H   H3463     1.0  0.84996  0.69094  0.33464  1.0000
  H   H3464     1.0  0.91518  0.76672  0.19218  1.0000
  H   H3465     1.0  0.98221  0.71270  0.46943  1.0000
  H   H3466     1.0  0.94307  0.62591  0.37537  1.0000
  H   H3467     1.0  0.83004  0.75207  0.99225  1.0000
  C   C3468     1.0  0.97825  0.71792  0.47964  1.0000
  H   H3468     1.0  0.89889  0.50623  0.47112  1.0000
  N   N282      1.0  0.95606  0.68081  0.37051  1.0000
  C   C3469     1.0  0.95589  0.67805  0.35649  1.0000
  H   H3469     1.0  0.81087  0.92728  0.27146  1.0000
  H   H3470     1.0  0.95987  0.48710  0.41347  1.0000
  H   H3471     1.0  0.82838  0.92987  0.27534  1.0000
  S   S1176     1.0  0.97671  0.51360  0.44460  1.0000
  H   H3472     1.0  0.83894  0.71614  0.99406  1.0000
  C   C3470     1.0  0.92413  0.51051  0.40956  1.0000
  H   H3473     1.0  0.88180  0.75097  0.46484  1.0000
  Fe  Fe590     1.0  0.79787  0.90810  0.23151  1.0000
  H   H3474     1.0  0.91532  0.72485  0.46136  1.0000
  H   H3475     1.0  0.80920  0.75219  0.99828  1.0000
  H   H3476     1.0  0.80670  0.68278  0.25622  1.0000
  S   S1177     1.0  0.96355  0.64839  0.33643  1.0000
  C   C3471     1.0  0.86118  0.68349  0.33763  1.0000
  H   H3477     1.0  0.86552  0.72906  0.44682  1.0000
  H   H3478     1.0  0.98358  0.70283  0.35811  1.0000
  N   N283      1.0  0.83033  0.92715  0.25202  1.0000
  C   C3472     1.0  0.95197  0.76777  0.18593  1.0000
  C   C3473     1.0  0.93049  0.78904  0.19075  1.0000
  C   C3474     1.0  0.96196  0.77497  0.18953  1.0000
  C   C3475     1.0  0.94010  0.79649  0.19458  1.0000
  C   C3476     1.0  0.95594  0.78938  0.19396  1.0000
  Fe  Fe591     1.0  0.96595  0.50213  0.43267  1.0000
  C   C3477     1.0  0.80277  0.72231  0.26702  1.0000
  S   S1178     1.0  0.94248  0.51386  0.42708  1.0000
  H   H3479     1.0  0.97430  0.76943  0.18890  1.0000
  C   C3478     1.0  0.82880  0.65771  0.34566  1.0000
  H   H3480     1.0  0.96352  0.79501  0.19697  1.0000
  C   C3479     1.0  0.94892  0.49164  0.40962  1.0000
  S   S1179     1.0  0.81399  0.70562  0.22732  1.0000
  C   C3480     1.0  0.89783  0.53232  0.37301  1.0000
  N   N284      1.0  0.86020  0.70589  0.22037  1.0000
  C   C3481     1.0  0.87427  0.70826  0.21064  1.0000
  C   C3482     1.0  0.85714  0.69114  0.22542  1.0000
  C   C3483     1.0  0.88589  0.69560  0.20607  1.0000
  C   C3484     1.0  0.86852  0.67820  0.22111  1.0000
  C   C3485     1.0  0.88299  0.68048  0.21139  1.0000
  C   C3486     1.0  0.84799  0.71934  0.22467  1.0000
  H   H3481     1.0  0.87654  0.72000  0.20626  1.0000
  H   H3482     1.0  0.84579  0.68934  0.23273  1.0000
  H   H3483     1.0  0.89692  0.69753  0.19808  1.0000
  H   H3484     1.0  0.86603  0.66653  0.22501  1.0000
  H   H3485     1.0  0.89176  0.67063  0.20754  1.0000
  H   H3486     1.0  0.84065  0.71595  0.23658  1.0000
  H   H3487     1.0  0.85319  0.72902  0.22487  1.0000
  H   H3488     1.0  0.84023  0.72377  0.21608  1.0000
  N   N285      1.0  0.84246  0.70085  0.15639  1.0000
  C   C3487     1.0  0.85579  0.70562  0.14723  1.0000
  C   C3488     1.0  0.84058  0.68609  0.15753  1.0000
  C   C3489     1.0  0.86758  0.69564  0.13873  1.0000
  C   C3490     1.0  0.85211  0.67580  0.14915  1.0000
  H   H3489     1.0  0.81699  0.94568  0.26349  1.0000
  C   C3491     1.0  0.80018  0.69524  0.27483  1.0000
  H   H3490     1.0  0.88609  0.80077  0.31215  1.0000
  H   H3491     1.0  0.93226  0.65335  0.33129  1.0000
  C   C3492     1.0  0.96582  0.68965  0.37110  1.0000
  C   C3493     1.0  0.84674  0.91610  0.22502  1.0000
  H   H3492     1.0  0.92922  0.67251  0.44698  1.0000
  C   C3494     1.0  0.96958  0.83943  0.18903  1.0000
  H   H3493     1.0  0.90718  0.57343  0.36229  1.0000
  H   H3494     1.0  0.90872  0.50649  0.39752  1.0000
  H   H3495     1.0  0.93698  0.66938  0.38288  1.0000
  C   C3495     1.0  0.88611  0.80999  0.30113  1.0000
  C   C3496     1.0  0.90459  0.56186  0.36524  1.0000
  N   N286      1.0  0.90559  0.55448  0.35361  1.0000
  H   H3496     1.0  0.89389  0.62631  0.41665  1.0000
  H   H3497     1.0  0.98332  0.69813  0.33238  1.0000
  H   H3498     1.0  0.81411  0.69758  0.31939  1.0000
  H   H3499     1.0  0.86839  0.67822  0.32752  1.0000
  C   C3497     1.0  0.89517  0.61090  0.40180  1.0000
  H   H3500     1.0  0.84972  0.91321  0.26221  1.0000
  N   N287      1.0  0.87158  0.81309  0.29558  1.0000
  C   C3498     1.0  0.90056  0.71127  0.45858  1.0000
  C   C3499     1.0  0.95692  0.61911  0.34372  1.0000
  N   N288      1.0  0.92653  0.61301  0.39084  1.0000
  C   C3500     1.0  0.95154  0.63525  0.33863  1.0000
  H   H3501     1.0  0.87555  0.72981  0.33305  1.0000
  H   H3502     1.0  0.95486  0.72784  0.47572  1.0000
  H   H3503     1.0  0.79629  0.62761  0.13790  1.0000
  C   C3501     1.0  0.96773  0.74604  0.11453  1.0000
  H   H3504     1.0  0.90247  0.53433  0.34810  1.0000
  N   N289      1.0  0.82298  0.73598  0.98396  1.0000
  C   C3502     1.0  0.80169  0.71315  0.01405  1.0000
  H   H3505     1.0  0.94834  0.67082  0.35603  1.0000
  H   H3506     1.0  0.88766  0.82078  0.30351  1.0000
  N   N290      1.0  0.93641  0.77481  0.18662  1.0000
  H   H3507     1.0  0.91389  0.57320  0.33557  1.0000
  C   C3503     1.0  0.85323  0.91158  0.23829  1.0000
  C   C3504     1.0  0.89648  0.53986  0.38494  1.0000
  C   C3505     1.0  0.84907  0.80459  0.29449  1.0000
  C   C3506     1.0  0.93842  0.50488  0.41434  1.0000
  H   H3508     1.0  0.95394  0.66350  0.39164  1.0000
  H   H3509     1.0  0.96489  0.69798  0.45893  1.0000
  S   S1180     1.0  0.79696  0.73739  0.08384  1.0000
  H   H3510     1.0  0.84217  0.79564  0.29800  1.0000
  C   C3507     1.0  0.95672  0.75932  0.14796  1.0000
  C   C3508     1.0  0.86255  0.80206  0.30032  1.0000
  C   C3509     1.0  0.90970  0.56233  0.33704  1.0000
  C   C3510     1.0  0.96027  0.74352  0.15563  1.0000
  H   H3511     1.0  0.89194  0.71739  0.35299  1.0000
  C   C3511     1.0  0.90139  0.61972  0.40799  1.0000
  S   S1181     1.0  0.87985  0.69564  0.45567  1.0000
  S   S1182     1.0  0.98886  0.85054  0.24063  1.0000
  C   C3512     1.0  0.90478  0.60318  0.39005  1.0000
  C   C3513     1.0  0.97560  0.69334  0.34305  1.0000
  C   C3514     1.0  0.91717  0.62075  0.40224  1.0000
  H   H3512     1.0  0.96625  0.69153  0.38226  1.0000
  H   H3513     1.0  0.92643  0.50958  0.45945  1.0000
  H   H3514     1.0  0.92780  0.59862  0.37529  1.0000
  C   C3515     1.0  0.94279  0.61486  0.38450  1.0000
  C   C3516     1.0  0.79887  0.70944  0.27882  1.0000
  H   H3515     1.0  0.95762  0.83773  0.19361  1.0000
  S   S1183     1.0  0.96991  0.72967  0.44171  1.0000
  H   H3516     1.0  0.81233  0.93929  0.23936  1.0000
  C   C3517     1.0  0.97557  0.81774  0.22790  1.0000
  C   C3518     1.0  0.90764  0.71678  0.46733  1.0000
  C   C3519     1.0  0.84476  0.91715  0.25182  1.0000
  C   C3520     1.0  0.90695  0.50459  0.47865  1.0000
  N   N291      1.0  0.82762  0.76809  0.07492  1.0000
  H   H3517     1.0  0.97987  0.72118  0.13383  1.0000
  C   C3521     1.0  0.94300  0.69019  0.46718  1.0000
  H   H3518     1.0  0.93526  0.80764  0.19814  1.0000
  H   H3519     1.0  0.85862  0.74983  0.44635  1.0000
  Fe  Fe592     1.0  0.79349  0.74832  0.05935  1.0000
  Fe  Fe593     1.0  0.80786  0.71799  0.04792  1.0000
  C   C3522     1.0  0.81642  0.77547  0.09984  1.0000
  H   H3520     1.0  0.81154  0.69355  0.00273  1.0000
  H   H3521     1.0  0.94454  0.50577  0.47691  1.0000
  H   H3522     1.0  0.98429  0.77942  0.22624  1.0000
  H   H3523     1.0  0.96475  0.78451  0.09607  1.0000
  H   H3524     1.0  0.94927  0.76361  0.10494  1.0000
  H   H3525     1.0  0.98432  0.68608  0.40767  1.0000
  H   H3526     1.0  0.80428  0.59590  0.24250  1.0000
  C   C3523     1.0  0.98487  0.76937  0.10478  1.0000
  C   C3524     1.0  0.98178  0.55996  0.40527  1.0000
  Fe  Fe594     1.0  0.79323  0.66240  0.21826  1.0000
  C   C3525     1.0  0.93304  0.68289  0.46377  1.0000
  H   H3527     1.0  0.98300  0.72179  0.41117  1.0000
  C   C3526     1.0  0.93011  0.48887  0.39659  1.0000
  C   C3527     1.0  0.92239  0.50643  0.47212  1.0000
  H   H3528     1.0  0.96547  0.68193  0.33150  1.0000
  H   H3529     1.0  0.79570  0.68322  0.11135  1.0000
  H   H3530     1.0  0.97204  0.68844  0.43438  1.0000
  H   H3531     1.0  0.92195  0.68146  0.47188  1.0000
  H   H3532     1.0  0.79504  0.96449  0.22694  1.0000
  C   C3528     1.0  0.97558  0.84784  0.19596  1.0000
  Fe  Fe595     1.0  0.98220  0.48986  0.46012  1.0000
  H   H3533     1.0  0.79718  0.61595  0.25840  1.0000
  C   C3529     1.0  0.80140  0.77888  0.09683  1.0000
  H   H3534     1.0  0.81147  0.77041  0.06072  1.0000
  S   S1184     1.0  0.98783  0.49567  0.41478  1.0000
  H   H3535     1.0  0.97883  0.52793  0.47217  1.0000
  S   S1185     1.0  0.79223  0.90875  0.25704  1.0000
  C   C3530     1.0  0.79448  0.97296  0.23353  1.0000
  C   C3531     1.0  0.83296  0.72154  0.98440  1.0000
  S   S1186     1.0  0.98693  0.66165  0.39244  1.0000
  C   C3532     1.0  0.99009  0.57200  0.39849  1.0000
  C   C3533     1.0  0.79108  0.72763  0.01383  1.0000
  H   H3536     1.0  0.79137  0.63737  0.20066  1.0000
  H   H3537     1.0  0.79113  0.78283  0.10548  1.0000
  N   N292      1.0  0.99088  0.84940  0.19078  1.0000
  Fe  Fe596     1.0  0.99087  0.61121  0.37794  1.0000
  H   H3538     1.0  0.98929  0.66043  0.30808  1.0000
  H   H3539     1.0  0.98798  0.86504  0.20578  1.0000
  C   C3534     1.0  0.86055  0.50233  0.62323  1.0000
  S   S1187     1.0  0.88307  0.50132  0.54262  1.0000
  Fe  Fe597     1.0  0.86778  0.48579  0.54238  1.0000
  C   C3535     1.0  0.80277  0.94633  0.74996  1.0000
  C   C3536     1.0  0.89462  0.70176  0.49148  1.0000
  C   C3537     1.0  0.98759  0.79229  0.79792  1.0000
  H   H3540     1.0  0.98218  0.59729  0.62917  1.0000
  H   H3541     1.0  0.85518  0.67293  0.88152  1.0000
  Fe  Fe598     1.0  0.86983  0.50184  0.56740  1.0000
  S   S1188     1.0  0.86046  0.52461  0.57578  1.0000
  C   C3538     1.0  0.79358  0.89034  0.70988  1.0000
  C   C3539     1.0  0.98622  0.69035  0.78481  1.0000
  S   S1189     1.0  0.95053  0.51374  0.57428  1.0000
  C   C3540     1.0  0.96637  0.76422  0.57787  1.0000
  Fe  Fe599     1.0  0.88919  0.56784  0.62422  1.0000
  S   S1190     1.0  0.89796  0.56660  0.64552  1.0000
  S   S1191     1.0  0.89373  0.54380  0.61863  1.0000
  Fe  Fe600     1.0  0.88264  0.60372  0.61672  1.0000
  S   S1192     1.0  0.89159  0.60505  0.63692  1.0000
  S   S1193     1.0  0.87192  0.62659  0.60228  1.0000
  Fe  Fe601     1.0  0.91080  0.58503  0.62999  1.0000
  S   S1194     1.0  0.93637  0.57940  0.63028  1.0000
  Fe  Fe602     1.0  0.87785  0.58665  0.65057  1.0000
  S   S1195     1.0  0.86193  0.58777  0.67455  1.0000
  S   S1196     1.0  0.90329  0.58532  0.60837  1.0000
  S   S1197     1.0  0.86763  0.58634  0.63071  1.0000
  Fe  Fe603     1.0  0.91166  0.69397  0.55256  1.0000
  S   S1198     1.0  0.89161  0.70253  0.54009  1.0000
  S   S1199     1.0  0.92059  0.66984  0.56618  1.0000
  Fe  Fe604     1.0  0.92033  0.72570  0.54338  1.0000
  S   S1200     1.0  0.90075  0.73721  0.53060  1.0000
  S   S1201     1.0  0.93875  0.73845  0.54218  1.0000
  Fe  Fe605     1.0  0.88618  0.72341  0.55111  1.0000
  S   S1202     1.0  0.86102  0.73195  0.56306  1.0000
  Fe  Fe606     1.0  0.90799  0.71556  0.52067  1.0000
  S   S1203     1.0  0.91361  0.71973  0.49410  1.0000
  S   S1204     1.0  0.90515  0.71387  0.56485  1.0000
  S   S1205     1.0  0.92856  0.70501  0.53220  1.0000
  S   S1206     1.0  0.95800  0.84686  0.75239  1.0000
  H   H3542     1.0  0.85302  0.62015  0.63505  1.0000
  S   S1207     1.0  0.79842  0.71021  0.93932  1.0000
  C   C3541     1.0  0.96707  0.72803  0.81445  1.0000
  H   H3543     1.0  0.79497  0.71050  0.73633  1.0000
  S   S1208     1.0  0.80800  0.76451  0.63224  1.0000
  C   C3542     1.0  0.80044  0.86206  0.71431  1.0000
  H   H3544     1.0  0.82897  0.74352  0.68514  1.0000
  H   H3545     1.0  0.79314  0.88716  0.75522  1.0000
  S   S1209     1.0  0.98028  0.72071  0.84017  1.0000
  H   H3546     1.0  0.96720  0.60108  0.66761  1.0000
  C   C3543     1.0  0.83993  0.66891  0.90440  1.0000
  C   C3544     1.0  0.98479  0.80859  0.77184  1.0000
  H   H3547     1.0  0.95490  0.70036  0.58821  1.0000
  S   S1210     1.0  0.97242  0.63020  0.62934  1.0000
  H   H3548     1.0  0.82338  0.70322  0.73454  1.0000
  H   H3549     1.0  0.98919  0.77728  0.82083  1.0000
  H   H3550     1.0  0.83455  0.66248  0.67740  1.0000
  Fe  Fe607     1.0  0.87202  0.82838  0.70384  1.0000
  S   S1211     1.0  0.86271  0.81514  0.72785  1.0000
  S   S1212     1.0  0.86341  0.82855  0.68266  1.0000
  Fe  Fe608     1.0  0.89290  0.84177  0.71586  1.0000
  S   S1213     1.0  0.88491  0.82970  0.74090  1.0000
  S   S1214     1.0  0.91155  0.85624  0.70790  1.0000
  Fe  Fe609     1.0  0.88753  0.80908  0.73078  1.0000
  S   S1215     1.0  0.90010  0.78552  0.74210  1.0000
  Fe  Fe610     1.0  0.86088  0.83698  0.73567  1.0000
  S   S1216     1.0  0.83879  0.84339  0.75340  1.0000
  S   S1217     1.0  0.89726  0.82045  0.70599  1.0000
  S   S1218     1.0  0.86840  0.85096  0.71135  1.0000
  Fe  Fe611     1.0  0.90628  0.71418  0.81656  1.0000
  S   S1219     1.0  0.88711  0.73054  0.82967  1.0000
  S   S1220     1.0  0.93031  0.71907  0.80438  1.0000
  Fe  Fe612     1.0  0.88408  0.69407  0.81690  1.0000
  S   S1221     1.0  0.86306  0.70884  0.82969  1.0000
  S   S1222     1.0  0.88182  0.67322  0.80958  1.0000
  Fe  Fe613     1.0  0.87272  0.72929  0.81372  1.0000
  S   S1223     1.0  0.85760  0.75063  0.80158  1.0000
  Fe  Fe614     1.0  0.87931  0.70854  0.84454  1.0000
  S   S1224     1.0  0.87142  0.70291  0.87095  1.0000
  S   S1225     1.0  0.89229  0.71449  0.79950  1.0000
  S   S1226     1.0  0.89988  0.69214  0.83283  1.0000
  Fe  Fe615     1.0  0.82774  0.77584  0.62997  1.0000
  S   S1227     1.0  0.83674  0.75865  0.65017  1.0000
  S   S1228     1.0  0.84536  0.78043  0.60698  1.0000
  Fe  Fe616     1.0  0.82035  0.77487  0.66514  1.0000
  S   S1229     1.0  0.82702  0.77649  0.68675  1.0000
  Fe  Fe617     1.0  0.81603  0.74838  0.65344  1.0000
  S   S1230     1.0  0.82217  0.72221  0.65628  1.0000
  Fe  Fe618     1.0  0.84160  0.67160  0.74801  1.0000
  S   S1231     1.0  0.81652  0.67014  0.75830  1.0000
  S   S1232     1.0  0.84877  0.69164  0.75227  1.0000
  Fe  Fe619     1.0  0.84754  0.64539  0.73040  1.0000
  S   S1233     1.0  0.82275  0.64168  0.73960  1.0000
  S   S1234     1.0  0.86705  0.63549  0.71161  1.0000
  Fe  Fe620     1.0  0.81592  0.66809  0.73448  1.0000
  S   S1235     1.0  0.81308  0.79348  0.64459  1.0000
  Fe  Fe621     1.0  0.82558  0.64410  0.76278  1.0000
  N   N293      1.0  0.97968  0.74236  0.60150  1.0000
  S   S1236     1.0  0.84035  0.67164  0.72379  1.0000
  S   S1237     1.0  0.85104  0.64563  0.75401  1.0000
  C   C3545     1.0  0.81457  0.71176  0.67495  1.0000
  C   C3546     1.0  0.82308  0.69686  0.68077  1.0000
  C   C3547     1.0  0.81729  0.68826  0.69569  1.0000
  H   H3551     1.0  0.93733  0.56395  0.66543  1.0000
  H   H3552     1.0  0.83425  0.69205  0.67380  1.0000
  H   H3553     1.0  0.82383  0.67671  0.70007  1.0000
  C   C3548     1.0  0.87404  0.67862  0.79268  1.0000
  C   C3549     1.0  0.86704  0.69428  0.78713  1.0000
  C   C3550     1.0  0.85958  0.69821  0.77447  1.0000
  C   C3551     1.0  0.85898  0.68651  0.76745  1.0000
  C   C3552     1.0  0.86615  0.67091  0.77287  1.0000
  C   C3553     1.0  0.87377  0.66698  0.78540  1.0000
  H   H3554     1.0  0.86696  0.70326  0.79288  1.0000
  H   H3555     1.0  0.85389  0.71026  0.77038  1.0000
  H   H3556     1.0  0.86593  0.66187  0.76736  1.0000
  H   H3557     1.0  0.87923  0.65488  0.78963  1.0000
  C   C3554     1.0  0.85358  0.81384  0.68375  1.0000
  C   C3555     1.0  0.85083  0.80237  0.69752  1.0000
  C   C3556     1.0  0.84266  0.79101  0.69827  1.0000
  C   C3557     1.0  0.83733  0.79090  0.68520  1.0000
  C   C3558     1.0  0.84021  0.80223  0.67133  1.0000
  C   C3559     1.0  0.84827  0.81371  0.67065  1.0000
  H   H3558     1.0  0.85495  0.80223  0.70760  1.0000
  H   H3559     1.0  0.84044  0.78227  0.70901  1.0000
  H   H3560     1.0  0.83617  0.80221  0.66118  1.0000
  H   H3561     1.0  0.85040  0.82251  0.65993  1.0000
  C   C3560     1.0  0.88820  0.77646  0.75902  1.0000
  C   C3561     1.0  0.87181  0.78126  0.76174  1.0000
  C   C3562     1.0  0.86241  0.77315  0.77471  1.0000
  C   C3563     1.0  0.86940  0.76052  0.78524  1.0000
  C   C3564     1.0  0.88580  0.75614  0.78286  1.0000
  C   C3565     1.0  0.89518  0.76393  0.76962  1.0000
  H   H3562     1.0  0.86632  0.79099  0.75374  1.0000
  H   H3563     1.0  0.84973  0.77669  0.77659  1.0000
  H   H3564     1.0  0.89132  0.74684  0.79126  1.0000
  H   H3565     1.0  0.90786  0.76027  0.76767  1.0000
  C   C3566     1.0  0.81391  0.89468  0.74026  1.0000
  C   C3567     1.0  0.80554  0.88361  0.75040  1.0000
  C   C3568     1.0  0.81330  0.86790  0.75459  1.0000
  C   C3569     1.0  0.82941  0.86320  0.74852  1.0000
  C   C3570     1.0  0.83783  0.87429  0.73848  1.0000
  C   C3571     1.0  0.83010  0.89004  0.73444  1.0000
  C   C3572     1.0  0.88734  0.69642  0.48273  1.0000
  H   H3566     1.0  0.80677  0.85937  0.76247  1.0000
  H   H3567     1.0  0.85034  0.87080  0.73403  1.0000
  H   H3568     1.0  0.83665  0.89860  0.72668  1.0000
  H   H3569     1.0  0.98649  0.69278  0.77234  1.0000
  H   H3570     1.0  0.93866  0.60951  0.66853  1.0000
  H   H3571     1.0  0.83426  0.61325  0.66034  1.0000
  H   H3572     1.0  0.79676  0.85099  0.71750  1.0000
  C   C3573     1.0  0.95333  0.49374  0.55546  1.0000
  C   C3574     1.0  0.90191  0.50063  0.49496  1.0000
  C   C3575     1.0  0.82144  0.72835  0.88936  1.0000
  C   C3576     1.0  0.82888  0.73286  0.87357  1.0000
  C   C3577     1.0  0.84444  0.72545  0.86793  1.0000
  C   C3578     1.0  0.85265  0.71358  0.87812  1.0000
  C   C3579     1.0  0.84540  0.70943  0.89403  1.0000
  C   C3580     1.0  0.82977  0.71671  0.89962  1.0000
  H   H3573     1.0  0.82251  0.74195  0.86562  1.0000
  H   H3574     1.0  0.85001  0.72880  0.85567  1.0000
  H   H3575     1.0  0.85177  0.70032  0.90195  1.0000
  H   H3576     1.0  0.82418  0.71327  0.91182  1.0000
  C   C3581     1.0  0.80007  0.71793  0.68392  1.0000
  H   H3577     1.0  0.98272  0.85282  0.68169  1.0000
  S   S1238     1.0  0.97449  0.48883  0.48611  1.0000
  H   H3578     1.0  0.95874  0.85564  0.67184  1.0000
  C   C3582     1.0  0.95513  0.66312  0.58187  1.0000
  C   C3583     1.0  0.91244  0.49844  0.50451  1.0000
  C   C3584     1.0  0.84272  0.65104  0.68038  1.0000
  H   H3579     1.0  0.98880  0.71858  0.61182  1.0000
  H   H3580     1.0  0.79588  0.63689  0.94441  1.0000
  S   S1239     1.0  0.85287  0.48842  0.56622  1.0000
  C   C3585     1.0  0.82928  0.68510  0.80525  1.0000
  N   N294      1.0  0.84587  0.64217  0.66815  1.0000
  C   C3586     1.0  0.85908  0.63806  0.64221  1.0000
  C   C3587     1.0  0.95142  0.71700  0.83923  1.0000
  C   C3588     1.0  0.94007  0.71671  0.83143  1.0000
  C   C3589     1.0  0.94252  0.72169  0.81506  1.0000
  C   C3590     1.0  0.95588  0.72763  0.80666  1.0000
  C   C3591     1.0  0.96795  0.73173  0.50542  1.0000
  H   H3581     1.0  0.94974  0.71271  0.85184  1.0000
  H   H3582     1.0  0.92975  0.71213  0.83800  1.0000
  H   H3583     1.0  0.95777  0.73160  0.79401  1.0000
  C   C3592     1.0  0.82797  0.84761  0.71165  1.0000
  C   C3593     1.0  0.94487  0.85013  0.74010  1.0000
  C   C3594     1.0  0.94701  0.85981  0.72504  1.0000
  C   C3595     1.0  0.93636  0.86209  0.71548  1.0000
  C   C3596     1.0  0.92375  0.85443  0.72077  1.0000
  C   C3597     1.0  0.92165  0.84479  0.73584  1.0000
  C   C3598     1.0  0.93211  0.84272  0.74550  1.0000
  H   H3584     1.0  0.95673  0.86570  0.72083  1.0000
  H   H3585     1.0  0.93801  0.86966  0.70388  1.0000
  H   H3586     1.0  0.91202  0.83886  0.74008  1.0000
  H   H3587     1.0  0.93034  0.83530  0.75718  1.0000
  C   C3599     1.0  0.85695  0.74561  0.57498  1.0000
  C   C3600     1.0  0.84186  0.74891  0.58448  1.0000
  C   C3601     1.0  0.83829  0.75942  0.59443  1.0000
  C   C3602     1.0  0.84972  0.76692  0.59479  1.0000
  C   C3603     1.0  0.86475  0.76384  0.58508  1.0000
  C   C3604     1.0  0.86843  0.75306  0.57533  1.0000
  H   H3588     1.0  0.83293  0.74322  0.58423  1.0000
  H   H3589     1.0  0.82662  0.76185  0.60162  1.0000
  H   H3590     1.0  0.87361  0.76970  0.58518  1.0000
  H   H3591     1.0  0.88008  0.75067  0.56796  1.0000
  C   C3605     1.0  0.95205  0.72791  0.55425  1.0000
  C   C3606     1.0  0.96703  0.73118  0.55052  1.0000
  Fe  Fe622     1.0  0.79388  0.78059  0.64853  1.0000
  C   C3607     1.0  0.96522  0.82602  0.71043  1.0000
  H   H3592     1.0  0.83035  0.50848  0.58960  1.0000
  C   C3608     1.0  0.94780  0.71654  0.56768  1.0000
  H   H3593     1.0  0.93967  0.81554  0.72644  1.0000
  H   H3594     1.0  0.80696  0.75391  0.97179  1.0000
  C   C3609     1.0  0.94377  0.57203  0.66628  1.0000
  H   H3595     1.0  0.93625  0.71396  0.57064  1.0000
  C   C3610     1.0  0.86369  0.60064  0.68511  1.0000
  C   C3611     1.0  0.87585  0.60880  0.67977  1.0000
  C   C3612     1.0  0.87683  0.61925  0.68818  1.0000
  C   C3613     1.0  0.86553  0.62181  0.70188  1.0000
  C   C3614     1.0  0.85328  0.61375  0.70721  1.0000
  C   C3615     1.0  0.85246  0.60309  0.69890  1.0000
  H   H3596     1.0  0.88455  0.60699  0.66923  1.0000
  H   H3597     1.0  0.88632  0.62547  0.68401  1.0000
  H   H3598     1.0  0.84456  0.61560  0.71780  1.0000
  H   H3599     1.0  0.84304  0.59677  0.70313  1.0000
  C   C3616     1.0  0.94598  0.59434  0.62845  1.0000
  C   C3617     1.0  0.96201  0.59003  0.62839  1.0000
  H   H3600     1.0  0.96594  0.55511  0.66436  1.0000
  C   C3618     1.0  0.94609  0.62117  0.62823  1.0000
  C   C3619     1.0  0.93796  0.60997  0.62822  1.0000
  H   H3601     1.0  0.96826  0.57796  0.62863  1.0000
  H   H3602     1.0  0.93991  0.63321  0.62820  1.0000
  H   H3603     1.0  0.92555  0.61337  0.62820  1.0000
  C   C3620     1.0  0.88544  0.63860  0.59229  1.0000
  C   C3621     1.0  0.88058  0.65310  0.58248  1.0000
  C   C3622     1.0  0.89130  0.66279  0.57437  1.0000
  C   C3623     1.0  0.90688  0.65802  0.57614  1.0000
  C   C3624     1.0  0.91170  0.64357  0.58605  1.0000
  C   C3625     1.0  0.90100  0.63388  0.59412  1.0000
  H   H3604     1.0  0.86858  0.65672  0.58096  1.0000
  H   H3605     1.0  0.88757  0.67381  0.56660  1.0000
  H   H3606     1.0  0.92375  0.63979  0.58741  1.0000
  H   H3607     1.0  0.90485  0.62269  0.60163  1.0000
  H   H3608     1.0  0.93382  0.73353  0.50578  1.0000
  H   H3609     1.0  0.96933  0.49340  0.51718  1.0000
  H   H3610     1.0  0.91649  0.60474  0.66114  1.0000
  H   H3611     1.0  0.86599  0.50842  0.62834  1.0000
  H   H3612     1.0  0.89231  0.69805  0.50417  1.0000
  C   C3626     1.0  0.84825  0.51066  0.61566  1.0000
  H   H3613     1.0  0.91270  0.59139  0.68008  1.0000
  H   H3614     1.0  0.80776  0.62255  0.82092  1.0000
  H   H3615     1.0  0.80772  0.69852  0.88453  1.0000
  H   H3616     1.0  0.86280  0.65490  0.65268  1.0000
  C   C3627     1.0  0.98180  0.49189  0.51216  1.0000
  H   H3617     1.0  0.91421  0.55671  0.58793  1.0000
  H   H3618     1.0  0.80133  0.68659  0.91287  1.0000
  C   C3628     1.0  0.94987  0.83791  0.69111  1.0000
  C   C3629     1.0  0.94155  0.74199  0.49970  1.0000
  H   H3619     1.0  0.97556  0.78385  0.76992  1.0000
  C   C3630     1.0  0.87064  0.53036  0.58655  1.0000
  C   C3631     1.0  0.88379  0.52026  0.59178  1.0000
  C   C3632     1.0  0.89079  0.52463  0.60151  1.0000
  C   C3633     1.0  0.88487  0.53920  0.60588  1.0000
  C   C3634     1.0  0.87192  0.54943  0.60039  1.0000
  C   C3635     1.0  0.86477  0.54496  0.59084  1.0000
  H   H3620     1.0  0.88841  0.50900  0.58856  1.0000
  H   H3621     1.0  0.90082  0.51667  0.60570  1.0000
  H   H3622     1.0  0.86726  0.56068  0.60369  1.0000
  H   H3623     1.0  0.85459  0.55284  0.58684  1.0000
  N   N295      1.0  0.83174  0.68622  0.88135  1.0000
  H   H3624     1.0  0.96510  0.72784  0.60073  1.0000
  Fe  Fe623     1.0  0.97682  0.50686  0.57081  1.0000
  H   H3625     1.0  0.96147  0.77255  0.56836  1.0000
  C   C3636     1.0  0.81426  0.81434  0.60526  1.0000
  H   H3626     1.0  0.81582  0.79376  0.59721  1.0000
  N   N296      1.0  0.98558  0.68469  0.81671  1.0000
  H   H3627     1.0  0.80294  0.97650  0.74734  1.0000
  C   C3637     1.0  0.92692  0.50696  0.56582  1.0000
  C   C3638     1.0  0.94317  0.50445  0.56420  1.0000
  S   S1240     1.0  0.80011  0.76315  0.67008  1.0000
  C   C3639     1.0  0.96186  0.74984  0.58407  1.0000
  C   C3640     1.0  0.81511  0.74261  0.97201  1.0000
  H   H3628     1.0  0.91900  0.51539  0.57242  1.0000
  H   H3629     1.0  0.82860  0.52489  0.59746  1.0000
  H   H3630     1.0  0.79430  0.93846  0.75519  1.0000
  H   H3631     1.0  0.79330  0.72930  0.67929  1.0000
  H   H3632     1.0  0.82542  0.69757  0.80500  1.0000
  H   H3633     1.0  0.86277  0.72869  0.51198  1.0000
  H   H3634     1.0  0.83870  0.84900  0.70224  1.0000
  H   H3635     1.0  0.94458  0.80624  0.70988  1.0000
  H   H3636     1.0  0.79479  0.72943  0.73944  1.0000
  C   C3641     1.0  0.82066  0.87629  0.70734  1.0000
  C   C3642     1.0  0.93104  0.48682  0.55134  1.0000
  H   H3637     1.0  0.81381  0.93954  0.74377  1.0000
  C   C3643     1.0  0.86021  0.48582  0.49207  1.0000
  N   N297      1.0  0.79631  0.96009  0.73881  1.0000
  H   H3638     1.0  0.97632  0.55047  0.57481  1.0000
  N   N298      1.0  0.98384  0.79402  0.78382  1.0000
  N   N299      1.0  0.85252  0.79433  0.80198  1.0000
  C   C3644     1.0  0.85038  0.80786  0.79069  1.0000
  C   C3645     1.0  0.86737  0.78633  0.80369  1.0000
  C   C3646     1.0  0.86329  0.81379  0.78089  1.0000
  C   C3647     1.0  0.88055  0.79185  0.79395  1.0000
  C   C3648     1.0  0.87846  0.80566  0.78247  1.0000
  C   C3649     1.0  0.83887  0.78788  0.81153  1.0000
  H   H3639     1.0  0.83866  0.81407  0.78903  1.0000
  H   H3640     1.0  0.86912  0.77525  0.81218  1.0000
  H   H3641     1.0  0.86149  0.82452  0.77196  1.0000
  H   H3642     1.0  0.89230  0.78517  0.79498  1.0000
  H   H3643     1.0  0.88859  0.80990  0.77462  1.0000
  H   H3644     1.0  0.84167  0.77913  0.82225  1.0000
  H   H3645     1.0  0.82893  0.79733  0.81538  1.0000
  H   H3646     1.0  0.83511  0.78178  0.80457  1.0000
  S   S1241     1.0  0.80165  0.73723  0.89574  1.0000
  N   N300      1.0  0.95791  0.73342  0.49593  1.0000
  H   H3647     1.0  0.94410  0.65926  0.58517  1.0000
  H   H3648     1.0  0.82815  0.71342  0.95178  1.0000
  H   H3649     1.0  0.80296  0.74294  0.70301  1.0000
  C   C3650     1.0  0.98868  0.65977  0.59997  1.0000
  H   H3650     1.0  0.94005  0.75006  0.50753  1.0000
  H   H3651     1.0  0.96402  0.73704  0.51556  1.0000
  H   H3652     1.0  0.84895  0.49400  0.49212  1.0000
  C   C3651     1.0  0.84325  0.67576  0.88832  1.0000
  C   C3652     1.0  0.97393  0.67689  0.56273  1.0000
  H   H3653     1.0  0.87933  0.68864  0.48873  1.0000
  H   H3654     1.0  0.83208  0.68557  0.85809  1.0000
  C   C3653     1.0  0.85520  0.72389  0.49353  1.0000
  H   H3655     1.0  0.90828  0.50005  0.56078  1.0000
  H   H3656     1.0  0.84800  0.71594  0.50148  1.0000
  H   H3657     1.0  0.97720  0.73273  0.80784  1.0000
  C   C3654     1.0  0.96283  0.72656  0.48323  1.0000
  N   N301      1.0  0.92737  0.50076  0.49804  1.0000
  H   H3658     1.0  0.82371  0.83800  0.70985  1.0000
  C   C3655     1.0  0.97642  0.83501  0.70210  1.0000
  N   N302      1.0  0.84172  0.50324  0.60864  1.0000
  C   C3656     1.0  0.97187  0.69200  0.79567  1.0000
  C   C3657     1.0  0.98858  0.71621  0.48919  1.0000
  C   C3658     1.0  0.96856  0.73906  0.59606  1.0000
  C   C3659     1.0  0.85639  0.64588  0.65434  1.0000
  C   C3660     1.0  0.96842  0.57740  0.66625  1.0000
  H   H3659     1.0  0.98143  0.66101  0.61184  1.0000
  S   S1242     1.0  0.85643  0.48932  0.52205  1.0000
  C   C3661     1.0  0.98540  0.68180  0.83348  1.0000
  H   H3660     1.0  0.84432  0.52321  0.61499  1.0000
  C   C3662     1.0  0.80951  0.89049  0.70669  1.0000
  H   H3661     1.0  0.82690  0.81340  0.60220  1.0000
  C   C3663     1.0  0.94729  0.48490  0.54904  1.0000
  N   N303      1.0  0.81160  0.72281  0.71963  1.0000
  C   C3664     1.0  0.81313  0.73416  0.70609  1.0000
  C   C3665     1.0  0.82453  0.71203  0.72365  1.0000
  C   C3666     1.0  0.82782  0.73456  0.69590  1.0000
  C   C3667     1.0  0.83943  0.71217  0.71380  1.0000
  C   C3668     1.0  0.84103  0.72344  0.69977  1.0000
  C   C3669     1.0  0.98048  0.76701  0.80709  1.0000
  H   H3662     1.0  0.95210  0.67544  0.55854  1.0000
  C   C3670     1.0  0.97414  0.84569  0.68813  1.0000
  C   C3671     1.0  0.81311  0.68345  0.90605  1.0000
  H   H3663     1.0  0.84964  0.70358  0.71710  1.0000
  H   H3664     1.0  0.85247  0.72366  0.69195  1.0000
  H   H3665     1.0  0.81624  0.68577  0.78834  1.0000
  C   C3672     1.0  0.96214  0.61667  0.62853  1.0000
  N   N304      1.0  0.87946  0.75695  0.73756  1.0000
  C   C3673     1.0  0.87021  0.74870  0.74988  1.0000
  C   C3674     1.0  0.89548  0.75196  0.73460  1.0000
  C   C3675     1.0  0.87700  0.73532  0.75986  1.0000
  C   C3676     1.0  0.90264  0.73857  0.74428  1.0000
  C   C3677     1.0  0.89331  0.73020  0.75696  1.0000
  C   C3678     1.0  0.87221  0.77092  0.72714  1.0000
  H   H3666     1.0  0.85752  0.75265  0.75230  1.0000
  H   H3667     1.0  0.90282  0.75863  0.72499  1.0000
  H   H3668     1.0  0.86969  0.72914  0.76996  1.0000
  H   H3669     1.0  0.91535  0.73487  0.74213  1.0000
  H   H3670     1.0  0.89872  0.71987  0.76464  1.0000
  H   H3671     1.0  0.87966  0.77981  0.72290  1.0000
  H   H3672     1.0  0.87061  0.76765  0.71683  1.0000
  H   H3673     1.0  0.86059  0.77673  0.73338  1.0000
  N   N305      1.0  0.86506  0.70594  0.60107  1.0000
  C   C3679     1.0  0.87295  0.71604  0.60276  1.0000
  C   C3680     1.0  0.84955  0.70669  0.60828  1.0000
  C   C3681     1.0  0.86546  0.72683  0.61238  1.0000
  C   C3682     1.0  0.84172  0.71729  0.61803  1.0000
  C   C3683     1.0  0.84979  0.72734  0.62014  1.0000
  C   C3684     1.0  0.87303  0.69476  0.59088  1.0000
  H   H3674     1.0  0.88502  0.71596  0.59652  1.0000
  H   H3675     1.0  0.84312  0.69910  0.60649  1.0000
  H   H3676     1.0  0.87160  0.73504  0.61350  1.0000
  H   H3677     1.0  0.82945  0.71782  0.62388  1.0000
  H   H3678     1.0  0.84378  0.73575  0.62751  1.0000
  H   H3679     1.0  0.88590  0.69132  0.59035  1.0000
  H   H3680     1.0  0.86851  0.68377  0.59528  1.0000
  H   H3681     1.0  0.87110  0.70009  0.57878  1.0000
  H   H3682     1.0  0.93190  0.48785  0.60366  1.0000
  H   H3683     1.0  0.84790  0.69298  0.86002  1.0000
  C   C3685     1.0  0.97334  0.71216  0.57386  1.0000
  H   H3684     1.0  0.93935  0.83935  0.68687  1.0000
  N   N306      1.0  0.93632  0.58719  0.66714  1.0000
  H   H3685     1.0  0.83702  0.63007  0.81129  1.0000
  H   H3686     1.0  0.94675  0.50634  0.50282  1.0000
  H   H3687     1.0  0.97748  0.68409  0.55119  1.0000
  C   C3686     1.0  0.98603  0.77874  0.80973  1.0000
  H   H3688     1.0  0.80906  0.83500  0.61469  1.0000
  H   H3689     1.0  0.97262  0.75971  0.79040  1.0000
  C   C3687     1.0  0.97775  0.72310  0.56013  1.0000
  H   H3690     1.0  0.98717  0.49542  0.53250  1.0000
  C   C3688     1.0  0.96067  0.59274  0.66748  1.0000
  H   H3691     1.0  0.86750  0.64087  0.63125  1.0000
  H   H3692     1.0  0.95346  0.74691  0.57941  1.0000
  C   C3689     1.0  0.95967  0.67213  0.56688  1.0000
  C   C3690     1.0  0.96517  0.72228  0.83067  1.0000
  C   C3691     1.0  0.86346  0.73104  0.49942  1.0000
  C   C3692     1.0  0.79411  0.70914  0.69872  1.0000
  H   H3693     1.0  0.84892  0.63528  0.79193  1.0000
  C   C3693     1.0  0.97842  0.78255  0.78113  1.0000
  H   H3694     1.0  0.92886  0.82341  0.71132  1.0000
  S   S1243     1.0  0.80428  0.91422  0.73420  1.0000
  S   S1244     1.0  0.98625  0.70309  0.58667  1.0000
  H   H3695     1.0  0.96698  0.81793  0.72142  1.0000
  C   C3694     1.0  0.97670  0.76887  0.79268  1.0000
  H   H3696     1.0  0.82188  0.66752  0.92575  1.0000
  H   H3697     1.0  0.85713  0.63170  0.80874  1.0000
  C   C3695     1.0  0.79901  0.63194  0.81594  1.0000
  C   C3696     1.0  0.98693  0.73064  0.61369  1.0000
  C   C3697     1.0  0.82472  0.67276  0.91328  1.0000
  C   C3698     1.0  0.93797  0.49887  0.50837  1.0000
  C   C3699     1.0  0.97000  0.60109  0.62856  1.0000
  C   C3700     1.0  0.82879  0.51209  0.60079  1.0000
  N   N307      1.0  0.95211  0.82760  0.70493  1.0000
  C   C3701     1.0  0.86600  0.48627  0.62379  1.0000
  H   H3698     1.0  0.97922  0.75643  0.81617  1.0000
  C   C3702     1.0  0.81690  0.73463  0.96024  1.0000
  H   H3699     1.0  0.83738  0.64454  0.69211  1.0000
  H   H3700     1.0  0.81315  0.90153  0.70416  1.0000
  H   H3701     1.0  0.82953  0.62771  0.68124  1.0000
  C   C3703     1.0  0.96077  0.84720  0.68257  1.0000
  H   H3702     1.0  0.96119  0.65221  0.60424  1.0000
  H   H3703     1.0  0.79464  0.78151  0.60182  1.0000
  C   C3704     1.0  0.84685  0.48745  0.60932  1.0000
  H   H3704     1.0  0.98621  0.52407  0.49765  1.0000
  H   H3705     1.0  0.80522  0.94964  0.75982  1.0000
  N   N308      1.0  0.79205  0.80391  0.60689  1.0000
  C   C3705     1.0  0.83969  0.67562  0.81465  1.0000
  H   H3706     1.0  0.85367  0.65258  0.82117  1.0000
  C   C3706     1.0  0.80288  0.69442  0.70474  1.0000
  H   H3707     1.0  0.84911  0.66075  0.90992  1.0000
  H   H3708     1.0  0.81014  0.73967  0.95114  1.0000
  H   H3709     1.0  0.94428  0.48638  0.51108  1.0000
  C   C3707     1.0  0.85093  0.62640  0.64430  1.0000
  H   H3710     1.0  0.93138  0.50241  0.51959  1.0000
  C   C3708     1.0  0.82692  0.71984  0.96067  1.0000
  S   S1245     1.0  0.98913  0.87075  0.71905  1.0000
  H   H3711     1.0  0.98103  0.57368  0.66542  1.0000
  C   C3709     1.0  0.80160  0.63776  0.79959  1.0000
  N   N309      1.0  0.93814  0.54837  0.58965  1.0000
  C   C3710     1.0  0.95211  0.54886  0.57893  1.0000
  C   C3711     1.0  0.93696  0.54879  0.60491  1.0000
  C   C3712     1.0  0.96529  0.55003  0.58335  1.0000
  C   C3713     1.0  0.94998  0.54976  0.60975  1.0000
  C   C3714     1.0  0.96418  0.55053  0.59886  1.0000
  C   C3715     1.0  0.92437  0.54704  0.58503  1.0000
  H   H3712     1.0  0.95319  0.54813  0.56693  1.0000
  H   H3713     1.0  0.92588  0.54841  0.61341  1.0000
  S   S1246     1.0  0.98741  0.50754  0.59010  1.0000
  H   H3714     1.0  0.94900  0.55011  0.62185  1.0000
  C   C3716     1.0  0.98342  0.67264  0.57372  1.0000
  H   H3715     1.0  0.92113  0.53565  0.59146  1.0000
  C   C3717     1.0  0.81681  0.69008  0.88998  1.0000
  H   H3716     1.0  0.92662  0.54744  0.57226  1.0000
  C   C3718     1.0  0.91939  0.59238  0.66769  1.0000
  C   C3719     1.0  0.95994  0.56695  0.66567  1.0000
  S   S1247     1.0  0.81879  0.62938  0.78726  1.0000
  C   C3720     1.0  0.95836  0.70885  0.57762  1.0000
  C   C3721     1.0  0.83773  0.63082  0.67024  1.0000
  H   H3717     1.0  0.96056  0.69022  0.82002  1.0000
  C   C3722     1.0  0.97178  0.68892  0.81169  1.0000
  C   C3723     1.0  0.97726  0.76775  0.58392  1.0000
  H   H3718     1.0  0.91537  0.58523  0.66200  1.0000
  C   C3724     1.0  0.83521  0.69275  0.86440  1.0000
  H   H3719     1.0  0.98845  0.66899  0.83843  1.0000
  H   H3720     1.0  0.85382  0.65308  0.68167  1.0000
  N   N310      1.0  0.81607  0.86234  0.71085  1.0000
  H   H3721     1.0  0.97041  0.73995  0.54016  1.0000
  C   C3725     1.0  0.94451  0.59746  0.66793  1.0000
  C   C3726     1.0  0.84023  0.62269  0.65841  1.0000
  N   N311      1.0  0.84031  0.65343  0.80477  1.0000
  C   C3727     1.0  0.82977  0.66255  0.79586  1.0000
  C   C3728     1.0  0.84509  0.65969  0.81430  1.0000
  C   C3729     1.0  0.82420  0.67852  0.79585  1.0000
  H   H3722     1.0  0.98093  0.77886  0.57917  1.0000
  H   H3723     1.0  0.96083  0.69584  0.79177  1.0000
  C   C3730     1.0  0.84616  0.63679  0.80425  1.0000
  H   H3724     1.0  0.82586  0.65752  0.78849  1.0000
  H   H3725     1.0  0.98847  0.80618  0.75984  1.0000
  H   H3726     1.0  0.98679  0.83380  0.70647  1.0000
  H   H3727     1.0  0.93756  0.74914  0.48885  1.0000
  H   H3728     1.0  0.83301  0.87648  0.70520  1.0000
  H   H3729     1.0  0.97429  0.55150  0.60245  1.0000
  C   C3731     1.0  0.92085  0.49819  0.55931  1.0000
  H   H3730     1.0  0.83124  0.84400  0.72329  1.0000
  C   C3732     1.0  0.80425  0.82643  0.61226  1.0000
  C   C3733     1.0  0.98374  0.75667  0.59591  1.0000
  C   C3734     1.0  0.94081  0.81764  0.71354  1.0000
  H   H3731     1.0  0.87985  0.74615  0.49347  1.0000
  H   H3732     1.0  0.84418  0.68069  0.82158  1.0000
  Fe  Fe624     1.0  0.98149  0.85321  0.74095  1.0000
  H   H3733     1.0  0.81736  0.51014  0.60861  1.0000
  C   C3735     1.0  0.83504  0.71324  0.97280  1.0000
  H   H3734     1.0  0.97371  0.68683  0.84024  1.0000
  C   C3736     1.0  0.96484  0.65919  0.59260  1.0000
  S   S1248     1.0  0.79601  0.68405  0.72377  1.0000
  C   C3737     1.0  0.98345  0.72319  0.50216  1.0000
  H   H3735     1.0  0.84261  0.70162  0.97344  1.0000
  H   H3736     1.0  0.82859  0.70510  0.86160  1.0000
  C   C3738     1.0  0.80791  0.80316  0.60257  1.0000
  C   C3739     1.0  0.79620  0.72273  0.73041  1.0000
  N   N312      1.0  0.97867  0.66414  0.58853  1.0000
  C   C3740     1.0  0.87299  0.74092  0.48903  1.0000
  C   C3741     1.0  0.98775  0.48917  0.49692  1.0000
  C   C3742     1.0  0.93254  0.50437  0.48206  1.0000
  H   H3737     1.0  0.90863  0.49495  0.51716  1.0000
  H   H3738     1.0  0.88989  0.49937  0.50019  1.0000
  H   H3739     1.0  0.97932  0.73143  0.62548  1.0000
  H   H3740     1.0  0.79196  0.65423  0.78065  1.0000
  H   H3741     1.0  0.95777  0.49254  0.60419  1.0000
  C   C3743     1.0  0.90467  0.71211  0.48378  1.0000
  H   H3742     1.0  0.97315  0.81692  0.77292  1.0000
  C   C3744     1.0  0.79761  0.97477  0.73879  1.0000
  H   H3743     1.0  0.96583  0.49201  0.55388  1.0000
  H   H3744     1.0  0.98938  0.72549  0.55693  1.0000
