data_image0
_chemical_formula_structural       S2CH2SH3SH3SCH3FeSC2HC2HCSC2HS2C3H4CHCNFeCNHC3H2C2H2CFeCHCH2SHC2HCFeC4H2CHNHC4SHFeCFeCHS2C4SCFeH2SCH3CNC6H3CH2NH2NH5SCHCHCFeCH2SHFeHS3C2SFeS2FeSCHSCFeS3FeSFeS2FeS2FeS2FeSFeS3FeSCFeS2FeSFeS3FeSFeS3CHCHC2H4NH5CHCNSCHC6H4C6H4C6H4C6H4C6H4C6H4CHNHCHC2NSC6H4CH2FeC2FeC3H3CSCFeH2CH2CNHCFeH2C3FeHSHC2H2C2HCSCHFeCH2C3H4CH2C2NH3C2HCHCH2NCFeHSN2H3C2HCHCH3C2H5C2HC2HCNCHC2HC2HCH3SCHC3SC3HC2H2NH2CHCHSH2CSHCH2CH2CHC2H4C4HC2H2NH3CH2CHCHC2H4CH4CH4C3SCHCNH2C4FeSHFeS2FeSFeHS2FeS2FeS2FeSFeS3CSHSFeCSFeS2C2HC2H2C6H4C6H5NHC6H4C2H6C6H5CH3SHSHC6SHNCH2C5H2CH3NC6H2NH4NHC3HC2SCH2CHSHNCH2CHFeCHC3HCHC2H2FeCH2CH3CHCH2C2H2CSH2C2HC2HFeCSHNHC3HCHFeNC3SCH2FeH2CHNH5C2SCHFeCFeC2H2CHCSCH2CS2HC2HNCHSC3H2C2HC3Fe2H2CH2SCHC2NC2SH2FeH3FeS2FeS2FeSFeS3FeS2FeSFeSFeS3HSHS2HFeS2NHCFeSC2S3H2FeHSFeS2Fe2S4H2C8H4CHCHCHC3H2C6H4C6H4C6H4C6H6C2H3CNH3CHC7H3C3HCHNCH2SCHC4SHCH3FeHNHCSNC2HC3H3CH4C5SNHS2CFeCHC4HCH4CH4C2NH4C3HNC6SH4Fe2CNC6H4FeH4CHCH3SC2HC2H4CHC3SH3C2HCS2HNCFeH4C2HCHCH4SHSHC3SFeSFeS2FeSFeHS2FeS2FeS2FeSFeS3FeS2FeS2FeSFeS5FeSFeS2FeSHC2FeCFeS3C2H2NHCNH2CHFeS2FeS2FeSFeS4C6H4C6H3CFeNCH5CHC5H2C6H4C6H4C2HCH2C7H4C6H4C4HC6H4C6H7SFeNC2FeC4FeHSH2SC2HSHC3H2FeH3C3H2C2H2SH5SC3HC2H2CH3NH2SHCHNCH2SC3HCH5CHC3HCH2SH3C5HNCHCHCNH3CHNHCH2CH2C2HC2H3CFeHCHCSC2FeCH2NSHC2SHNSHCHCHCH3SHCH4C2NCH3C4H4SC2HFeHFeHC2HCH2SCH2CHSH4CHC2HC2HSC2H3C2H2FeSCFeS2FeSFeS4HFeS2C6H4C7H3CHC3H2C4H4C2SHSFeHCHCHCHCNCH2CHCH3CHNCH4CFeHSH5C2H4CHCSFeHFeS4FeS2FeSFeSFeS3FeS2FeS2FeSFeS3FeS2FeS2FeSFeS3CSHCS2FeSFeCHC2FeCFeHSHSHC2FeSFeS2FeSFeHS2CFeS2FeS2CFeCS2HCHC3HSHCNHCHC6H4NC6H5C3FeSNSFeH2C3HC2HCHC6H4C7SH2C6H3C6H4CHCH2CHC2HC6H5SH2C6H5C4FeH3C7H4C3H2CFeH4C2HCH3CH2FeHNH3CHCHC2H2N2C6H12C4H2C2FeCHNHC3H3S2H2NC6H8NC6H8CH4CH3C2HSCHC2HSHCHNCHFeCHCH3CHNC2H2CSCHC2HC6H3FeSNH3SC2HCHC5SH3C2HSC2HNH2SCS2H3C5SH4CHCH2CNC2HC2H5C3H4SCSH2CH3NCH2SCH2NCHS2FeSHFeS2FeCFeS3FeS2FeS2Fe2S3CHSCNH2FeH2CHFeH3CFeCH3CH2CH3C6H4C4FeCHCH2SHCH3CSHC6H4CH2C7H3C2HC2H3NC6H8CH4CS2HCSHCHC4SNH2C7HCH2CNSFeH2CNCSHCH4CSCSHC2HSCSCFeH3N2CH3CFeH2SHCH2SC3HC2H5CHC3H4FeS2FeS2FeCFeHS2HCHCHSHFeS2FeS2FeSCS3CHCHSHC3NHCSCHSCSC3HC2HCHC2HSHNHC7HCH4C6H4C2HC4HC8H4NC2H2C6SH4NC3H2CH2C2HNHCH3C4HCH3CSH2CFeHC2HNH3C4SC2H3C2FeCHNH4CHC2SHCHCH4NHCHC2HCH4C3FeCHC2H2FeCHCSH2C3H2CHCHCHFeSCFeS2FeS2FeSFeS3FeS2FeSFeSFeS3FeS2FeS2FeSFeS3FeS2FeSCFeSFeS3FeCSFeHSFeH2S2H2CH3C2SH4SFeCSHCHC4HC2NFeH2C3HC2HC2HC6H4C6H5C2H2C6H4C6H4C6H4C6H4C6H4C6H4C5H2CH2CHCHC5H4CHC2NHFeNC6H3CH4FeNH2CH2SHC2NSCHSH2CHSFeHC3HNSHNH4CHCNC6H8SHS2HSC2HCHCNCSCHCFeSC4HC3H2NH3C2H2C2HC2HNHCSHC3HSCH2CHCHCHC3H3NHCH3CH4CHSHSFeH2SHSH3C2HCH5C4FeCHCHCH6NHC3HCFeS2FeS2FeSFeS3FeS2FeS2FeSFeS3HSHFeS2CSCFeS2FeSCFeSCFeSFeS2FeS5HCHNFeSCHSCHS2H2FeH3CHCH2C2H4C2SHCHFeC6H3SC6H5CH2C3SC2HC6H4C6H4C6H4C6H4C6H4SCHC4H3CH3CHCH2CH2FeCSFeCFeCHCH2SCSFeSHCHCHNCS2HCHCHNC5HNH4NCHCNCHCHC2H2CHCFeCH3CHCH2CH2CHCHNCHC2HCNC2HCHC3H4NC6H8NCH3CHNHFeCHSC2HFeHCH3SH2CH2NC3HCH2CHC2HC2H3C2HCSH3SH2SCH3CH2CNCHNH2CH2C2SHCS2CH3NC7H3C2SHCH6FeHC5HC6HCNH4C2HCFeC2HCSC2H2SC3NFeCFeHCH2CHC2SCH2C6HSFeSHFeS2FeHFeS3FeS2FeS2FeSFeS3FeSFeS2FeS2Fe2S3FeS2FeS2FeSFeS3H2CH4C4H2C3HC2H4C6H4C3H2CHCHC4H2C6H4C2H4C9H4C6H4C6H4CHCHCH4SCSH2CH2CH3CSHCHC2H2CHSH3CH2NC6H8C7H2NHC2NHC4HNC2HNCH2SCH3CNC6H4CH3NC2H2CH2CH3SCNC3HNC6HNCHCNFeH2SH2C3H2CHC6H3CHCH5CHCHCH2CH2CH2CHFeS2CHSFeS2FeS2FeHFeS3FeS2FeS2FeSFeS3CHFeS3FeSFeC5H2C6H4C6H4C9H4SCHCHCHC6H4C3HC2HN2HSHC2HCSCHCHCH5CHCHSH2NC6H8CFe2CSCS2CNH3FeCHFeH3CH2C3HCH3CHCHNCHCH2C2SCH3CH3SCFeHCHC2SH3CSFeSCHCNH3S2H2C2HC2H2CH2SC2H2C2H2FeC4H3S2Fe2S2CHCHFeHSH2CSCSC2HC3H2C4FeH2C4HCH2CH2C3NH2C2HC2H5NCH3CSHFeNC2HCHCHCSNH2SC4H2NFeS2FeSHSHS3FeSFeS2H2CFeS2FeHCSFe2S2FeS2FeSFeS3FeS2FeS2FeSFeS3FeS2FeS2FeSFeCS2H5S2CSH3C6H2CHC6H6CH2CFeH2C6H4C6H4C6H4C6H5C2H2C6H7C2SH2C6H9C3HCSHCSC2HCHNC4H3SFeNC6H8C2NC2H5NSCFeHFeHCHCHNC2NC6H8NC6H2SH3C2H3C2FeHSC4HC2HS2Fe2CHC3NCH2C3H2SCH2CH5CFeSHC2HCHCSC4SCNHNCHCH6CHSCH2CHFeH3CNCH3SH3NSCSCFeHC2H2FeH6CH2C3SH2CHSHSHCSFeS2FeS2Fe2S3FeSCFeS2FeSHSHCFeS2FeS2FeSFeS3HCH2SHSCFeHCHFeS2FeS2FeSFeS3FeS2FeSFeSFeS4FeHFeS3CSCFeC5H2C6H5C2HC3H3C6H4C2H2C4H2C7H4C2SC3H4C6H6SC6H4C2SNH2SFeH2C6H4C6H4C6FeCH2C2H2CHNH2SH7NC6H8C2SHSFeC2HFeC2H2FeCHCHC2HFeCHFeHCNC2HCSCHC2FeCH2CNC6H7CHC2H2SCH2C2NCHC2H5C3NHCHCHC3H2NHNC2H2C2HSH3CH6CFeH2CNHCH3CHC2SC3SH2CHC5SCH4NHC3SHCFeCHC3H2CH3CSCH2CH3C2H2NCHSCHCH2CH4CNH2CNC2HCHC3H2CHNH3CHCH2SHC2H3CHSHC7H2SHCSCHCSCSCHC2NCFeS2FeSHFeSFeS4FeSFeS2FeSFeS3FeS2HSCH4C2H2CNCS2H2CHC3HCSCH2CHC6H6C2H2C7H4C6H4C4H2CH4C2HCH2CHCHCH2SNH3C3HFeH5SH2CHCHCH2CHN2C6H9C2H2C3HCHC3H2C2FeSH2FeH3C2H2CH3SNCFeS2FeS2FeSFeS2FeSCFeS2FeSFeS3FeCSH2C2H4FeCNCHC2H2CHCH2C5FeCH4CSC3H3C7H4C6H4Fe2CH5CHCSCSC2H8CH3CSH4SHCNC3HCSHCHFeCH3CHNC3H5CH2CH4C3H2SC3HCHCHC2SCSNSCHCHCNH2C2HC3SCHCH6CSC2SCHCHFeSNC5HCNH3CHC3HCH2C2HCH3NHC3H3SC2H2CH2C2SH2C2HCSCFeH3FeHSFeCSNH2S2C3HCSC2H2FeSCHSCH4SHFeS2FeS2FeSFeS3FeSCFeS2FeSFeS3FeS2FeS2CFeS3FeS2FeS2FeSFeS3C2SH2SCH3FeSHC6H4C6H4C6H4CHCH2C6H4C6H4C6H4C6H4C3HC7H6C3HCHCSH3FeC7H4C3HSHCNH3C2N2CFeH2CHNC6H9FeHCHC4HC2HSC2NC2H2CH2CFeH3C2H3C2HCHC2NCHSNC6H8NC2SH2SC4H5FeCHSH6CH2CH2CSFeHNCHC4H3C2NSH2CSCNH2CHC2H2CHCSCSFeNC5H2CHSC3H3C2HFeHNHCH2CSH3CH2CSC4
_chemical_formula_sum              "S768 C2304 H2304 Fe384 N192"
_cell_length_a       79.7321
_cell_length_b       79.7375
_cell_length_c       79.8524
_cell_angle_alpha    74.3441
_cell_angle_beta     74.3408
_cell_angle_gamma    74.3586

_space_group_name_H-M_alt    "P 1"
_space_group_IT_number       1

loop_
  _space_group_symop_operation_xyz
  'x, y, z'

loop_
  _atom_site_type_symbol
  _atom_site_label
  _atom_site_symmetry_multiplicity
  _atom_site_fract_x
  _atom_site_fract_y
  _atom_site_fract_z
  _atom_site_occupancy
  S   S1        1.0  0.06397  0.01375  0.36310  1.0000
  S   S2        1.0  0.19571  0.00070  0.38146  1.0000
  C   C1        1.0  0.20399  0.00559  0.45770  1.0000
  H   H1        1.0  0.06049  0.32242  0.02751  1.0000
  H   H2        1.0  0.15095  0.02276  0.26378  1.0000
  S   S3        1.0  0.14901  0.02392  0.32314  1.0000
  H   H3        1.0  0.16737  0.01528  0.48990  1.0000
  H   H4        1.0  0.06522  0.15268  0.47309  1.0000
  H   H5        1.0  0.02124  0.08297  0.32890  1.0000
  S   S4        1.0  0.10257  0.01771  0.31861  1.0000
  H   H6        1.0  0.20956  0.99697  0.44828  1.0000
  H   H7        1.0  0.20402  0.06483  0.43963  1.0000
  H   H8        1.0  0.14079  0.00592  0.28035  1.0000
  S   S5        1.0  0.21851  0.04471  0.47103  1.0000
  C   C2        1.0  0.01926  0.04689  0.33488  1.0000
  H   H9        1.0  0.19381  0.02950  0.35138  1.0000
  H   H10       1.0  0.07520  0.30671  0.99376  1.0000
  H   H11       1.0  0.22652  0.01824  0.45002  1.0000
  Fe  Fe1       1.0  0.09003  0.00353  0.34555  1.0000
  S   S6        1.0  0.02480  0.29480  0.06992  1.0000
  C   C3        1.0  0.03434  0.30695  0.01989  1.0000
  C   C4        1.0  0.07821  0.19340  0.46386  1.0000
  H   H12       1.0  0.00487  0.05094  0.36092  1.0000
  C   C5        1.0  0.02473  0.99823  0.34949  1.0000
  C   C6        1.0  0.05300  0.15975  0.48024  1.0000
  H   H13       1.0  0.02709  0.30785  0.03333  1.0000
  C   C7        1.0  0.05330  0.21044  0.48140  1.0000
  S   S7        1.0  0.17900  0.13059  0.46769  1.0000
  C   C8        1.0  0.00177  0.27642  0.09561  1.0000
  C   C9        1.0  0.03708  0.16287  0.47443  1.0000
  H   H14       1.0  0.17330  0.16830  0.46293  1.0000
  S   S8        1.0  0.00773  0.09926  0.42480  1.0000
  S   S9        1.0  0.00653  0.12365  0.46245  1.0000
  C   C10       1.0  0.01552  0.28554  0.09200  1.0000
  C   C11       1.0  0.02120  0.28801  0.10611  1.0000
  C   C12       1.0  0.01277  0.28192  0.12375  1.0000
  H   H15       1.0  0.17059  0.99864  0.30212  1.0000
  H   H16       1.0  0.06223  0.02377  0.32570  1.0000
  H   H17       1.0  0.03218  0.29457  0.10343  1.0000
  H   H18       1.0  0.00124  0.11001  0.37184  1.0000
  C   C13       1.0  0.16328  0.14552  0.47977  1.0000
  H   H19       1.0  0.15185  0.18981  0.47994  1.0000
  C   C14       1.0  0.02136  0.17205  0.48377  1.0000
  N   N1        1.0  0.99914  0.00644  0.37209  1.0000
  Fe  Fe2       1.0  0.00146  0.12383  0.43608  1.0000
  C   C15       1.0  0.20650  0.02901  0.47084  1.0000
  N   N2        1.0  0.16903  0.00041  0.27540  1.0000
  H   H20       1.0  0.03749  0.04124  0.31070  1.0000
  C   C16       1.0  0.18027  0.01591  0.48115  1.0000
  C   C17       1.0  0.04741  0.02738  0.35182  1.0000
  C   C18       1.0  0.03121  0.03522  0.36166  1.0000
  H   H21       1.0  0.08331  0.18641  0.45299  1.0000
  H   H22       1.0  0.03618  0.07462  0.35259  1.0000
  C   C19       1.0  0.03571  0.03963  0.32493  1.0000
  C   C20       1.0  0.04975  0.02979  0.33339  1.0000
  H   H23       1.0  0.14985  0.02106  0.28684  1.0000
  H   H24       1.0  0.18300  0.07794  0.43426  1.0000
  C   C21       1.0  0.01719  0.04495  0.35321  1.0000
  Fe  Fe3       1.0  0.20595  0.06555  0.48793  1.0000
  C   C22       1.0  0.02565  0.08287  0.36114  1.0000
  H   H25       1.0  0.03235  0.09021  0.36649  1.0000
  C   C23       1.0  0.21358  0.01766  0.45872  1.0000
  H   H26       1.0  0.01726  0.28389  0.13456  1.0000
  H   H27       1.0  0.07583  0.30150  0.02504  1.0000
  S   S10       1.0  0.05653  0.32761  0.06555  1.0000
  H   H28       1.0  0.05154  0.20155  0.45884  1.0000
  C   C24       1.0  0.06023  0.20204  0.46701  1.0000
  C   C25       1.0  0.16209  0.01675  0.33933  1.0000
  H   H29       1.0  0.11250  0.18082  0.45808  1.0000
  C   C26       1.0  0.00072  0.10852  0.35890  1.0000
  Fe  Fe4       1.0  0.02982  0.32124  0.06945  1.0000
  C   C27       1.0  0.18454  0.02159  0.35178  1.0000
  C   C28       1.0  0.17421  0.02675  0.33885  1.0000
  C   C29       1.0  0.15183  0.01315  0.27665  1.0000
  C   C30       1.0  0.06123  0.30606  0.99790  1.0000
  H   H30       1.0  0.17549  0.03865  0.32856  1.0000
  H   H31       1.0  0.15996  0.02291  0.44033  1.0000
  C   C31       1.0  0.18273  0.00646  0.36536  1.0000
  H   H32       1.0  0.02940  0.03353  0.37590  1.0000
  N   N3        1.0  0.08903  0.19342  0.47457  1.0000
  H   H33       1.0  0.18224  0.01362  0.41423  1.0000
  C   C32       1.0  0.10770  0.18385  0.47157  1.0000
  C   C33       1.0  0.06152  0.30814  0.02791  1.0000
  C   C34       1.0  0.16350  0.16367  0.47438  1.0000
  C   C35       1.0  0.16061  0.00126  0.35264  1.0000
  S   S11       1.0  0.21649  0.09061  0.48218  1.0000
  H   H34       1.0  0.11645  0.19199  0.47287  1.0000
  Fe  Fe5       1.0  0.01294  0.15059  0.44951  1.0000
  C   C36       1.0  0.15137  0.17582  0.48401  1.0000
  Fe  Fe6       1.0  0.12794  0.00831  0.32869  1.0000
  C   C37       1.0  0.17084  0.99618  0.36576  1.0000
  H   H35       1.0  0.09722  0.00824  0.40345  1.0000
  S   S12       1.0  0.01042  0.14940  0.42223  1.0000
  S   S13       1.0  0.03759  0.15507  0.45550  1.0000
  C   C38       1.0  0.18977  0.02811  0.48204  1.0000
  C   C39       1.0  0.06439  0.21023  0.49234  1.0000
  C   C40       1.0  0.01195  0.09349  0.33495  1.0000
  C   C41       1.0  0.01450  0.00567  0.33656  1.0000
  S   S14       1.0  0.17746  0.07988  0.48888  1.0000
  C   C42       1.0  0.18727  0.00465  0.46894  1.0000
  Fe  Fe7       1.0  0.18764  0.10441  0.48544  1.0000
  H   H36       1.0  0.03921  0.21650  0.48450  1.0000
  H   H37       1.0  0.00919  0.32038  0.15384  1.0000
  S   S15       1.0  0.00148  0.05810  0.32417  1.0000
  C   C43       1.0  0.00005  0.32724  0.14504  1.0000
  H   H38       1.0  0.13117  0.00023  0.39293  1.0000
  H   H39       1.0  0.21175  0.05137  0.41399  1.0000
  H   H40       1.0  0.05569  0.30159  0.04165  1.0000
  C   C44       1.0  0.02509  0.30622  0.00759  1.0000
  N   N4        1.0  0.18786  0.05048  0.43398  1.0000
  C   C45       1.0  0.20023  0.04534  0.41966  1.0000
  C   C46       1.0  0.17333  0.04285  0.44114  1.0000
  C   C47       1.0  0.19836  0.03204  0.41231  1.0000
  C   C48       1.0  0.17108  0.02949  0.43415  1.0000
  C   C49       1.0  0.18369  0.02409  0.41966  1.0000
  C   C50       1.0  0.18974  0.06482  0.44115  1.0000
  H   H41       1.0  0.18391  0.06296  0.45568  1.0000
  H   H42       1.0  0.16368  0.04668  0.45267  1.0000
  H   H43       1.0  0.20823  0.02775  0.40109  1.0000
  C   C51       1.0  0.08233  0.20161  0.48871  1.0000
  H   H44       1.0  0.01875  0.07380  0.37244  1.0000
  H   H45       1.0  0.10931  0.17112  0.48162  1.0000
  N   N5        1.0  0.01265  0.09538  0.35127  1.0000
  H   H46       1.0  0.00057  0.00173  0.39953  1.0000
  H   H47       1.0  0.01090  0.30647  0.01154  1.0000
  N   N6        1.0  0.05223  0.30665  0.01502  1.0000
  H   H48       1.0  0.00902  0.17461  0.47938  1.0000
  H   H49       1.0  0.17038  0.99897  0.24872  1.0000
  H   H50       1.0  0.06980  0.00202  0.39979  1.0000
  H   H51       1.0  0.03626  0.11900  0.48566  1.0000
  H   H52       1.0  0.02063  0.00598  0.32262  1.0000
  S   S16       1.0  0.11484  0.99671  0.35625  1.0000
  C   C52       1.0  0.01681  0.99878  0.36731  1.0000
  H   H53       1.0  0.18417  0.03674  0.49145  1.0000
  C   C53       1.0  0.99913  0.10504  0.32580  1.0000
  H   H54       1.0  0.99851  0.10333  0.31296  1.0000
  C   C54       1.0  0.06376  0.00634  0.62946  1.0000
  Fe  Fe8       1.0  0.24506  0.19674  0.56885  1.0000
  C   C55       1.0  0.16508  0.02165  0.71918  1.0000
  H   H55       1.0  0.17585  0.15109  0.53494  1.0000
  H   H56       1.0  0.07276  0.15849  0.62704  1.0000
  S   S17       1.0  0.22352  0.21928  0.57747  1.0000
  H   H57       1.0  0.06923  0.11577  0.52150  1.0000
  Fe  Fe9       1.0  0.17629  0.07691  0.51789  1.0000
  H   H58       1.0  0.06567  0.10879  0.49437  1.0000
  S   S18       1.0  0.15183  0.07114  0.53827  1.0000
  S   S19       1.0  0.20412  0.06080  0.51738  1.0000
  S   S20       1.0  0.18359  0.10300  0.51447  1.0000
  C   C56       1.0  0.03781  0.12150  0.49782  1.0000
  C   C57       1.0  0.16218  0.13523  0.67617  1.0000
  S   S21       1.0  0.12335  0.18577  0.51012  1.0000
  Fe  Fe10      1.0  0.19479  0.11350  0.73025  1.0000
  S   S22       1.0  0.19732  0.11725  0.70107  1.0000
  S   S23       1.0  0.16976  0.12526  0.74792  1.0000
  Fe  Fe11      1.0  0.21049  0.08838  0.70467  1.0000
  S   S24       1.0  0.20471  0.07234  0.68796  1.0000
  C   C58       1.0  0.16033  0.28619  0.90942  1.0000
  H   H59       1.0  0.13845  0.10973  0.53651  1.0000
  S   S25       1.0  0.20613  0.08401  0.73444  1.0000
  C   C59       1.0  0.12212  0.31282  0.86521  1.0000
  Fe  Fe12      1.0  0.13688  0.03638  0.63627  1.0000
  S   S26       1.0  0.12750  0.06134  0.64687  1.0000
  S   S27       1.0  0.16228  0.03260  0.61583  1.0000
  S   S28       1.0  0.09583  0.04208  0.67440  1.0000
  Fe  Fe13      1.0  0.10023  0.05873  0.64682  1.0000
  S   S29       1.0  0.07841  0.08233  0.64056  1.0000
  Fe  Fe14      1.0  0.12417  0.04282  0.67353  1.0000
  S   S30       1.0  0.13158  0.05049  0.69567  1.0000
  S   S31       1.0  0.10995  0.03577  0.63311  1.0000
  Fe  Fe15      1.0  0.15715  0.20350  0.66270  1.0000
  S   S32       1.0  0.13615  0.19046  0.66138  1.0000
  S   S33       1.0  0.18549  0.18927  0.65572  1.0000
  Fe  Fe16      1.0  0.13090  0.23506  0.67581  1.0000
  S   S34       1.0  0.10723  0.22541  0.67450  1.0000
  S   S35       1.0  0.12935  0.26026  0.68486  1.0000
  Fe  Fe17      1.0  0.12208  0.19877  0.68714  1.0000
  S   S36       1.0  0.10988  0.18112  0.71172  1.0000
  Fe  Fe18      1.0  0.12329  0.21787  0.64851  1.0000
  S   S37       1.0  0.11844  0.22197  0.62067  1.0000
  S   S38       1.0  0.14458  0.20884  0.68984  1.0000
  S   S39       1.0  0.14541  0.23052  0.64852  1.0000
  Fe  Fe19      1.0  0.10074  0.17591  0.53047  1.0000
  S   S40       1.0  0.08650  0.15852  0.52427  1.0000
  C   C60       1.0  0.13706  0.11325  0.54945  1.0000
  Fe  Fe20      1.0  0.07726  0.17771  0.56689  1.0000
  S   S41       1.0  0.06017  0.16082  0.56364  1.0000
  S   S42       1.0  0.07190  0.18459  0.59405  1.0000
  Fe  Fe21      1.0  0.08598  0.14409  0.55250  1.0000
  S   S43       1.0  0.09069  0.11440  0.55810  1.0000
  Fe  Fe22      1.0  0.06162  0.17643  0.53550  1.0000
  S   S44       1.0  0.03748  0.18338  0.52298  1.0000
  S   S45       1.0  0.10310  0.15948  0.55767  1.0000
  S   S46       1.0  0.07587  0.19541  0.53974  1.0000
  Fe  Fe23      1.0  0.15093  0.28687  0.76338  1.0000
  S   S47       1.0  0.15061  0.26118  0.75607  1.0000
  Fe  Fe24      1.0  0.17227  0.30604  0.77606  1.0000
  S   S48       1.0  0.19659  0.30735  0.78460  1.0000
  S   S49       1.0  0.15343  0.28786  0.79074  1.0000
  S   S50       1.0  0.17204  0.30269  0.74901  1.0000
  C   C61       1.0  0.17324  0.13794  0.54149  1.0000
  H   H60       1.0  0.18516  0.31230  0.93924  1.0000
  C   C62       1.0  0.15694  0.23423  0.59371  1.0000
  H   H61       1.0  0.17430  0.21892  0.71050  1.0000
  C   C63       1.0  0.17878  0.31378  0.92835  1.0000
  C   C64       1.0  0.17080  0.32571  0.82963  1.0000
  H   H62       1.0  0.14556  0.29407  0.85583  1.0000
  H   H63       1.0  0.13948  0.29938  0.82573  1.0000
  H   H64       1.0  0.14706  0.01005  0.55596  1.0000
  H   H65       1.0  0.01914  0.02823  0.64015  1.0000
  N   N7        1.0  0.09312  0.11750  0.64634  1.0000
  H   H66       1.0  0.20054  0.14998  0.65708  1.0000
  H   H67       1.0  0.23008  0.09898  0.77614  1.0000
  H   H68       1.0  0.20444  0.27124  0.81501  1.0000
  H   H69       1.0  0.19928  0.12725  0.54764  1.0000
  H   H70       1.0  0.20166  0.29340  0.86801  1.0000
  C   C65       1.0  0.04550  0.02949  0.66612  1.0000
  H   H71       1.0  0.08226  0.01855  0.63481  1.0000
  C   C66       1.0  0.23291  0.11271  0.52746  1.0000
  N   N8        1.0  0.16803  0.21630  0.59353  1.0000
  S   S51       1.0  0.23817  0.09338  0.69994  1.0000
  C   C67       1.0  0.17400  0.29927  0.92555  1.0000
  H   H72       1.0  0.17651  0.28647  0.93463  1.0000
  C   C68       1.0  0.13664  0.26017  0.70404  1.0000
  C   C69       1.0  0.13658  0.27646  0.70773  1.0000
  C   C70       1.0  0.14132  0.27697  0.72335  1.0000
  C   C71       1.0  0.14609  0.26115  0.73551  1.0000
  C   C72       1.0  0.14625  0.24484  0.73178  1.0000
  C   C73       1.0  0.14153  0.24435  0.71616  1.0000
  H   H73       1.0  0.13273  0.28879  0.69852  1.0000
  H   H74       1.0  0.14104  0.28963  0.72609  1.0000
  H   H75       1.0  0.14971  0.23257  0.74121  1.0000
  H   H76       1.0  0.14115  0.23178  0.71377  1.0000
  C   C74       1.0  0.10636  0.21018  0.61383  1.0000
  C   C75       1.0  0.09284  0.20224  0.62574  1.0000
  C   C76       1.0  0.08247  0.19444  0.61946  1.0000
  C   C77       1.0  0.08580  0.19402  0.60133  1.0000
  C   C78       1.0  0.09972  0.20142  0.58952  1.0000
  C   C79       1.0  0.10978  0.20966  0.59571  1.0000
  H   H77       1.0  0.08988  0.20277  0.63965  1.0000
  H   H78       1.0  0.07154  0.18909  0.62869  1.0000
  H   H79       1.0  0.10235  0.20133  0.57552  1.0000
  H   H80       1.0  0.12007  0.21590  0.58635  1.0000
  C   C80       1.0  0.08059  0.09086  0.61764  1.0000
  C   C81       1.0  0.08900  0.07982  0.60552  1.0000
  C   C82       1.0  0.09134  0.08705  0.58720  1.0000
  C   C83       1.0  0.08605  0.10540  0.58099  1.0000
  C   C84       1.0  0.07743  0.11640  0.59313  1.0000
  C   C85       1.0  0.07425  0.10904  0.61143  1.0000
  H   H81       1.0  0.09350  0.06572  0.61018  1.0000
  H   H82       1.0  0.09742  0.07847  0.57781  1.0000
  H   H83       1.0  0.07320  0.13056  0.58849  1.0000
  H   H84       1.0  0.06741  0.11756  0.62078  1.0000
  C   C86       1.0  0.18329  0.06902  0.68901  1.0000
  C   C87       1.0  0.16899  0.07221  0.70324  1.0000
  C   C88       1.0  0.15290  0.06719  0.70472  1.0000
  C   C89       1.0  0.15084  0.05927  0.69185  1.0000
  C   C90       1.0  0.16478  0.05711  0.67707  1.0000
  C   C91       1.0  0.18096  0.06183  0.67575  1.0000
  H   H85       1.0  0.17053  0.07790  0.71346  1.0000
  H   H86       1.0  0.14216  0.06899  0.71617  1.0000
  H   H87       1.0  0.09422  0.27056  0.72149  1.0000
  H   H88       1.0  0.19193  0.05934  0.66465  1.0000
  C   C92       1.0  0.15326  0.14032  0.73728  1.0000
  C   C93       1.0  0.13576  0.14399  0.74708  1.0000
  C   C94       1.0  0.12240  0.15626  0.73909  1.0000
  C   C95       1.0  0.12657  0.16530  0.72139  1.0000
  C   C96       1.0  0.14411  0.16184  0.71161  1.0000
  C   C97       1.0  0.15739  0.14917  0.71946  1.0000
  H   H89       1.0  0.13248  0.13721  0.76086  1.0000
  H   H90       1.0  0.10886  0.15889  0.74671  1.0000
  H   H91       1.0  0.14738  0.16890  0.69799  1.0000
  H   H92       1.0  0.17086  0.14660  0.71186  1.0000
  C   C98       1.0  0.15523  0.06115  0.55979  1.0000
  C   C99       1.0  0.14054  0.06163  0.57407  1.0000
  C   C100      1.0  0.14273  0.05351  0.59144  1.0000
  C   C101      1.0  0.15965  0.04459  0.59452  1.0000
  C   C102      1.0  0.17442  0.04429  0.58027  1.0000
  C   C103      1.0  0.17223  0.05272  0.56292  1.0000
  H   H93       1.0  0.12745  0.06827  0.57163  1.0000
  H   H94       1.0  0.13130  0.05398  0.60236  1.0000
  H   H95       1.0  0.18753  0.03737  0.58262  1.0000
  H   H96       1.0  0.18364  0.05226  0.55199  1.0000
  C   C104      1.0  0.18508  0.11309  0.66275  1.0000
  H   H97       1.0  0.20203  0.19384  0.56675  1.0000
  N   N9        1.0  0.13803  0.01076  0.58342  1.0000
  H   H98       1.0  0.14684  0.14451  0.53660  1.0000
  C   C105      1.0  0.24382  0.14305  0.65788  1.0000
  H   H99       1.0  0.10226  0.09257  0.66333  1.0000
  C   C106      1.0  0.03480  0.04798  0.63467  1.0000
  C   C107      1.0  0.18303  0.10759  0.55646  1.0000
  N   N10       1.0  0.04221  0.12972  0.52786  1.0000
  S   S52       1.0  0.24126  0.16954  0.56995  1.0000
  C   C108      1.0  0.21369  0.21157  0.59968  1.0000
  C   C109      1.0  0.21874  0.19365  0.60772  1.0000
  C   C110      1.0  0.21008  0.18699  0.62501  1.0000
  C   C111      1.0  0.19654  0.19827  0.63444  1.0000
  C   C112      1.0  0.19180  0.21635  0.62663  1.0000
  C   C113      1.0  0.20030  0.22300  0.60918  1.0000
  H   H100      1.0  0.22909  0.18478  0.60053  1.0000
  H   H101      1.0  0.21364  0.17298  0.63091  1.0000
  H   H102      1.0  0.18179  0.22527  0.63406  1.0000
  H   H103      1.0  0.19648  0.23693  0.60305  1.0000
  C   C114      1.0  0.22750  0.12788  0.51486  1.0000
  H   H104      1.0  0.05008  0.02213  0.67821  1.0000
  H   H105      1.0  0.11376  0.01072  0.57699  1.0000
  Fe  Fe25      1.0  0.22434  0.12203  0.69862  1.0000
  C   C115      1.0  0.18345  0.17388  0.72402  1.0000
  C   C116      1.0  0.19502  0.21514  0.67904  1.0000
  Fe  Fe26      1.0  0.21165  0.08743  0.51185  1.0000
  C   C117      1.0  0.23237  0.14397  0.51365  1.0000
  C   C118      1.0  0.03422  0.30538  0.99016  1.0000
  C   C119      1.0  0.21934  0.27719  0.83088  1.0000
  H   H106      1.0  0.09345  0.11131  0.67390  1.0000
  H   H107      1.0  0.13358  0.10177  0.56022  1.0000
  H   H108      1.0  0.24776  0.26702  0.91977  1.0000
  C   C120      1.0  0.10666  0.12470  0.61522  1.0000
  S   S53       1.0  0.12741  0.30996  0.88602  1.0000
  C   C121      1.0  0.18638  0.12457  0.54857  1.0000
  Fe  Fe27      1.0  0.24215  0.32400  0.86801  1.0000
  H   H109      1.0  0.16340  0.05100  0.66707  1.0000
  H   H110      1.0  0.22872  0.15547  0.50343  1.0000
  C   C122      1.0  0.05436  0.11595  0.50260  1.0000
  H   H111      1.0  0.12566  0.12472  0.55095  1.0000
  H   H112      1.0  0.10663  0.20536  0.74464  1.0000
  C   C123      1.0  0.17546  0.18546  0.60791  1.0000
  N   N11       1.0  0.19132  0.03103  0.71920  1.0000
  H   H113      1.0  0.11616  0.12082  0.60363  1.0000
  C   C124      1.0  0.02823  0.03293  0.64491  1.0000
  Fe  Fe28      1.0  0.10707  0.01900  0.66065  1.0000
  H   H114      1.0  0.24673  0.27619  0.84390  1.0000
  H   H115      1.0  0.14891  0.13931  0.68396  1.0000
  C   C125      1.0  0.11372  0.99949  0.60467  1.0000
  C   C126      1.0  0.20245  0.28777  0.85682  1.0000
  C   C127      1.0  0.02341  0.13091  0.50837  1.0000
  Fe  Fe29      1.0  0.13233  0.31301  0.78805  1.0000
  H   H116      1.0  0.21313  0.02757  0.69711  1.0000
  S   S54       1.0  0.23179  0.14633  0.67903  1.0000
  H   H117      1.0  0.16346  0.31720  0.80963  1.0000
  C   C128      1.0  0.19976  0.02558  0.70360  1.0000
  C   C129      1.0  0.20198  0.32581  0.82504  1.0000
  H   H118      1.0  0.20602  0.21018  0.66841  1.0000
  H   H119      1.0  0.05854  0.13403  0.54291  1.0000
  C   C130      1.0  0.05227  0.04453  0.65624  1.0000
  C   C131      1.0  0.20385  0.27536  0.82710  1.0000
  H   H120      1.0  0.10606  0.27398  0.74487  1.0000
  C   C132      1.0  0.14564  0.01892  0.56509  1.0000
  S   S55       1.0  0.21693  0.31689  0.88599  1.0000
  C   C133      1.0  0.18877  0.18219  0.59300  1.0000
  H   H121      1.0  0.16677  0.19509  0.73674  1.0000
  Fe  Fe30      1.0  0.23259  0.09181  0.72946  1.0000
  C   C134      1.0  0.14027  0.99888  0.61398  1.0000
  H   H122      1.0  0.19727  0.16904  0.59297  1.0000
  H   H123      1.0  0.07146  0.13726  0.65619  1.0000
  C   C135      1.0  0.23471  0.28581  0.84902  1.0000
  C   C136      1.0  0.15686  0.13410  0.54238  1.0000
  C   C137      1.0  0.16648  0.10421  0.55713  1.0000
  H   H124      1.0  0.15252  0.23668  0.60745  1.0000
  H   H125      1.0  0.14483  0.23567  0.58863  1.0000
  H   H126      1.0  0.03070  0.05492  0.62226  1.0000
  H   H127      1.0  0.21280  0.04277  0.71856  1.0000
  C   C138      1.0  0.16507  0.20267  0.60789  1.0000
  H   H128      1.0  0.16854  0.27320  0.91482  1.0000
  H   H129      1.0  0.14612  0.28677  0.91631  1.0000
  C   C139      1.0  0.10662  0.32460  0.86097  1.0000
  C   C140      1.0  0.18746  0.27977  0.83853  1.0000
  N   N12       1.0  0.19653  0.12453  0.65707  1.0000
  H   H130      1.0  0.21892  0.31730  0.80145  1.0000
  H   H131      1.0  0.09196  0.25055  0.70377  1.0000
  H   H132      1.0  0.09082  0.20132  0.49741  1.0000
  C   C141      1.0  0.13858  0.16998  0.49875  1.0000
  C   C142      1.0  0.09661  0.25630  0.72687  1.0000
  H   H133      1.0  0.20094  0.15593  0.70766  1.0000
  C   C143      1.0  0.09887  0.22663  0.72323  1.0000
  H   H134      1.0  0.23397  0.28380  0.86352  1.0000
  C   C144      1.0  0.10245  0.26142  0.75353  1.0000
  H   H135      1.0  0.16438  0.24465  0.58551  1.0000
  H   H136      1.0  0.11296  0.25529  0.76145  1.0000
  N   N13       1.0  0.10154  0.24940  0.74291  1.0000
  C   C145      1.0  0.17395  0.14679  0.67030  1.0000
  Fe  Fe31      1.0  0.14921  0.32635  0.74938  1.0000
  H   H137      1.0  0.17398  0.29036  0.86194  1.0000
  S   S56       1.0  0.12799  0.31050  0.76219  1.0000
  N   N14       1.0  0.15367  0.11739  0.55010  1.0000
  N   N15       1.0  0.21851  0.28313  0.84570  1.0000
  H   H138      1.0  0.17340  0.17488  0.61959  1.0000
  H   H139      1.0  0.15484  0.20512  0.61957  1.0000
  H   H140      1.0  0.09541  0.15049  0.60072  1.0000
  C   C146      1.0  0.17428  0.02897  0.72710  1.0000
  C   C147      1.0  0.17594  0.19170  0.72477  1.0000
  H   H141      1.0  0.18014  0.16328  0.73537  1.0000
  C   C148      1.0  0.19144  0.19609  0.57826  1.0000
  H   H142      1.0  0.18948  0.09971  0.66023  1.0000
  C   C149      1.0  0.05631  0.12008  0.51785  1.0000
  H   H143      1.0  0.20417  0.02954  0.73981  1.0000
  H   H144      1.0  0.16418  0.09086  0.56278  1.0000
  H   H145      1.0  0.18334  0.22396  0.56739  1.0000
  C   C150      1.0  0.11490  0.31842  0.83121  1.0000
  C   C151      1.0  0.16776  0.11823  0.67241  1.0000
  H   H146      1.0  0.22774  0.09607  0.79978  1.0000
  H   H147      1.0  0.22282  0.11024  0.65827  1.0000
  H   H148      1.0  0.03644  0.14734  0.54553  1.0000
  H   H149      1.0  0.19177  0.05151  0.73135  1.0000
  H   H150      1.0  0.08941  0.26475  0.76269  1.0000
  C   C152      1.0  0.18021  0.20509  0.70989  1.0000
  C   C153      1.0  0.24241  0.11403  0.53937  1.0000
  H   H151      1.0  0.15893  0.10890  0.67731  1.0000
  C   C154      1.0  0.09188  0.10507  0.66370  1.0000
  C   C155      1.0  0.09492  0.14127  0.61354  1.0000
  H   H152      1.0  0.07872  0.10119  0.66784  1.0000
  C   C156      1.0  0.18086  0.21315  0.57874  1.0000
  N   N16       1.0  0.16622  0.30122  0.91161  1.0000
  C   C157      1.0  0.17422  0.31979  0.81372  1.0000
  H   H153      1.0  0.11431  0.09982  0.63284  1.0000
  C   C158      1.0  0.09528  0.24503  0.71676  1.0000
  C   C159      1.0  0.19508  0.16971  0.70849  1.0000
  H   H154      1.0  0.16991  0.15985  0.67351  1.0000
  C   C160      1.0  0.17349  0.01628  0.70317  1.0000
  C   C161      1.0  0.10375  0.21970  0.73965  1.0000
  H   H155      1.0  0.10877  0.22590  0.76218  1.0000
  C   C162      1.0  0.08220  0.14578  0.62836  1.0000
  H   H156      1.0  0.15126  0.02087  0.72497  1.0000
  H   H157      1.0  0.19342  0.09693  0.56139  1.0000
  H   H158      1.0  0.04022  0.12377  0.55578  1.0000
  S   S57       1.0  0.11028  0.32289  0.80988  1.0000
  C   C163      1.0  0.10493  0.23136  0.74943  1.0000
  H   H159      1.0  0.09795  0.21774  0.71550  1.0000
  C   C164      1.0  0.04691  0.05378  0.64040  1.0000
  C   C165      1.0  0.19098  0.01813  0.69536  1.0000
  C   C166      1.0  0.19896  0.18341  0.69384  1.0000
  S   S58       1.0  0.13512  0.01764  0.66296  1.0000
  C   C167      1.0  0.21495  0.11830  0.64814  1.0000
  C   C168      1.0  0.04442  0.13388  0.54383  1.0000
  C   C169      1.0  0.13377  0.30347  0.85255  1.0000
  H   H160      1.0  0.06083  0.01694  0.61822  1.0000
  C   C170      1.0  0.19124  0.14116  0.66085  1.0000
  C   C171      1.0  0.08150  0.13369  0.64476  1.0000
  H   H161      1.0  0.00948  0.18553  0.50562  1.0000
  H   H162      1.0  0.16125  0.28682  0.89513  1.0000
  N   N17       1.0  0.19152  0.20085  0.69467  1.0000
  H   H163      1.0  0.20779  0.17996  0.68173  1.0000
  H   H164      1.0  0.16621  0.01125  0.69657  1.0000
  C   C172      1.0  0.03757  0.17497  0.50452  1.0000
  H   H165      1.0  0.19876  0.22591  0.68272  1.0000
  C   C173      1.0  0.10553  0.11287  0.63181  1.0000
  H   H166      1.0  0.18289  0.22078  0.67334  1.0000
  S   S59       1.0  0.22064  0.12091  0.72770  1.0000
  H   H167      1.0  0.19747  0.01439  0.68269  1.0000
  H   H168      1.0  0.17528  0.27903  0.83538  1.0000
  C   C174      1.0  0.20049  0.03901  0.72769  1.0000
  S   S60       1.0  0.22899  0.09166  0.52818  1.0000
  H   H169      1.0  0.12789  0.14732  0.51509  1.0000
  C   C175      1.0  0.13032  0.30646  0.83549  1.0000
  H   H170      1.0  0.24529  0.08161  0.78717  1.0000
  H   H171      1.0  0.21557  0.10989  0.63885  1.0000
  C   C176      1.0  0.16292  0.31745  0.90031  1.0000
  H   H172      1.0  0.22131  0.12963  0.64024  1.0000
  H   H173      1.0  0.15683  0.31912  0.88921  1.0000
  C   C177      1.0  0.05321  0.16555  0.49532  1.0000
  H   H174      1.0  0.23853  0.17109  0.64607  1.0000
  C   C178      1.0  0.05241  0.30527  0.98526  1.0000
  C   C179      1.0  0.18673  0.28603  0.85348  1.0000
  H   H175      1.0  0.06178  0.04890  0.66069  1.0000
  H   H176      1.0  0.01060  0.13563  0.50451  1.0000
  H   H177      1.0  0.22008  0.12708  0.50568  1.0000
  H   H178      1.0  0.23195  0.27422  0.82165  1.0000
  C   C180      1.0  0.24251  0.14511  0.52510  1.0000
  C   C181      1.0  0.12131  0.00736  0.58732  1.0000
  C   C182      1.0  0.07596  0.00729  0.63887  1.0000
  C   C183      1.0  0.13795  0.15188  0.50390  1.0000
  H   H179      1.0  0.16748  0.03355  0.73930  1.0000
  C   C184      1.0  0.19161  0.31655  0.80359  1.0000
  C   C185      1.0  0.02587  0.13495  0.52343  1.0000
  H   H180      1.0  0.05950  0.30528  0.97158  1.0000
  H   H181      1.0  0.05226  0.06535  0.63255  1.0000
  N   N18       1.0  0.03376  0.02379  0.66031  1.0000
  H   H182      1.0  0.01474  0.14275  0.53127  1.0000
  H   H183      1.0  0.06557  0.16309  0.49949  1.0000
  H   H184      1.0  0.23730  0.25228  0.57448  1.0000
  C   C186      1.0  0.23754  0.09551  0.78698  1.0000
  H   H185      1.0  0.02718  0.30516  0.98036  1.0000
  H   H186      1.0  0.13693  0.03200  0.56065  1.0000
  C   C187      1.0  0.24467  0.15783  0.64371  1.0000
  H   H187      1.0  0.15016  0.12557  0.49863  1.0000
  C   C188      1.0  0.02165  0.17820  0.49865  1.0000
  H   H188      1.0  0.16085  0.00909  0.59344  1.0000
  C   C189      1.0  0.14757  0.00647  0.59645  1.0000
  C   C190      1.0  0.20543  0.31978  0.80919  1.0000
  H   H189      1.0  0.15902  0.02147  0.56380  1.0000
  H   H190      1.0  0.24280  0.12298  0.75951  1.0000
  H   H191      1.0  0.23661  0.29957  0.84250  1.0000
  H   H192      1.0  0.01456  0.01233  0.68110  1.0000
  C   C191      1.0  0.02656  0.00820  0.67100  1.0000
  H   H193      1.0  0.03667  0.99817  0.67778  1.0000
  H   H194      1.0  0.02285  0.00137  0.66248  1.0000
  H   H195      1.0  0.05895  0.21622  0.50391  1.0000
  H   H196      1.0  0.19848  0.32757  0.74659  1.0000
  C   C192      1.0  0.24711  0.13017  0.53828  1.0000
  H   H197      1.0  0.15741  0.32763  0.83766  1.0000
  H   H198      1.0  0.10049  0.99671  0.60772  1.0000
  H   H199      1.0  0.21281  0.32789  0.82931  1.0000
  H   H200      1.0  0.24654  0.10240  0.54924  1.0000
  C   C193      1.0  0.10294  0.32725  0.84410  1.0000
  C   C194      1.0  0.18468  0.32863  0.83543  1.0000
  C   C195      1.0  0.15053  0.13958  0.49460  1.0000
  S   S61       1.0  0.03428  0.36809  0.06946  1.0000
  C   C196      1.0  0.13885  0.62708  0.01924  1.0000
  H   H201      1.0  0.00840  0.50829  0.17492  1.0000
  C   C197      1.0  0.11038  0.58594  0.03325  1.0000
  N   N19       1.0  0.23593  0.66152  0.32491  1.0000
  H   H202      1.0  0.22055  0.49285  0.04221  1.0000
  H   H203      1.0  0.21696  0.56729  0.30864  1.0000
  C   C198      1.0  0.01245  0.41646  0.06144  1.0000
  C   C199      1.0  0.02221  0.40089  0.03213  1.0000
  C   C200      1.0  0.15174  0.61124  0.01894  1.0000
  C   C201      1.0  0.23903  0.60818  0.05710  1.0000
  Fe  Fe32      1.0  0.21756  0.56502  0.22811  1.0000
  S   S62       1.0  0.21893  0.55143  0.20616  1.0000
  H   H204      1.0  0.04910  0.40256  0.03096  1.0000
  Fe  Fe33      1.0  0.18618  0.59400  0.21823  1.0000
  S   S63       1.0  0.18479  0.58337  0.19549  1.0000
  S   S64       1.0  0.16677  0.61798  0.22649  1.0000
  Fe  Fe34      1.0  0.18889  0.55663  0.21376  1.0000
  S   S65       1.0  0.17308  0.53583  0.21645  1.0000
  Fe  Fe35      1.0  0.21460  0.57921  0.18936  1.0000
  H   H205      1.0  0.02474  0.37150  0.10519  1.0000
  S   S66       1.0  0.18788  0.56760  0.23729  1.0000
  S   S67       1.0  0.21563  0.59226  0.21062  1.0000
  Fe  Fe36      1.0  0.11025  0.52854  0.15364  1.0000
  S   S68       1.0  0.10743  0.51254  0.13547  1.0000
  S   S69       1.0  0.13732  0.52410  0.16052  1.0000
  Fe  Fe37      1.0  0.07427  0.55331  0.15071  1.0000
  S   S70       1.0  0.06868  0.54017  0.13195  1.0000
  S   S71       1.0  0.05435  0.57595  0.16108  1.0000
  Fe  Fe38      1.0  0.07870  0.51464  0.14998  1.0000
  S   S72       1.0  0.06411  0.49167  0.15843  1.0000
  Fe  Fe39      1.0  0.09753  0.53908  0.11892  1.0000
  S   S73       1.0  0.10690  0.54562  0.08932  1.0000
  S   S74       1.0  0.08244  0.52791  0.17002  1.0000
  S   S75       1.0  0.10206  0.55493  0.13588  1.0000
  C   C202      1.0  0.11732  0.60635  0.00444  1.0000
  S   S76       1.0  0.02445  0.64277  0.10537  1.0000
  H   H206      1.0  0.10430  0.65234  0.11199  1.0000
  S   S77       1.0  0.05838  0.63874  0.06125  1.0000
  Fe  Fe40      1.0  0.19917  0.55619  0.03802  1.0000
  C   C203      1.0  0.19166  0.49971  0.02372  1.0000
  S   S78       1.0  0.18973  0.54329  0.06671  1.0000
  Fe  Fe41      1.0  0.22602  0.57789  0.01349  1.0000
  S   S79       1.0  0.19905  0.58535  0.03041  1.0000
  S   S80       1.0  0.22735  0.54836  0.02310  1.0000
  C   C204      1.0  0.12500  0.61486  0.04954  1.0000
  C   C205      1.0  0.12546  0.62889  0.03458  1.0000
  H   H207      1.0  0.04023  0.41674  0.05720  1.0000
  C   C206      1.0  0.15177  0.59763  0.03420  1.0000
  C   C207      1.0  0.13846  0.59946  0.04951  1.0000
  H   H208      1.0  0.16167  0.58538  0.03406  1.0000
  H   H209      1.0  0.13820  0.58860  0.06109  1.0000
  C   C208      1.0  0.04611  0.59397  0.14507  1.0000
  C   C209      1.0  0.03085  0.60640  0.15065  1.0000
  C   C210      1.0  0.02404  0.62109  0.13832  1.0000
  C   C211      1.0  0.03279  0.62378  0.12042  1.0000
  C   C212      1.0  0.04815  0.61140  0.11477  1.0000
  C   C213      1.0  0.05459  0.59626  0.12705  1.0000
  H   H210      1.0  0.02425  0.60466  0.16457  1.0000
  H   H211      1.0  0.13892  0.63772  0.00749  1.0000
  H   H212      1.0  0.05493  0.61336  0.10091  1.0000
  H   H213      1.0  0.06624  0.58656  0.12259  1.0000
  C   C214      1.0  0.12981  0.54523  0.08338  1.0000
  C   C215      1.0  0.14025  0.53967  0.09623  1.0000
  C   C216      1.0  0.15864  0.53922  0.09107  1.0000
  C   C217      1.0  0.16654  0.54465  0.07312  1.0000
  C   C218      1.0  0.15601  0.55024  0.06039  1.0000
  C   C219      1.0  0.13775  0.55036  0.06547  1.0000
  H   H214      1.0  0.13423  0.53552  0.11011  1.0000
  H   H215      1.0  0.16672  0.53466  0.10097  1.0000
  H   H216      1.0  0.16186  0.55434  0.04660  1.0000
  H   H217      1.0  0.12975  0.55447  0.05553  1.0000
  H   H218      1.0  0.14467  0.65302  0.22287  1.0000
  N   N20       1.0  0.21896  0.59664  0.26899  1.0000
  H   H219      1.0  0.04716  0.51299  0.18776  1.0000
  C   C220      1.0  0.14148  0.53092  0.17815  1.0000
  C   C221      1.0  0.14262  0.51856  0.19421  1.0000
  C   C222      1.0  0.15132  0.52098  0.20626  1.0000
  C   C223      1.0  0.15927  0.53566  0.20238  1.0000
  C   C224      1.0  0.15749  0.54856  0.18670  1.0000
  C   C225      1.0  0.14868  0.54614  0.17460  1.0000
  H   H220      1.0  0.13770  0.50650  0.19691  1.0000
  H   H221      1.0  0.15265  0.51092  0.21830  1.0000
  H   H222      1.0  0.16360  0.55991  0.18352  1.0000
  H   H223      1.0  0.14831  0.55558  0.16206  1.0000
  C   C226      1.0  0.17011  0.63801  0.21165  1.0000
  C   C227      1.0  0.18575  0.63863  0.19852  1.0000
  H   H224      1.0  0.19969  0.61308  0.25426  1.0000
  H   H225      1.0  0.03633  0.35245  0.01233  1.0000
  H   H226      1.0  0.19605  0.62677  0.19753  1.0000
  H   H227      1.0  0.03935  0.54471  0.17390  1.0000
  H   H228      1.0  0.20253  0.49657  0.01270  1.0000
  H   H229      1.0  0.22868  0.59119  0.04716  1.0000
  C   C228      1.0  0.01594  0.49193  0.13682  1.0000
  C   C229      1.0  0.02557  0.50553  0.12934  1.0000
  C   C230      1.0  0.04032  0.50565  0.13581  1.0000
  C   C231      1.0  0.04546  0.49226  0.15002  1.0000
  C   C232      1.0  0.03574  0.47871  0.15760  1.0000
  C   C233      1.0  0.02112  0.47847  0.15098  1.0000
  H   H230      1.0  0.02165  0.51601  0.11840  1.0000
  H   H231      1.0  0.04770  0.51608  0.12974  1.0000
  H   H232      1.0  0.03960  0.46827  0.16859  1.0000
  H   H233      1.0  0.12852  0.59607  0.00015  1.0000
  H   H234      1.0  0.06372  0.35162  0.13781  1.0000
  C   C234      1.0  0.18080  0.62467  0.16162  1.0000
  H   H235      1.0  0.06446  0.42225  0.16313  1.0000
  H   H236      1.0  0.20675  0.52481  0.18957  1.0000
  H   H237      1.0  0.21817  0.60687  0.35484  1.0000
  S   S81       1.0  0.16725  0.60794  0.99932  1.0000
  H   H238      1.0  0.03971  0.61916  0.01373  1.0000
  S   S82       1.0  0.01971  0.34534  0.04972  1.0000
  H   H239      1.0  0.10600  0.58807  0.10365  1.0000
  C   C235      1.0  0.04528  0.35996  0.12033  1.0000
  C   C236      1.0  0.05252  0.36164  0.13376  1.0000
  C   C237      1.0  0.04538  0.37624  0.14194  1.0000
  C   C238      1.0  0.03094  0.38926  0.13675  1.0000
  C   C239      1.0  0.02352  0.38761  0.12341  1.0000
  C   C240      1.0  0.03068  0.37291  0.11523  1.0000
  S   S83       1.0  0.22146  0.64079  0.39579  1.0000
  H   H240      1.0  0.05107  0.37741  0.15232  1.0000
  N   N21       1.0  0.02485  0.52516  0.17561  1.0000
  C   C241      1.0  0.15400  0.64574  0.17084  1.0000
  H   H241      1.0  0.01065  0.63208  0.07694  1.0000
  H   H242      1.0  0.10665  0.58720  0.04742  1.0000
  C   C242      1.0  0.16044  0.50258  0.03774  1.0000
  C   C243      1.0  0.00923  0.54961  0.14906  1.0000
  C   C244      1.0  0.03294  0.51242  0.18978  1.0000
  C   C245      1.0  0.16374  0.50754  0.05182  1.0000
  C   C246      1.0  0.01214  0.52113  0.16966  1.0000
  H   H243      1.0  0.23857  0.63842  0.11416  1.0000
  H   H244      1.0  0.17215  0.49430  0.01275  1.0000
  C   C247      1.0  0.17450  0.49840  0.02368  1.0000
  H   H245      1.0  0.23408  0.60755  0.12504  1.0000
  H   H246      1.0  0.08501  0.61422  0.04011  1.0000
  H   H247      1.0  0.20757  0.61935  0.38196  1.0000
  N   N22       1.0  0.18666  0.52927  0.14918  1.0000
  C   C248      1.0  0.18496  0.51516  0.16333  1.0000
  C   C249      1.0  0.19543  0.54183  0.14925  1.0000
  C   C250      1.0  0.19250  0.51317  0.17786  1.0000
  C   C251      1.0  0.20302  0.54032  0.16363  1.0000
  C   C252      1.0  0.20156  0.52584  0.17799  1.0000
  C   C253      1.0  0.17824  0.53160  0.13425  1.0000
  H   H248      1.0  0.17713  0.50576  0.16379  1.0000
  H   H249      1.0  0.19631  0.55328  0.13827  1.0000
  N   N23       1.0  0.17724  0.65553  0.14676  1.0000
  H   H250      1.0  0.20959  0.55051  0.16390  1.0000
  H   H251      1.0  0.16601  0.54235  0.13516  1.0000
  H   H252      1.0  0.18754  0.53502  0.12130  1.0000
  H   H253      1.0  0.17408  0.51930  0.13442  1.0000
  N   N24       1.0  0.21122  0.64660  0.02958  1.0000
  H   H254      1.0  0.02583  0.56651  0.15012  1.0000
  C   C254      1.0  0.23054  0.60777  0.15274  1.0000
  C   C255      1.0  0.21857  0.65652  0.32976  1.0000
  C   C256      1.0  0.03025  0.41344  0.05245  1.0000
  H   H255      1.0  0.19050  0.50241  0.18940  1.0000
  C   C257      1.0  0.16414  0.62837  0.17291  1.0000
  C   C258      1.0  0.02953  0.54135  0.16895  1.0000
  S   S84       1.0  0.06214  0.36559  0.02226  1.0000
  C   C259      1.0  0.04591  0.44625  0.12821  1.0000
  H   H256      1.0  0.08830  0.59342  0.13610  1.0000
  H   H257      1.0  0.22799  0.61231  0.17873  1.0000
  C   C260      1.0  0.21141  0.60182  0.25305  1.0000
  H   H258      1.0  0.12220  0.58274  0.11753  1.0000
  S   S85       1.0  0.05464  0.34146  0.11038  1.0000
  H   H259      1.0  0.12556  0.59716  0.09591  1.0000
  N   N25       1.0  0.10697  0.60342  0.02125  1.0000
  C   C261      1.0  0.21276  0.50622  0.03714  1.0000
  H   H260      1.0  0.07823  0.44625  0.14790  1.0000
  H   H261      1.0  0.19992  0.65509  0.17610  1.0000
  C   C262      1.0  0.04691  0.46166  0.11482  1.0000
  H   H262      1.0  0.23498  0.64740  0.00935  1.0000
  Fe  Fe42      1.0  0.18894  0.58483  0.00704  1.0000
  C   C263      1.0  0.07114  0.46560  0.12507  1.0000
  H   H263      1.0  0.08061  0.47344  0.12443  1.0000
  C   C264      1.0  0.18797  0.65466  0.18641  1.0000
  C   C265      1.0  0.03847  0.63329  0.00814  1.0000
  C   C266      1.0  0.16081  0.65924  0.15764  1.0000
  H   H264      1.0  0.03588  0.43885  0.12950  1.0000
  C   C267      1.0  0.18111  0.50842  0.05153  1.0000
  H   H265      1.0  0.05810  0.41299  0.14808  1.0000
  C   C268      1.0  0.04394  0.64385  0.01636  1.0000
  C   C269      1.0  0.02187  0.55378  0.15552  1.0000
  H   H266      1.0  0.20013  0.63563  0.14007  1.0000
  H   H267      1.0  0.02629  0.39428  0.02099  1.0000
  Fe  Fe43      1.0  0.21460  0.55032  0.00038  1.0000
  C   C270      1.0  0.24665  0.63343  0.36576  1.0000
  H   H268      1.0  0.23052  0.65704  0.03572  1.0000
  H   H269      1.0  0.23154  0.64343  0.16796  1.0000
  C   C271      1.0  0.01077  0.65849  0.06091  1.0000
  H   H270      1.0  0.20529  0.57533  0.28112  1.0000
  H   H271      1.0  0.03297  0.49849  0.18970  1.0000
  H   H272      1.0  0.18901  0.61131  0.16319  1.0000
  C   C272      1.0  0.22022  0.62124  0.37321  1.0000
  H   H273      1.0  0.04141  0.42641  0.16207  1.0000
  C   C273      1.0  0.11532  0.59341  0.10797  1.0000
  H   H274      1.0  0.21547  0.64743  0.05451  1.0000
  H   H275      1.0  0.00769  0.35241  0.13969  1.0000
  C   C274      1.0  0.08695  0.63711  0.13229  1.0000
  C   C275      1.0  0.23602  0.63286  0.12828  1.0000
  H   H276      1.0  0.17712  0.62890  0.02928  1.0000
  H   H277      1.0  0.11520  0.64086  0.03453  1.0000
  C   C276      1.0  0.09310  0.61654  0.02674  1.0000
  S   S86       1.0  0.24697  0.59376  0.00982  1.0000
  H   H278      1.0  0.12033  0.62694  0.09753  1.0000
  H   H279      1.0  0.07951  0.64833  0.13836  1.0000
  C   C277      1.0  0.05529  0.42485  0.15400  1.0000
  C   C278      1.0  0.08234  0.62051  0.13891  1.0000
  H   H280      1.0  0.07127  0.61863  0.15018  1.0000
  C   C279      1.0  0.06963  0.45023  0.13843  1.0000
  C   C280      1.0  0.22068  0.57830  0.29807  1.0000
  H   H281      1.0  0.01375  0.46798  0.15694  1.0000
  Fe  Fe44      1.0  0.04697  0.65191  0.08441  1.0000
  C   C281      1.0  0.18713  0.63850  0.14857  1.0000
  S   S87       1.0  0.22795  0.58557  0.16030  1.0000
  H   H282      1.0  0.00846  0.42221  0.07316  1.0000
  N   N26       1.0  0.19468  0.50503  0.03736  1.0000
  H   H283      1.0  0.23444  0.61666  0.25974  1.0000
  C   C282      1.0  0.05961  0.47139  0.11329  1.0000
  C   C283      1.0  0.23036  0.60599  0.27055  1.0000
  C   C284      1.0  0.15677  0.65348  0.21271  1.0000
  H   H284      1.0  0.14702  0.50188  0.03776  1.0000
  C   C285      1.0  0.00816  0.64115  0.06457  1.0000
  H   H285      1.0  0.15927  0.61794  0.18355  1.0000
  Fe  Fe45      1.0  0.04297  0.34232  0.08759  1.0000
  N   N27       1.0  0.10552  0.60861  0.11618  1.0000
  C   C286      1.0  0.10999  0.62491  0.10944  1.0000
  C   C287      1.0  0.09194  0.60629  0.13076  1.0000
  C   C288      1.0  0.10095  0.63934  0.11753  1.0000
  S   S88       1.0  0.10694  0.61529  0.06775  1.0000
  C   C289      1.0  0.21406  0.58296  0.28251  1.0000
  H   H286      1.0  0.15294  0.51079  0.06289  1.0000
  H   H287      1.0  0.12480  0.57959  0.03065  1.0000
  Fe  Fe46      1.0  0.08469  0.63929  0.06588  1.0000
  H   H288      1.0  0.21972  0.51155  0.02339  1.0000
  H   H289      1.0  0.06014  0.48369  0.10335  1.0000
  C   C290      1.0  0.23487  0.64319  0.14037  1.0000
  H   H290      1.0  0.02560  0.51543  0.20293  1.0000
  N   N28       1.0  0.05708  0.44081  0.13987  1.0000
  H   H291      1.0  0.03751  0.46634  0.10609  1.0000
  H   H292      1.0  0.01232  0.39761  0.11940  1.0000
  H   H293      1.0  0.00338  0.55905  0.13849  1.0000
  H   H294      1.0  0.07909  0.64394  0.02004  1.0000
  H   H295      1.0  0.04912  0.63782  0.02826  1.0000
  C   C291      1.0  0.03520  0.40560  0.03769  1.0000
  C   C292      1.0  0.23207  0.63562  0.15857  1.0000
  S   S89       1.0  0.18662  0.55619  0.01600  1.0000
  C   C293      1.0  0.23364  0.61526  0.13446  1.0000
  H   H296      1.0  0.01221  0.63064  0.14273  1.0000
  Fe  Fe47      1.0  0.04542  0.35289  0.04767  1.0000
  C   C294      1.0  0.04766  0.35340  0.00135  1.0000
  Fe  Fe48      1.0  0.00955  0.35818  0.07332  1.0000
  C   C295      1.0  0.22991  0.61798  0.16472  1.0000
  C   C296      1.0  0.23025  0.63107  0.37710  1.0000
  H   H297      1.0  0.10259  0.57714  0.03154  1.0000
  H   H298      1.0  0.14126  0.64888  0.17986  1.0000
  C   C297      1.0  0.00243  0.63568  0.05218  1.0000
  H   H299      1.0  0.18362  0.51193  0.06269  1.0000
  C   C298      1.0  0.22625  0.61415  0.35788  1.0000
  S   S90       1.0  0.02257  0.40740  0.14724  1.0000
  C   C299      1.0  0.08966  0.63332  0.01549  1.0000
  H   H300      1.0  0.21254  0.51546  0.04550  1.0000
  H   H301      1.0  0.22153  0.60573  0.24094  1.0000
  C   C300      1.0  0.06192  0.35968  0.00266  1.0000
  S   S91       1.0  0.01736  0.33353  0.09313  1.0000
  S   S92       1.0  0.07315  0.64957  0.09084  1.0000
  H   H302      1.0  0.23161  0.60471  0.07059  1.0000
  C   C301      1.0  0.19514  0.64157  0.03512  1.0000
  C   C302      1.0  0.23742  0.60042  0.04387  1.0000
  H   H303      1.0  0.20704  0.59053  0.25100  1.0000
  N   N29       1.0  0.00474  0.40417  0.04087  1.0000
  C   C303      1.0  0.22218  0.64356  0.01376  1.0000
  H   H304      1.0  0.24511  0.64982  0.30211  1.0000
  S   S93       1.0  0.23386  0.55654  0.24958  1.0000
  C   C304      1.0  0.20104  0.62964  0.00886  1.0000
  C   C305      1.0  0.21736  0.63487  0.00328  1.0000
  C   C306      1.0  0.21646  0.65547  0.04066  1.0000
  H   H305      1.0  0.19724  0.62272  0.00093  1.0000
  H   H306      1.0  0.18641  0.64405  0.04762  1.0000
  C   C307      1.0  0.24250  0.61658  0.34643  1.0000
  C   C308      1.0  0.00423  0.53322  0.15622  1.0000
  H   H307      1.0  0.24645  0.60892  0.28710  1.0000
  C   C309      1.0  0.23721  0.60169  0.28594  1.0000
  C   C310      1.0  0.23229  0.58777  0.29978  1.0000
  C   C311      1.0  0.18979  0.63306  0.02484  1.0000
  Fe  Fe49      1.0  0.23584  0.66043  0.39791  1.0000
  Fe  Fe50      1.0  0.99962  0.42766  0.13784  1.0000
  H   H308      1.0  0.00075  0.62782  0.02207  1.0000
  H   H309      1.0  0.21371  0.65367  0.34447  1.0000
  C   C312      1.0  0.10018  0.63646  0.99838  1.0000
  H   H310      1.0  0.21953  0.64412  0.32538  1.0000
  H   H311      1.0  0.23760  0.58428  0.31175  1.0000
  S   S94       1.0  0.00406  0.44909  0.11342  1.0000
  C   C313      1.0  0.99922  0.34522  0.13707  1.0000
  H   H312      1.0  0.00046  0.62217  0.05507  1.0000
  C   C314      1.0  0.99979  0.41172  0.05545  1.0000
  C   C315      1.0  0.24801  0.65736  0.31003  1.0000
  N   N30       1.0  0.99942  0.64717  0.03658  1.0000
  C   C316      1.0  0.24775  0.60398  0.02663  1.0000
  C   C317      1.0  0.04261  0.66209  0.00917  1.0000
  S   S95       1.0  0.24840  0.60914  0.32637  1.0000
  H   H313      1.0  0.03098  0.56764  0.88191  1.0000
  H   H314      1.0  0.03681  0.34390  0.98457  1.0000
  Fe  Fe51      1.0  0.00712  0.63224  0.96291  1.0000
  H   H315      1.0  0.10896  0.36030  0.81898  1.0000
  H   H316      1.0  0.06196  0.48782  0.86816  1.0000
  H   H317      1.0  0.18147  0.40619  0.89008  1.0000
  Fe  Fe52      1.0  0.13517  0.51350  0.83485  1.0000
  S   S96       1.0  0.14332  0.48855  0.82444  1.0000
  S   S97       1.0  0.15708  0.52704  0.83288  1.0000
  Fe  Fe53      1.0  0.09592  0.51218  0.84498  1.0000
  S   S98       1.0  0.10065  0.48706  0.83526  1.0000
  S   S99       1.0  0.06938  0.52417  0.86052  1.0000
  Fe  Fe54      1.0  0.12404  0.47814  0.84844  1.0000
  S   S100      1.0  0.13281  0.45170  0.86569  1.0000
  Fe  Fe55      1.0  0.11958  0.49977  0.81195  1.0000
  S   S101      1.0  0.12121  0.49955  0.78339  1.0000
  S   S102      1.0  0.11785  0.50216  0.86011  1.0000
  S   S103      1.0  0.11275  0.52591  0.82046  1.0000
  Fe  Fe56      1.0  0.18693  0.42294  0.72877  1.0000
  S   S104      1.0  0.17604  0.43929  0.74948  1.0000
  S   S105      1.0  0.16834  0.42119  0.71304  1.0000
  Fe  Fe57      1.0  0.22400  0.41271  0.73615  1.0000
  S   S106      1.0  0.21619  0.42765  0.75825  1.0000
  Fe  Fe58      1.0  0.19139  0.41673  0.76632  1.0000
  S   S107      1.0  0.17691  0.40612  0.79366  1.0000
  Fe  Fe59      1.0  0.20141  0.44899  0.73954  1.0000
  S   S108      1.0  0.19856  0.47803  0.73751  1.0000
  S   S109      1.0  0.20063  0.39946  0.74635  1.0000
  S   S110      1.0  0.21098  0.43507  0.71671  1.0000
  H   H318      1.0  0.15134  0.54005  0.92612  1.0000
  S   S111      1.0  0.14632  0.34775  0.72485  1.0000
  H   H319      1.0  0.21138  0.36868  0.70163  1.0000
  S   S112      1.0  0.00270  0.53289  0.82816  1.0000
  S   S113      1.0  0.21133  0.33871  0.92713  1.0000
  H   H320      1.0  0.05636  0.45775  0.87144  1.0000
  Fe  Fe60      1.0  0.09582  0.37181  0.89318  1.0000
  S   S114      1.0  0.12442  0.35778  0.88956  1.0000
  S   S115      1.0  0.08969  0.39448  0.87055  1.0000
  N   N31       1.0  0.17824  0.52548  0.92256  1.0000
  H   H321      1.0  0.04808  0.56188  0.86322  1.0000
  C   C318      1.0  0.21144  0.41224  0.81950  1.0000
  Fe  Fe61      1.0  0.12140  0.35893  0.91786  1.0000
  S   S116      1.0  0.14386  0.36635  0.92439  1.0000
  C   C319      1.0  0.04795  0.34857  0.98562  1.0000
  C   C320      1.0  0.21276  0.35838  0.93216  1.0000
  S   S117      1.0  0.09334  0.37479  0.92093  1.0000
  S   S118      1.0  0.22590  0.39219  0.84824  1.0000
  S   S119      1.0  0.19962  0.35946  0.88009  1.0000
  H   H322      1.0  0.19837  0.51137  0.76207  1.0000
  H   H323      1.0  0.16581  0.42733  0.88656  1.0000
  Fe  Fe62      1.0  0.17965  0.47156  0.94797  1.0000
  H   H324      1.0  0.18624  0.51083  0.90191  1.0000
  S   S120      1.0  0.17139  0.49183  0.96564  1.0000
  Fe  Fe63      1.0  0.16283  0.45219  0.93028  1.0000
  S   S121      1.0  0.18899  0.44136  0.91353  1.0000
  S   S122      1.0  0.13712  0.44564  0.92995  1.0000
  Fe  Fe64      1.0  0.19880  0.43523  0.93870  1.0000
  Fe  Fe65      1.0  0.19481  0.46821  0.90967  1.0000
  S   S123      1.0  0.20916  0.48268  0.88401  1.0000
  S   S124      1.0  0.17231  0.44467  0.95582  1.0000
  S   S125      1.0  0.16761  0.47996  0.92377  1.0000
  S   S126      1.0  0.20726  0.46130  0.93336  1.0000
  H   H325      1.0  0.22854  0.52081  0.91904  1.0000
  H   H326      1.0  0.22730  0.38673  0.88585  1.0000
  C   C321      1.0  0.22058  0.37264  0.95145  1.0000
  C   C322      1.0  0.21607  0.50412  0.97058  1.0000
  C   C323      1.0  0.14175  0.38882  0.92460  1.0000
  C   C324      1.0  0.12519  0.40069  0.92620  1.0000
  C   C325      1.0  0.12388  0.41818  0.92770  1.0000
  C   C326      1.0  0.13913  0.42391  0.92739  1.0000
  C   C327      1.0  0.15565  0.41203  0.92570  1.0000
  C   C328      1.0  0.15693  0.39455  0.92433  1.0000
  H   H327      1.0  0.11335  0.39636  0.92670  1.0000
  H   H328      1.0  0.11101  0.42720  0.92937  1.0000
  H   H329      1.0  0.16739  0.41609  0.92601  1.0000
  H   H330      1.0  0.16966  0.38529  0.92351  1.0000
  C   C329      1.0  0.18448  0.51801  0.76533  1.0000
  H   H331      1.0  0.15455  0.51664  0.93677  1.0000
  C   C330      1.0  0.18530  0.50878  0.79711  1.0000
  H   H332      1.0  0.18247  0.52676  0.73775  1.0000
  C   C331      1.0  0.23257  0.43752  0.87936  1.0000
  H   H333      1.0  0.12693  0.36241  0.96190  1.0000
  C   C332      1.0  0.19074  0.40270  0.80841  1.0000
  C   C333      1.0  0.21513  0.34330  0.74945  1.0000
  C   C334      1.0  0.19131  0.38748  0.82198  1.0000
  H   H334      1.0  0.20184  0.37293  0.84466  1.0000
  H   H335      1.0  0.18369  0.37776  0.82301  1.0000
  C   C335      1.0  0.16221  0.40063  0.71719  1.0000
  C   C336      1.0  0.16532  0.38715  0.73216  1.0000
  C   C337      1.0  0.16021  0.37087  0.73493  1.0000
  C   C338      1.0  0.15196  0.36814  0.72274  1.0000
  C   C339      1.0  0.14878  0.38168  0.70794  1.0000
  C   C340      1.0  0.15379  0.39788  0.70522  1.0000
  H   H336      1.0  0.17148  0.38927  0.74166  1.0000
  H   H337      1.0  0.16287  0.36037  0.74627  1.0000
  H   H338      1.0  0.14246  0.37961  0.69846  1.0000
  H   H339      1.0  0.15128  0.40825  0.69368  1.0000
  C   C341      1.0  0.10238  0.41001  0.86842  1.0000
  C   C342      1.0  0.11279  0.40751  0.88080  1.0000
  C   C343      1.0  0.12232  0.42030  0.87963  1.0000
  C   C344      1.0  0.12148  0.43562  0.86610  1.0000
  C   C345      1.0  0.11149  0.43794  0.85338  1.0000
  C   C346      1.0  0.10188  0.42514  0.85457  1.0000
  H   H340      1.0  0.11337  0.39588  0.89147  1.0000
  H   H341      1.0  0.13012  0.41848  0.88941  1.0000
  H   H342      1.0  0.11115  0.44955  0.84265  1.0000
  H   H343      1.0  0.09388  0.42707  0.84493  1.0000
  C   C347      1.0  0.14279  0.49338  0.77085  1.0000
  C   C348      1.0  0.14624  0.49964  0.75236  1.0000
  C   C349      1.0  0.16346  0.49518  0.74212  1.0000
  C   C350      1.0  0.17720  0.48420  0.75032  1.0000
  C   C351      1.0  0.17361  0.47735  0.76870  1.0000
  C   C352      1.0  0.15645  0.48203  0.77896  1.0000
  H   H344      1.0  0.13564  0.50817  0.74599  1.0000
  H   H345      1.0  0.16611  0.50012  0.72785  1.0000
  H   H346      1.0  0.18407  0.46835  0.77498  1.0000
  H   H347      1.0  0.15371  0.47636  0.79302  1.0000
  C   C353      1.0  0.17146  0.51436  0.84708  1.0000
  C   C354      1.0  0.18772  0.51896  0.84514  1.0000
  C   C355      1.0  0.19941  0.50894  0.85631  1.0000
  C   C356      1.0  0.19470  0.49455  0.86970  1.0000
  C   C357      1.0  0.17842  0.48994  0.87173  1.0000
  C   C358      1.0  0.16693  0.49969  0.86024  1.0000
  H   H348      1.0  0.19129  0.53027  0.83499  1.0000
  H   H349      1.0  0.21199  0.51255  0.85473  1.0000
  H   H350      1.0  0.17474  0.47876  0.88201  1.0000
  H   H351      1.0  0.15449  0.49594  0.86172  1.0000
  H   H352      1.0  0.23105  0.41856  0.86538  1.0000
  H   H353      1.0  0.17873  0.40025  0.96567  1.0000
  C   C359      1.0  0.18627  0.50197  0.97041  1.0000
  C   C360      1.0  0.13577  0.39770  0.97013  1.0000
  H   H354      1.0  0.15553  0.36632  0.83122  1.0000
  H   H355      1.0  0.10798  0.36234  0.84801  1.0000
  H   H356      1.0  0.00159  0.55925  0.91433  1.0000
  C   C361      1.0  0.15916  0.52650  0.92469  1.0000
  N   N32       1.0  0.23905  0.40574  0.88998  1.0000
  H   H357      1.0  0.17199  0.43538  0.84751  1.0000
  H   H358      1.0  0.24644  0.39639  0.91526  1.0000
  H   H359      1.0  0.20206  0.40366  0.91931  1.0000
  C   C362      1.0  0.07678  0.35616  0.97251  1.0000
  H   H360      1.0  0.08813  0.35705  0.96149  1.0000
  C   C363      1.0  0.02108  0.52937  0.83779  1.0000
  C   C364      1.0  0.01881  0.53197  0.85497  1.0000
  C   C365      1.0  0.03374  0.52983  0.86207  1.0000
  C   C366      1.0  0.05097  0.52528  0.85194  1.0000
  C   C367      1.0  0.05327  0.52234  0.83491  1.0000
  C   C368      1.0  0.03833  0.52438  0.82786  1.0000
  C   C369      1.0  0.14830  0.36629  0.82151  1.0000
  H   H361      1.0  0.03191  0.53204  0.87530  1.0000
  H   H362      1.0  0.06654  0.51883  0.82702  1.0000
  H   H363      1.0  0.04014  0.52233  0.81457  1.0000
  C   C370      1.0  0.12325  0.37292  0.96977  1.0000
  C   C371      1.0  0.02518  0.57368  0.84288  1.0000
  C   C372      1.0  0.20474  0.49577  0.96633  1.0000
  H   H364      1.0  0.09081  0.33627  0.84099  1.0000
  C   C373      1.0  0.16742  0.39467  0.96657  1.0000
  H   H365      1.0  0.12369  0.36329  0.78729  1.0000
  N   N33       1.0  0.20387  0.34768  0.72318  1.0000
  C   C374      1.0  0.20698  0.39076  0.92702  1.0000
  H   H366      1.0  0.24644  0.42392  0.69873  1.0000
  H   H367      1.0  0.18790  0.42409  0.87243  1.0000
  S   S127      1.0  0.21574  0.40844  0.94800  1.0000
  C   C375      1.0  0.21409  0.38948  0.94169  1.0000
  H   H368      1.0  0.20365  0.33303  0.70468  1.0000
  C   C376      1.0  0.20661  0.37520  0.92208  1.0000
  C   C377      1.0  0.17927  0.51671  0.97853  1.0000
  C   C378      1.0  0.21212  0.39680  0.83300  1.0000
  C   C379      1.0  0.21245  0.36143  0.71504  1.0000
  S   S128      1.0  0.06341  0.34189  0.95243  1.0000
  H   H369      1.0  0.17687  0.50129  0.80855  1.0000
  C   C380      1.0  0.22274  0.36634  0.72388  1.0000
  H   H370      1.0  0.18872  0.51904  0.80191  1.0000
  H   H371      1.0  0.20122  0.37620  0.91071  1.0000
  H   H372      1.0  0.15117  0.52528  0.80041  1.0000
  Fe  Fe66      1.0  0.21639  0.33969  0.89785  1.0000
  H   H373      1.0  0.12265  0.62532  0.97963  1.0000
  N   N34       1.0  0.02460  0.58086  0.85684  1.0000
  H   H374      1.0  0.12242  0.40594  0.97201  1.0000
  C   C381      1.0  0.07454  0.44470  0.88900  1.0000
  S   S129      1.0  0.24246  0.34555  0.88106  1.0000
  N   N35       1.0  0.09025  0.46353  0.89504  1.0000
  C   C382      1.0  0.08677  0.44705  0.89743  1.0000
  C   C383      1.0  0.08120  0.47810  0.88498  1.0000
  H   H375      1.0  0.23192  0.36104  0.74819  1.0000
  C   C384      1.0  0.06886  0.47625  0.87638  1.0000
  C   C385      1.0  0.23639  0.43976  0.89457  1.0000
  C   C386      1.0  0.10338  0.46550  0.90378  1.0000
  H   H376      1.0  0.09384  0.43552  0.90548  1.0000
  H   H377      1.0  0.08357  0.49127  0.88341  1.0000
  H   H378      1.0  0.04463  0.58327  0.86850  1.0000
  C   C387      1.0  0.99858  0.59511  0.83667  1.0000
  H   H379      1.0  0.15766  0.35676  0.96385  1.0000
  H   H380      1.0  0.11554  0.45472  0.90220  1.0000
  H   H381      1.0  0.10792  0.47824  0.89775  1.0000
  H   H382      1.0  0.09773  0.46491  0.91819  1.0000
  C   C388      1.0  0.17558  0.52680  0.75147  1.0000
  C   C389      1.0  0.06567  0.45941  0.87829  1.0000
  C   C390      1.0  0.15810  0.52558  0.78670  1.0000
  C   C391      1.0  0.19423  0.34198  0.71318  1.0000
  C   C392      1.0  0.15755  0.53491  0.75548  1.0000
  S   S130      1.0  0.01628  0.63308  0.93326  1.0000
  N   N36       1.0  0.13112  0.36398  0.82681  1.0000
  H   H383      1.0  0.09761  0.64946  0.98959  1.0000
  S   S131      1.0  0.08529  0.34677  0.90167  1.0000
  S   S132      1.0  0.00924  0.58721  0.92610  1.0000
  C   C393      1.0  0.14871  0.53425  0.77320  1.0000
  Fe  Fe67      1.0  0.08592  0.34807  0.92930  1.0000
  C   C394      1.0  0.18368  0.53269  0.93339  1.0000
  H   H384      1.0  0.21932  0.42174  0.81845  1.0000
  C   C395      1.0  0.19050  0.51667  0.91044  1.0000
  C   C396      1.0  0.20876  0.51493  0.90892  1.0000
  C   C397      1.0  0.03775  0.57302  0.86811  1.0000
  C   C398      1.0  0.13063  0.36458  0.79672  1.0000
  H   H385      1.0  0.13459  0.54011  0.77653  1.0000
  C   C399      1.0  0.12235  0.36284  0.81473  1.0000
  H   H386      1.0  0.11230  0.38322  0.96452  1.0000
  H   H387      1.0  0.03572  0.56251  0.83955  1.0000
  H   H388      1.0  0.17398  0.53921  0.94336  1.0000
  H   H389      1.0  0.15627  0.52358  0.91302  1.0000
  C   C400      1.0  0.21442  0.52227  0.91989  1.0000
  H   H390      1.0  0.21840  0.50778  0.89937  1.0000
  H   H391      1.0  0.21030  0.48443  0.96008  1.0000
  H   H392      1.0  0.19765  0.49912  0.79280  1.0000
  H   H393      1.0  0.18704  0.35365  0.70467  1.0000
  C   C401      1.0  0.20183  0.53132  0.93213  1.0000
  C   C402      1.0  0.01205  0.58050  0.83277  1.0000
  N   N37       1.0  0.17569  0.51743  0.78269  1.0000
  H   H394      1.0  0.20008  0.42716  0.79678  1.0000
  H   H395      1.0  0.20610  0.53681  0.94096  1.0000
  H   H396      1.0  0.23526  0.45304  0.89644  1.0000
  H   H397      1.0  0.01112  0.60099  0.87167  1.0000
  C   C403      1.0  0.20182  0.38465  0.83426  1.0000
  C   C404      1.0  0.20074  0.41518  0.80714  1.0000
  C   C405      1.0  0.01150  0.59523  0.86069  1.0000
  H   H398      1.0  0.15033  0.54129  0.74490  1.0000
  N   N38       1.0  0.16952  0.41183  0.86764  1.0000
  C   C406      1.0  0.16780  0.42277  0.85147  1.0000
  C   C407      1.0  0.16364  0.39621  0.87291  1.0000
  C   C408      1.0  0.15982  0.41830  0.84017  1.0000
  C   C409      1.0  0.15600  0.39111  0.86172  1.0000
  C   C410      1.0  0.15383  0.40240  0.84538  1.0000
  C   C411      1.0  0.17654  0.41762  0.87982  1.0000
  S   S133      1.0  0.22855  0.34288  0.84697  1.0000
  H   H399      1.0  0.16451  0.38776  0.88594  1.0000
  H   H400      1.0  0.15828  0.42715  0.82747  1.0000
  H   H401      1.0  0.15145  0.37868  0.86590  1.0000
  H   H402      1.0  0.14761  0.39889  0.83669  1.0000
  Fe  Fe68      1.0  0.11393  0.33281  0.90000  1.0000
  Fe  Fe69      1.0  0.22569  0.36375  0.86216  1.0000
  C   C412      1.0  0.21965  0.35717  0.94689  1.0000
  N   N39       1.0  0.13217  0.44688  0.74901  1.0000
  C   C413      1.0  0.12869  0.45822  0.76029  1.0000
  C   C414      1.0  0.13697  0.42884  0.75503  1.0000
  C   C415      1.0  0.12986  0.45156  0.77814  1.0000
  C   C416      1.0  0.13848  0.42176  0.77275  1.0000
  C   C417      1.0  0.13495  0.43322  0.78433  1.0000
  C   C418      1.0  0.13227  0.45415  0.73006  1.0000
  H   H403      1.0  0.12525  0.47255  0.75550  1.0000
  H   H404      1.0  0.14025  0.41989  0.74597  1.0000
  H   H405      1.0  0.12719  0.46063  0.78698  1.0000
  H   H406      1.0  0.14296  0.40754  0.77732  1.0000
  Fe  Fe70      1.0  0.00097  0.61168  0.93814  1.0000
  H   H407      1.0  0.14560  0.45704  0.72300  1.0000
  H   H408      1.0  0.12967  0.44448  0.72379  1.0000
  H   H409      1.0  0.12190  0.46657  0.72806  1.0000
  H   H410      1.0  0.22837  0.44911  0.86938  1.0000
  C   C419      1.0  0.22407  0.35721  0.74119  1.0000
  H   H411      1.0  0.12891  0.34962  0.85351  1.0000
  C   C420      1.0  0.17008  0.37717  0.96476  1.0000
  H   H412      1.0  0.16446  0.34511  0.89399  1.0000
  H   H413      1.0  0.14789  0.41878  0.97035  1.0000
  H   H414      1.0  0.08719  0.36640  0.98909  1.0000
  S   S134      1.0  0.18013  0.33465  0.85621  1.0000
  C   C421      1.0  0.15014  0.40503  0.96928  1.0000
  C   C422      1.0  0.16732  0.33224  0.90286  1.0000
  H   H415      1.0  0.24394  0.42647  0.91964  1.0000
  C   C423      1.0  0.06264  0.34962  0.97130  1.0000
  C   C424      1.0  0.24143  0.42487  0.90751  1.0000
  H   H416      1.0  0.22618  0.37151  0.96274  1.0000
  H   H417      1.0  0.17075  0.36961  0.79949  1.0000
  H   H418      1.0  0.15474  0.36834  0.77724  1.0000
  H   H419      1.0  0.12320  0.37372  0.85064  1.0000
  C   C425      1.0  0.20515  0.33859  0.74014  1.0000
  H   H420      1.0  0.11826  0.36701  0.98396  1.0000
  C   C426      1.0  0.24034  0.38789  0.88741  1.0000
  C   C427      1.0  0.23401  0.42028  0.87724  1.0000
  C   C428      1.0  0.14805  0.36728  0.79113  1.0000
  S   S135      1.0  0.22378  0.52832  0.98463  1.0000
  H   H421      1.0  0.23034  0.49911  0.96759  1.0000
  H   H422      1.0  0.13653  0.42793  0.79796  1.0000
  H   H423      1.0  0.24405  0.37724  0.89887  1.0000
  C   C429      1.0  0.15702  0.36801  0.80360  1.0000
  C   C430      1.0  0.12240  0.36230  0.84565  1.0000
  H   H424      1.0  0.00561  0.53587  0.86269  1.0000
  C   C431      1.0  0.15542  0.37028  0.96560  1.0000
  S   S136      1.0  0.15138  0.33109  0.77487  1.0000
  S   S137      1.0  0.11400  0.33215  0.92836  1.0000
  H   H425      1.0  0.18395  0.33476  0.72223  1.0000
  N   N40       1.0  0.13854  0.38058  0.96816  1.0000
  C   C432      1.0  0.24277  0.40785  0.90496  1.0000
  Fe  Fe71      1.0  0.20324  0.33755  0.86583  1.0000
  H   H426      1.0  0.07226  0.43150  0.89046  1.0000
  H   H427      1.0  0.18343  0.36903  0.96252  1.0000
  H   H428      1.0  0.22446  0.34422  0.95472  1.0000
  H   H429      1.0  0.17842  0.34188  0.91923  1.0000
  C   C433      1.0  0.07630  0.36136  0.98812  1.0000
  C   C434      1.0  0.20906  0.51878  0.97884  1.0000
  H   H430      1.0  0.23591  0.45629  0.72662  1.0000
  C   C435      1.0  0.19060  0.52514  0.98266  1.0000
  H   H431      1.0  0.22957  0.37726  0.71743  1.0000
  C   C436      1.0  0.03112  0.64087  0.99295  1.0000
  H   H432      1.0  0.01223  0.57433  0.82212  1.0000
  H   H433      1.0  0.21599  0.33610  0.76295  1.0000
  H   H434      1.0  0.22646  0.63172  0.99117  1.0000
  H   H435      1.0  0.16499  0.52163  0.98167  1.0000
  S   S138      1.0  0.02371  0.62682  0.98392  1.0000
  H   H436      1.0  0.18503  0.53645  0.98892  1.0000
  S   S139      1.0  0.21588  0.57923  0.98931  1.0000
  H   H437      1.0  0.09733  0.33158  0.87070  1.0000
  C   C437      1.0  0.02944  0.65918  0.98593  1.0000
  C   C438      1.0  0.11412  0.62291  0.99277  1.0000
  C   C439      1.0  0.17522  0.33038  0.91700  1.0000
  S   S140      1.0  0.13473  0.94639  0.36191  1.0000
  Fe  Fe72      1.0  0.23044  0.90829  0.23788  1.0000
  S   S141      1.0  0.22639  0.93611  0.24162  1.0000
  Fe  Fe73      1.0  0.20045  0.89926  0.26909  1.0000
  S   S142      1.0  0.19429  0.92591  0.27607  1.0000
  S   S143      1.0  0.18311  0.88057  0.28667  1.0000
  Fe  Fe74      1.0  0.19718  0.93661  0.24675  1.0000
  S   S144      1.0  0.16300  0.98383  0.42644  1.0000
  Fe  Fe75      1.0  0.22376  0.92307  0.27059  1.0000
  H   H438      1.0  0.12317  0.94323  0.25679  1.0000
  S   S145      1.0  0.20140  0.91006  0.24003  1.0000
  S   S146      1.0  0.22991  0.89510  0.26658  1.0000
  Fe  Fe76      1.0  0.10214  0.86483  0.39808  1.0000
  S   S147      1.0  0.13130  0.85408  0.39734  1.0000
  S   S148      1.0  0.09383  0.88526  0.37475  1.0000
  Fe  Fe77      1.0  0.09124  0.84046  0.43340  1.0000
  S   S149      1.0  0.11957  0.82728  0.43520  1.0000
  S   S150      1.0  0.06691  0.83528  0.45448  1.0000
  Fe  Fe78      1.0  0.12409  0.85527  0.42618  1.0000
  S   S151      1.0  0.14055  0.86367  0.44018  1.0000
  Fe  Fe79      1.0  0.12374  0.82746  0.40611  1.0000
  S   S152      1.0  0.14176  0.80631  0.39152  1.0000
  S   S153      1.0  0.09552  0.86841  0.42618  1.0000
  S   S154      1.0  0.09494  0.83822  0.40509  1.0000
  Fe  Fe80      1.0  0.13363  0.78804  0.30513  1.0000
  S   S155      1.0  0.15450  0.76329  0.30160  1.0000
  S   S156      1.0  0.11388  0.79042  0.33110  1.0000
  Fe  Fe81      1.0  0.15071  0.80988  0.27015  1.0000
  S   S157      1.0  0.17320  0.78686  0.26433  1.0000
  S   S158      1.0  0.15184  0.83680  0.25195  1.0000
  Fe  Fe82      1.0  0.15164  0.77108  0.27289  1.0000
  S   S159      1.0  0.15350  0.74981  0.25779  1.0000
  Fe  Fe83      1.0  0.17378  0.78147  0.29327  1.0000
  S   S160      1.0  0.19748  0.77594  0.30594  1.0000
  S   S161      1.0  0.12893  0.79458  0.27716  1.0000
  S   S162      1.0  0.15292  0.80558  0.29826  1.0000
  S   S163      1.0  0.21123  0.82402  0.38348  1.0000
  S   S164      1.0  0.21966  0.86254  0.36010  1.0000
  Fe  Fe84      1.0  0.21789  0.84761  0.38825  1.0000
  S   S165      1.0  0.20110  0.86005  0.41080  1.0000
  Fe  Fe85      1.0  0.21612  0.83763  0.35480  1.0000
  S   S166      1.0  0.19689  0.84084  0.33775  1.0000
  S   S167      1.0  0.08631  0.66600  0.04802  1.0000
  Fe  Fe86      1.0  0.20362  0.94469  0.42730  1.0000
  S   S168      1.0  0.17987  0.94548  0.45027  1.0000
  H   H439      1.0  0.21549  0.95749  0.35164  1.0000
  C   C440      1.0  0.20137  0.81575  0.25867  1.0000
  C   C441      1.0  0.22011  0.81273  0.43268  1.0000
  Fe  Fe87      1.0  0.18097  0.97447  0.44603  1.0000
  C   C442      1.0  0.10871  0.71819  0.23563  1.0000
  Fe  Fe88      1.0  0.16406  0.95476  0.42882  1.0000
  S   S169      1.0  0.13962  0.94602  0.42770  1.0000
  S   S170      1.0  0.20617  0.97258  0.42507  1.0000
  S   S171      1.0  0.18773  0.95211  0.40615  1.0000
  C   C443      1.0  0.11912  0.83648  0.32519  1.0000
  C   C444      1.0  0.10289  0.84985  0.35022  1.0000
  H   H440      1.0  0.17052  0.91538  0.40466  1.0000
  H   H441      1.0  0.21087  0.82952  0.28073  1.0000
  N   N41       1.0  0.13902  0.92460  0.27418  1.0000
  H   H442      1.0  0.21422  0.70536  0.16688  1.0000
  C   C445      1.0  0.13509  0.83610  0.32958  1.0000
  N   N42       1.0  0.11316  0.98280  0.39980  1.0000
  H   H443      1.0  0.12621  0.69599  0.22484  1.0000
  H   H444      1.0  0.19511  0.67297  0.13913  1.0000
  C   C446      1.0  0.11255  0.93625  0.30186  1.0000
  H   H445      1.0  0.23905  0.72661  0.41010  1.0000
  Fe  Fe89      1.0  0.11421  0.71284  0.15849  1.0000
  S   S172      1.0  0.10991  0.74266  0.15393  1.0000
  S   S173      1.0  0.09435  0.69865  0.15541  1.0000
  Fe  Fe90      1.0  0.15079  0.70752  0.16634  1.0000
  S   S174      1.0  0.14973  0.73665  0.16178  1.0000
  S   S175      1.0  0.17671  0.68919  0.17056  1.0000
  Fe  Fe91      1.0  0.12191  0.73775  0.17791  1.0000
  S   S176      1.0  0.11145  0.75440  0.19909  1.0000
  Fe  Fe92      1.0  0.13825  0.73862  0.13851  1.0000
  S   S177      1.0  0.14694  0.75436  0.11109  1.0000
  S   S178      1.0  0.12358  0.70816  0.18402  1.0000
  S   S179      1.0  0.14169  0.70937  0.14160  1.0000
  S   S180      1.0  0.20687  0.71192  0.05838  1.0000
  C   C447      1.0  0.16400  0.74226  0.09697  1.0000
  C   C448      1.0  0.16693  0.74919  0.07861  1.0000
  C   C449      1.0  0.18002  0.73970  0.06693  1.0000
  C   C450      1.0  0.19073  0.72350  0.07352  1.0000
  C   C451      1.0  0.18820  0.71671  0.09194  1.0000
  C   C452      1.0  0.17464  0.72597  0.10364  1.0000
  H   H446      1.0  0.15894  0.76186  0.07336  1.0000
  H   H447      1.0  0.18202  0.74504  0.05273  1.0000
  H   H448      1.0  0.19650  0.70422  0.09710  1.0000
  H   H449      1.0  0.17269  0.72064  0.11780  1.0000
  C   C453      1.0  0.09014  0.69308  0.10087  1.0000
  C   C454      1.0  0.10488  0.69852  0.10251  1.0000
  C   C455      1.0  0.10664  0.69976  0.11920  1.0000
  C   C456      1.0  0.09372  0.69540  0.13448  1.0000
  C   C457      1.0  0.07947  0.68906  0.13298  1.0000
  C   C458      1.0  0.07766  0.68790  0.11626  1.0000
  H   H450      1.0  0.11469  0.70240  0.09072  1.0000
  H   H451      1.0  0.11775  0.70454  0.12012  1.0000
  H   H452      1.0  0.15515  0.92959  0.24801  1.0000
  C   C459      1.0  0.05456  0.83224  0.49020  1.0000
  Fe  Fe93      1.0  0.22959  0.69324  0.06965  1.0000
  N   N43       1.0  0.13490  0.84211  0.34413  1.0000
  C   C460      1.0  0.22107  0.85499  0.23202  1.0000
  H   H453      1.0  0.18708  0.83295  0.43740  1.0000
  H   H454      1.0  0.17832  0.92801  0.38311  1.0000
  H   H455      1.0  0.21327  0.96509  0.27264  1.0000
  H   H456      1.0  0.21814  0.78547  0.42060  1.0000
  H   H457      1.0  0.22404  0.85585  0.27345  1.0000
  C   C461      1.0  0.20551  0.79491  0.42275  1.0000
  H   H458      1.0  0.12849  0.98696  0.41557  1.0000
  C   C462      1.0  0.12433  0.93731  0.27048  1.0000
  C   C463      1.0  0.11088  0.94331  0.28425  1.0000
  C   C464      1.0  0.20917  0.87684  0.41450  1.0000
  C   C465      1.0  0.19705  0.88994  0.42277  1.0000
  C   C466      1.0  0.20273  0.90393  0.42551  1.0000
  H   H459      1.0  0.18322  0.88933  0.42695  1.0000
  H   H460      1.0  0.19314  0.91411  0.43171  1.0000
  C   C467      1.0  0.14372  0.75371  0.23919  1.0000
  C   C468      1.0  0.15019  0.74179  0.22760  1.0000
  C   C469      1.0  0.14104  0.74257  0.21447  1.0000
  C   C470      1.0  0.12521  0.75522  0.21290  1.0000
  C   C471      1.0  0.11921  0.76769  0.22392  1.0000
  C   C472      1.0  0.12842  0.76698  0.23698  1.0000
  H   H461      1.0  0.16202  0.73150  0.22918  1.0000
  H   H462      1.0  0.14584  0.73290  0.20609  1.0000
  H   H463      1.0  0.10707  0.77763  0.22270  1.0000
  H   H464      1.0  0.12329  0.77625  0.24579  1.0000
  C   C473      1.0  0.19795  0.79382  0.31476  1.0000
  C   C474      1.0  0.20674  0.79086  0.32868  1.0000
  C   C475      1.0  0.20687  0.80522  0.33577  1.0000
  C   C476      1.0  0.19813  0.82249  0.32894  1.0000
  C   C477      1.0  0.18962  0.82538  0.31496  1.0000
  C   C478      1.0  0.18967  0.81118  0.30781  1.0000
  H   H465      1.0  0.21322  0.77748  0.33413  1.0000
  H   H466      1.0  0.21343  0.80291  0.34664  1.0000
  H   H467      1.0  0.18329  0.83878  0.30940  1.0000
  H   H468      1.0  0.18381  0.81389  0.29646  1.0000
  C   C479      1.0  0.06952  0.82908  0.47656  1.0000
  C   C480      1.0  0.08611  0.82070  0.48079  1.0000
  H   H469      1.0  0.16291  0.80233  0.41770  1.0000
  C   C481      1.0  0.19230  0.74105  0.12799  1.0000
  H   H470      1.0  0.09767  0.81797  0.47036  1.0000
  H   H471      1.0  0.24075  0.87121  0.32348  1.0000
  C   C482      1.0  0.10293  0.84328  0.33568  1.0000
  C   C483      1.0  0.13896  0.88667  0.43801  1.0000
  C   C484      1.0  0.12735  0.89959  0.42836  1.0000
  C   C485      1.0  0.12728  0.91777  0.42580  1.0000
  C   C486      1.0  0.13911  0.92316  0.43248  1.0000
  C   C487      1.0  0.15045  0.91027  0.44244  1.0000
  C   C488      1.0  0.15013  0.89211  0.44545  1.0000
  H   H472      1.0  0.11851  0.89559  0.42276  1.0000
  H   H473      1.0  0.11827  0.92764  0.41829  1.0000
  H   H474      1.0  0.15950  0.91426  0.44783  1.0000
  H   H475      1.0  0.15905  0.88220  0.45307  1.0000
  C   C489      1.0  0.13390  0.80247  0.37451  1.0000
  C   C490      1.0  0.11567  0.80433  0.37579  1.0000
  C   C491      1.0  0.10969  0.80047  0.36250  1.0000
  C   C492      1.0  0.12185  0.79504  0.34764  1.0000
  C   C493      1.0  0.14010  0.79332  0.34627  1.0000
  C   C494      1.0  0.14611  0.79683  0.35976  1.0000
  H   H476      1.0  0.10615  0.80829  0.38727  1.0000
  H   H477      1.0  0.09557  0.80177  0.36370  1.0000
  H   H478      1.0  0.14965  0.78892  0.33505  1.0000
  H   H479      1.0  0.16026  0.79515  0.35873  1.0000
  C   C495      1.0  0.06628  0.87124  0.48419  1.0000
  C   C496      1.0  0.12741  0.92305  0.30553  1.0000
  C   C497      1.0  0.19285  0.98166  0.25876  1.0000
  C   C498      1.0  0.17680  0.99397  0.28985  1.0000
  H   H480      1.0  0.06607  0.87445  0.47013  1.0000
  C   C499      1.0  0.17307  0.87019  0.27637  1.0000
  C   C500      1.0  0.17755  0.87140  0.25796  1.0000
  C   C501      1.0  0.17030  0.86179  0.25035  1.0000
  C   C502      1.0  0.15873  0.85081  0.26116  1.0000
  C   C503      1.0  0.15354  0.85039  0.27940  1.0000
  C   C504      1.0  0.16064  0.86011  0.28698  1.0000
  H   H481      1.0  0.18697  0.87928  0.24963  1.0000
  H   H482      1.0  0.17413  0.86236  0.23616  1.0000
  H   H483      1.0  0.14390  0.84270  0.28762  1.0000
  H   H484      1.0  0.15672  0.85961  0.30114  1.0000
  C   C505      1.0  0.12358  0.92938  0.36499  1.0000
  C   C506      1.0  0.12461  0.91535  0.37979  1.0000
  C   C507      1.0  0.11534  0.90190  0.38278  1.0000
  C   C508      1.0  0.10510  0.90235  0.37091  1.0000
  C   C509      1.0  0.10411  0.91634  0.35598  1.0000
  C   C510      1.0  0.11338  0.92989  0.35302  1.0000
  H   H485      1.0  0.13221  0.91504  0.38922  1.0000
  H   H486      1.0  0.11591  0.89133  0.39447  1.0000
  H   H487      1.0  0.09616  0.91668  0.34679  1.0000
  H   H488      1.0  0.11281  0.94060  0.34142  1.0000
  H   H489      1.0  0.09042  0.85532  0.35846  1.0000
  H   H490      1.0  0.16683  0.95401  0.27346  1.0000
  H   H491      1.0  0.24357  0.96054  0.37099  1.0000
  S   S181      1.0  0.23829  0.68379  0.37520  1.0000
  Fe  Fe94      1.0  0.12122  0.97168  0.34616  1.0000
  N   N44       1.0  0.20996  0.83098  0.25392  1.0000
  C   C511      1.0  0.21380  0.83649  0.26700  1.0000
  C   C512      1.0  0.21321  0.84019  0.23663  1.0000
  Fe  Fe95      1.0  0.07321  0.67648  0.07302  1.0000
  C   C513      1.0  0.14307  0.97807  0.24221  1.0000
  C   C514      1.0  0.23834  0.89814  0.30805  1.0000
  C   C515      1.0  0.20088  0.97506  0.27341  1.0000
  C   C516      1.0  0.23590  0.73983  0.40205  1.0000
  Fe  Fe96      1.0  0.05875  0.66649  0.04530  1.0000
  H   H492      1.0  0.21328  0.69050  0.15387  1.0000
  S   S182      1.0  0.08654  0.69531  0.07934  1.0000
  H   H493      1.0  0.12882  0.91738  0.31918  1.0000
  H   H494      1.0  0.22153  0.80560  0.44639  1.0000
  S   S183      1.0  0.04557  0.67998  0.06848  1.0000
  C   C517      1.0  0.18499  0.66987  0.13385  1.0000
  C   C518      1.0  0.11128  0.74309  0.07317  1.0000
  H   H495      1.0  0.17115  0.76022  0.33310  1.0000
  S   S184      1.0  0.23629  0.66566  0.13301  1.0000
  H   H496      1.0  0.07059  0.97277  0.39384  1.0000
  C   C519      1.0  0.21822  0.76142  0.38234  1.0000
  C   C520      1.0  0.07693  0.74087  0.12430  1.0000
  C   C521      1.0  0.13547  0.70100  0.24566  1.0000
  H   H497      1.0  0.17816  0.75412  0.39579  1.0000
  H   H498      1.0  0.99983  0.67329  0.02047  1.0000
  Fe  Fe97      1.0  0.18821  0.98006  0.40582  1.0000
  H   H499      1.0  0.09987  0.72091  0.22654  1.0000
  H   H500      1.0  0.14849  0.68124  0.20107  1.0000
  H   H501      1.0  0.20685  0.80512  0.26927  1.0000
  C   C522      1.0  0.22523  0.86050  0.24528  1.0000
  C   C523      1.0  0.15179  0.84143  0.34851  1.0000
  C   C524      1.0  0.23139  0.95524  0.37784  1.0000
  H   H502      1.0  0.14765  0.83052  0.32159  1.0000
  H   H503      1.0  0.23235  0.80798  0.42304  1.0000
  C   C525      1.0  0.13216  0.71181  0.25784  1.0000
  C   C526      1.0  0.11705  0.72568  0.25865  1.0000
  H   H504      1.0  0.21570  0.93297  0.33782  1.0000
  H   H505      1.0  0.19189  0.78053  0.41320  1.0000
  S   S185      1.0  0.22650  0.67694  0.41888  1.0000
  H   H506      1.0  0.16967  0.98429  0.37603  1.0000
  H   H507      1.0  0.14882  0.90808  0.25531  1.0000
  H   H508      1.0  0.09593  0.85530  0.46525  1.0000
  H   H509      1.0  0.18681  0.82020  0.26354  1.0000
  H   H510      1.0  0.10833  0.84784  0.48237  1.0000
  S   S186      1.0  0.04938  0.67590  0.01911  1.0000
  C   C527      1.0  0.23112  0.91293  0.35509  1.0000
  C   C528      1.0  0.08200  0.99184  0.39926  1.0000
  C   C529      1.0  0.19284  0.98123  0.28907  1.0000
  H   H511      1.0  0.20824  0.76474  0.37444  1.0000
  C   C530      1.0  0.19749  0.72681  0.14157  1.0000
  C   C531      1.0  0.16814  0.92015  0.39091  1.0000
  H   H512      1.0  0.20778  0.66895  0.04085  1.0000
  H   H513      1.0  0.02505  0.99349  0.37713  1.0000
  C   C532      1.0  0.17316  0.81897  0.42803  1.0000
  H   H514      1.0  0.16573  0.91237  0.26367  1.0000
  H   H515      1.0  0.08712  0.74980  0.23498  1.0000
  H   H516      1.0  0.16430  0.73917  0.33906  1.0000
  N   N45       1.0  0.20427  0.80973  0.42892  1.0000
  H   H517      1.0  0.06617  0.68380  0.11519  1.0000
  H   H518      1.0  0.11494  0.73437  0.26774  1.0000
  S   S187      1.0  0.10576  0.98818  0.28588  1.0000
  H   H519      1.0  0.17476  0.68225  0.13119  1.0000
  C   C533      1.0  0.22078  0.90447  0.42062  1.0000
  H   H520      1.0  0.09047  0.84327  0.33264  1.0000
  N   N46       1.0  0.16470  0.74979  0.36075  1.0000
  C   C534      1.0  0.22728  0.87735  0.40946  1.0000
  H   H521      1.0  0.06941  0.68564  0.14473  1.0000
  H   H522      1.0  0.09187  0.75408  0.25380  1.0000
  S   S188      1.0  0.22762  0.92250  0.42339  1.0000
  C   C535      1.0  0.11358  0.96647  0.39703  1.0000
  C   C536      1.0  0.12364  0.70414  0.23453  1.0000
  C   C537      1.0  0.17678  0.99433  0.26003  1.0000
  H   H523      1.0  0.20338  0.80969  0.24708  1.0000
  C   C538      1.0  0.14664  0.75319  0.36707  1.0000
  H   H524      1.0  0.13769  0.75363  0.35876  1.0000
  H   H525      1.0  0.15175  0.99311  0.35276  1.0000
  H   H526      1.0  0.09955  0.95387  0.28124  1.0000
  H   H527      1.0  0.11608  0.99312  0.24792  1.0000
  H   H528      1.0  0.15001  0.84204  0.36263  1.0000
  C   C539      1.0  0.15075  0.75756  0.39433  1.0000
  H   H529      1.0  0.14530  0.76110  0.40722  1.0000
  C   C540      1.0  0.13939  0.75712  0.38395  1.0000
  C   C541      1.0  0.22664  0.72041  0.12388  1.0000
  C   C542      1.0  0.18824  0.82141  0.43207  1.0000
  H   H530      1.0  0.12505  0.76048  0.38864  1.0000
  C   C543      1.0  0.22301  0.74393  0.39186  1.0000
  H   H531      1.0  0.12026  0.74324  0.06024  1.0000
  H   H532      1.0  0.09084  0.73512  0.06591  1.0000
  S   S189      1.0  0.21354  0.72714  0.39020  1.0000
  H   H533      1.0  0.09889  0.94973  0.39229  1.0000
  H   H534      1.0  0.11926  0.83104  0.31406  1.0000
  H   H535      1.0  0.06830  0.73116  0.12694  1.0000
  C   C544      1.0  0.24496  0.91373  0.30318  1.0000
  C   C545      1.0  0.09829  0.96255  0.39495  1.0000
  C   C546      1.0  0.21929  0.70162  0.15370  1.0000
  C   C547      1.0  0.09473  0.73872  0.07629  1.0000
  C   C548      1.0  0.22692  0.77453  0.38240  1.0000
  H   H536      1.0  0.14736  0.69046  0.24459  1.0000
  N   N47       1.0  0.16927  0.90532  0.38279  1.0000
  C   C549      1.0  0.22190  0.73455  0.11001  1.0000
  H   H537      1.0  0.23679  0.86710  0.40329  1.0000
  C   C550      1.0  0.19069  0.79202  0.41859  1.0000
  H   H538      1.0  0.16127  0.82864  0.34681  1.0000
  C   C551      1.0  0.11632  0.74705  0.08685  1.0000
  N   N48       1.0  0.10568  0.72885  0.24746  1.0000
  H   H539      1.0  0.15204  0.90696  0.29441  1.0000
  H   H540      1.0  0.24001  0.71222  0.12203  1.0000
  H   H541      1.0  0.12914  0.75047  0.08462  1.0000
  C   C552      1.0  0.08350  0.73822  0.09316  1.0000
  H   H542      1.0  0.07091  0.73427  0.09558  1.0000
  N   N49       1.0  0.08876  0.74167  0.10664  1.0000
  H   H543      1.0  0.06847  0.75424  0.12543  1.0000
  C   C553      1.0  0.14000  0.96879  0.27907  1.0000
  H   H544      1.0  0.10895  0.74934  0.11414  1.0000
  H   H545      1.0  0.08475  0.73612  0.13493  1.0000
  C   C554      1.0  0.10480  0.74635  0.10358  1.0000
  H   H546      1.0  0.19896  0.97614  0.30054  1.0000
  H   H547      1.0  0.21925  0.82719  0.43134  1.0000
  C   C555      1.0  0.22144  0.85133  0.26292  1.0000
  C   C556      1.0  0.17192  0.74708  0.34252  1.0000
  H   H548      1.0  0.16063  0.82857  0.43015  1.0000
  C   C557      1.0  0.16915  0.75392  0.38783  1.0000
  C   C558      1.0  0.17446  0.80425  0.42111  1.0000
  H   H549      1.0  0.17347  0.86614  0.36097  1.0000
  H   H550      1.0  0.14157  0.70998  0.26612  1.0000
  H   H551      1.0  0.23136  0.95066  0.39230  1.0000
  C   C559      1.0  0.08986  0.74340  0.24848  1.0000
  Fe  Fe98      1.0  0.10959  0.99077  0.31181  1.0000
  H   H552      1.0  0.16937  0.86129  0.39389  1.0000
  C   C560      1.0  0.22232  0.94402  0.35660  1.0000
  H   H553      1.0  0.22359  0.78786  0.37462  1.0000
  C   C561      1.0  0.15582  0.96226  0.26780  1.0000
  S   S190      1.0  0.17428  0.99028  0.46771  1.0000
  C   C562      1.0  0.17593  0.75016  0.37085  1.0000
  C   C563      1.0  0.24580  0.88329  0.31986  1.0000
  Fe  Fe99      1.0  0.23144  0.69992  0.39599  1.0000
  C   C564      1.0  0.17191  0.87723  0.36712  1.0000
  H   H554      1.0  0.11894  0.85424  0.36557  1.0000
  H   H555      1.0  0.17102  0.92159  0.35664  1.0000
  N   N50       1.0  0.21449  0.71679  0.13944  1.0000
  S   S191      1.0  0.09509  0.97721  0.33801  1.0000
  H   H556      1.0  0.10241  0.94117  0.31260  1.0000
  C   C565      1.0  0.11910  0.84920  0.35423  1.0000
  C   C566      1.0  0.16962  0.87447  0.38553  1.0000
  S   S192      1.0  0.24269  0.70066  0.08731  1.0000
  H   H557      1.0  0.24718  0.89118  0.40938  1.0000
  N   N51       1.0  0.08181  0.86282  0.48980  1.0000
  S   S193      1.0  0.23654  0.93194  0.28756  1.0000
  H   H558      1.0  0.07811  0.73821  0.25713  1.0000
  C   C567      1.0  0.17241  0.89428  0.35665  1.0000
  H   H559      1.0  0.17404  0.89657  0.34233  1.0000
  C   C568      1.0  0.12570  0.98004  0.27194  1.0000
  H   H560      1.0  0.15471  0.92905  0.39154  1.0000
  C   C569      1.0  0.15743  0.96691  0.24934  1.0000
  H   H561      1.0  0.03888  0.99271  0.34566  1.0000
  H   H562      1.0  0.18785  0.72368  0.15381  1.0000
  H   H563      1.0  0.18611  0.73991  0.34064  1.0000
  S   S194      1.0  0.17735  0.95949  0.23487  1.0000
  H   H564      1.0  0.20056  0.75553  0.10127  1.0000
  C   C570      1.0  0.16816  0.88877  0.39319  1.0000
  H   H565      1.0  0.16655  0.88636  0.40750  1.0000
  H   H566      1.0  0.13873  0.96468  0.29329  1.0000
  H   H567      1.0  0.15791  0.85257  0.33967  1.0000
  H   H568      1.0  0.19024  0.74764  0.36580  1.0000
  C   C571      1.0  0.15280  0.91835  0.25956  1.0000
  C   C572      1.0  0.17093  0.90829  0.36478  1.0000
  N   N52       1.0  0.23092  0.94059  0.37025  1.0000
  C   C573      1.0  0.14054  0.91726  0.29144  1.0000
  H   H569      1.0  0.20955  0.83624  0.22635  1.0000
  H   H570      1.0  0.04034  0.79933  0.49043  1.0000
  H   H571      1.0  0.17873  0.74886  0.12958  1.0000
  C   C574      1.0  0.24003  0.92372  0.37613  1.0000
  C   C575      1.0  0.20458  0.74483  0.11208  1.0000
  C   C576      1.0  0.22229  0.93025  0.34881  1.0000
  C   C577      1.0  0.23314  0.89097  0.41290  1.0000
  H   H572      1.0  0.23117  0.90208  0.34928  1.0000
  H   H573      1.0  0.12589  0.95647  0.39605  1.0000
  H   H574      1.0  0.23395  0.69658  0.15186  1.0000
  H   H575      1.0  0.22737  0.89754  0.30288  1.0000
  S   S195      1.0  0.22611  0.66700  0.08743  1.0000
  C   C578      1.0  0.23962  0.67106  0.33486  1.0000
  C   C579      1.0  0.24020  0.90964  0.36870  1.0000
  H   H576      1.0  0.14424  0.98177  0.22793  1.0000
  Fe  Fe100     1.0  0.24076  0.81362  0.37812  1.0000
  H   H577      1.0  0.19159  0.66585  0.12096  1.0000
  Fe  Fe101     1.0  0.24203  0.67302  0.10333  1.0000
  H   H578      1.0  0.22999  0.67439  0.34659  1.0000
  C   C580      1.0  0.08245  0.97541  0.39591  1.0000
  C   C581      1.0  0.12717  0.98450  0.25350  1.0000
  H   H579      1.0  0.23152  0.73733  0.09762  1.0000
  C   C582      1.0  0.09842  0.85913  0.47661  1.0000
  H   H580      1.0  0.19884  0.97677  0.24658  1.0000
  H   H581      1.0  0.14145  0.97703  0.39717  1.0000
  S   S196      1.0  0.13616  0.98280  0.31934  1.0000
  C   C583      1.0  0.24040  0.77013  0.39197  1.0000
  H   H582      1.0  0.22372  0.86233  0.21833  1.0000
  H   H583      1.0  0.10441  0.87111  0.47142  1.0000
  C   C584      1.0  0.12935  0.98702  0.40144  1.0000
  H   H584      1.0  0.21951  0.96629  0.37657  1.0000
  S   S197      1.0  0.24530  0.82526  0.34872  1.0000
  H   H585      1.0  0.24168  0.75475  0.33987  1.0000
  H   H586      1.0  0.04168  0.83868  0.48698  1.0000
  H   H587      1.0  0.20870  0.66747  0.32359  1.0000
  H   H588      1.0  0.23114  0.87203  0.24190  1.0000
  C   C585      1.0  0.09757  0.99532  0.40122  1.0000
  H   H589      1.0  0.15318  0.67278  0.15671  1.0000
  C   C586      1.0  0.17442  0.66996  0.18713  1.0000
  C   C587      1.0  0.24467  0.75287  0.40201  1.0000
  H   H590      1.0  0.01030  0.68343  0.04176  1.0000
  C   C588      1.0  0.15886  0.66942  0.20035  1.0000
  C   C589      1.0  0.00772  0.67010  0.04498  1.0000
  H   H591      1.0  0.03805  0.88195  0.49205  1.0000
  S   S198      1.0  0.24703  0.83619  0.38531  1.0000
  C   C590      1.0  0.00189  0.66423  0.03295  1.0000
  C   C591      1.0  0.03534  0.66969  0.99392  1.0000
  H   H592      1.0  0.01524  0.66285  0.07041  1.0000
  H   H593      1.0  0.24737  0.89623  0.37341  1.0000
  H   H594      1.0  0.24714  0.92107  0.38672  1.0000
  C   C592      1.0  0.08130  0.85457  0.59282  1.0000
  C   C593      1.0  0.06581  0.78006  0.50799  1.0000
  H   H595      1.0  0.10049  0.80857  0.50189  1.0000
  H   H596      1.0  0.00932  0.81299  0.50329  1.0000
  Fe  Fe102     1.0  0.01331  0.81965  0.57536  1.0000
  S   S199      1.0  0.02558  0.83720  0.55059  1.0000
  C   C594      1.0  0.05049  0.87115  0.51464  1.0000
  Fe  Fe103     1.0  0.04028  0.81853  0.59565  1.0000
  S   S200      1.0  0.05557  0.83559  0.57284  1.0000
  S   S201      1.0  0.04763  0.80864  0.62229  1.0000
  Fe  Fe104     1.0  0.02865  0.85187  0.56943  1.0000
  S   S202      1.0  0.02490  0.88143  0.56320  1.0000
  Fe  Fe105     1.0  0.05152  0.81949  0.55578  1.0000
  S   S203      1.0  0.07479  0.81048  0.53454  1.0000
  S   S204      1.0  0.01351  0.83629  0.59375  1.0000
  S   S205      1.0  0.03902  0.80048  0.57905  1.0000
  S   S206      1.0  0.01981  0.94747  0.64851  1.0000
  H   H597      1.0  0.08472  0.85373  0.57893  1.0000
  Fe  Fe106     1.0  0.02532  0.93292  0.62645  1.0000
  S   S207      1.0  0.03957  0.90440  0.62678  1.0000
  S   S208      1.0  0.03047  0.95646  0.60445  1.0000
  C   C595      1.0  0.02920  0.88785  0.58068  1.0000
  C   C596      1.0  0.02795  0.90585  0.57998  1.0000
  C   C597      1.0  0.03111  0.91098  0.59413  1.0000
  C   C598      1.0  0.03554  0.89814  0.60900  1.0000
  C   C599      1.0  0.03623  0.88021  0.60991  1.0000
  C   C600      1.0  0.03334  0.87503  0.59568  1.0000
  H   H598      1.0  0.02445  0.91586  0.56855  1.0000
  H   H599      1.0  0.03017  0.92491  0.59342  1.0000
  H   H600      1.0  0.03867  0.87034  0.62174  1.0000
  H   H601      1.0  0.03400  0.86114  0.59651  1.0000
  C   C601      1.0  0.00976  0.77895  0.64075  1.0000
  C   C602      1.0  0.08768  0.81536  0.49865  1.0000
  C   C603      1.0  0.02037  0.79093  0.62989  1.0000
  C   C604      1.0  0.03421  0.79373  0.63582  1.0000
  C   C605      1.0  0.03739  0.78452  0.65263  1.0000
  C   C606      1.0  0.02689  0.77242  0.66340  1.0000
  C   C607      1.0  0.07268  0.81846  0.51230  1.0000
  H   H602      1.0  0.01790  0.79788  0.61688  1.0000
  H   H603      1.0  0.04809  0.78657  0.65725  1.0000
  H   H604      1.0  0.02954  0.76521  0.67631  1.0000
  C   C608      1.0  0.01839  0.80531  0.51195  1.0000
  H   H605      1.0  0.07602  0.82807  0.60256  1.0000
  C   C609      1.0  0.07135  0.84173  0.62384  1.0000
  C   C610      1.0  0.02446  0.79344  0.54136  1.0000
  C   C611      1.0  0.08203  0.85856  0.50755  1.0000
  H   H606      1.0  0.02004  0.79157  0.55571  1.0000
  H   H607      1.0  0.05891  0.87258  0.64815  1.0000
  C   C612      1.0  0.08154  0.87010  0.59756  1.0000
  C   C613      1.0  0.05616  0.82706  0.50802  1.0000
  C   C614      1.0  0.05871  0.97858  0.64940  1.0000
  C   C615      1.0  0.07104  0.97948  0.65877  1.0000
  H   H608      1.0  0.06651  0.85898  0.53430  1.0000
  H   H609      1.0  0.05616  0.85008  0.65471  1.0000
  H   H610      1.0  0.05187  0.96762  0.65374  1.0000
  H   H611      1.0  0.07375  0.96904  0.67020  1.0000
  C   C616      1.0  0.05474  0.99224  0.63489  1.0000
  C   C617      1.0  0.01304  0.76962  0.65751  1.0000
  S   S209      1.0  0.03728  0.99358  0.62442  1.0000
  H   H612      1.0  0.04449  0.82927  0.51838  1.0000
  S   S210      1.0  0.00021  0.75427  0.67132  1.0000
  Fe  Fe107     1.0  0.02267  0.97172  0.62640  1.0000
  H   H613      1.0  0.06710  0.83060  0.63393  1.0000
  C   C618      1.0  0.06638  0.86258  0.52022  1.0000
  H   H614      1.0  0.07762  0.85474  0.65315  1.0000
  C   C619      1.0  0.07635  0.84022  0.60604  1.0000
  H   H615      1.0  0.08500  0.88150  0.58739  1.0000
  C   C620      1.0  0.03593  0.79753  0.50478  1.0000
  H   H616      1.0  0.99936  0.77664  0.63595  1.0000
  C   C621      1.0  0.04199  0.78614  0.53376  1.0000
  N   N53       1.0  0.07133  0.85713  0.62835  1.0000
  C   C622      1.0  0.06580  0.85865  0.64704  1.0000
  H   H617      1.0  0.07049  0.78766  0.49436  1.0000
  H   H618      1.0  0.02381  0.66519  0.97424  1.0000
  C   C623      1.0  0.07671  0.87108  0.61553  1.0000
  H   H619      1.0  0.05119  0.77891  0.54241  1.0000
  C   C624      1.0  0.12326  0.99531  0.61808  1.0000
  H   H620      1.0  0.06646  0.76615  0.50741  1.0000
  H   H621      1.0  0.09429  0.85175  0.51205  1.0000
  H   H622      1.0  0.07651  0.88337  0.61907  1.0000
  C   C625      1.0  0.05039  0.87547  0.49652  1.0000
  H   H623      1.0  0.00261  0.89609  0.63077  1.0000
  N   N54       1.0  0.04754  0.78832  0.51567  1.0000
  C   C626      1.0  0.07948  0.99400  0.65376  1.0000
  H   H624      1.0  0.99910  0.80914  0.53615  1.0000
  H   H625      1.0  0.03420  0.68381  0.98827  1.0000
  H   H626      1.0  0.07522  0.78002  0.51609  1.0000
  H   H627      1.0  0.03828  0.87437  0.52439  1.0000
  C   C627      1.0  0.01266  0.80321  0.53037  1.0000
  Fe  Fe108     1.0  0.00116  0.96185  0.60503  1.0000
  H   H628      1.0  0.11743  0.98945  0.63166  1.0000
  S   S211      1.0  0.09386  0.99540  0.66668  1.0000
  H   H629      1.0  0.99992  0.73761  0.74109  1.0000
  H   H630      1.0  0.99926  0.74433  0.70891  1.0000
  H   H631      1.0  0.14773  0.99601  0.62434  1.0000
  H   H632      1.0  0.27589  0.07025  0.48872  1.0000
  H   H633      1.0  0.31996  0.12402  0.00157  1.0000
  C   C628      1.0  0.26951  0.13130  0.48752  1.0000
  C   C629      1.0  0.26064  0.12637  0.47734  1.0000
  H   H634      1.0  0.41449  0.99904  0.00999  1.0000
  H   H635      1.0  0.35256  0.11289  0.99615  1.0000
  H   H636      1.0  0.25466  0.13632  0.46713  1.0000
  H   H637      1.0  0.25194  0.10494  0.47298  1.0000
  C   C630      1.0  0.40405  0.99767  0.00448  1.0000
  H   H638      1.0  0.27027  0.14514  0.48548  1.0000
  C   C631      1.0  0.25904  0.10864  0.48080  1.0000
  S   S212      1.0  0.36915  0.05912  0.91451  1.0000
  Fe  Fe109     1.0  0.28429  0.16551  0.92068  1.0000
  H   H639      1.0  0.28877  0.27747  0.90715  1.0000
  Fe  Fe110     1.0  0.31708  0.18098  0.91023  1.0000
  S   S213      1.0  0.30641  0.20362  0.88961  1.0000
  S   S214      1.0  0.34226  0.17858  0.91881  1.0000
  S   S215      1.0  0.29235  0.18462  0.93131  1.0000
  S   S216      1.0  0.31020  0.15994  0.90114  1.0000
  Fe  Fe111     1.0  0.45721  0.05602  0.85500  1.0000
  S   S217      1.0  0.44086  0.08388  0.85137  1.0000
  S   S218      1.0  0.44443  0.03261  0.86789  1.0000
  Fe  Fe112     1.0  0.49167  0.06732  0.83611  1.0000
  S   S219      1.0  0.47826  0.09618  0.83031  1.0000
  Fe  Fe113     1.0  0.46312  0.09082  0.85846  1.0000
  S   S220      1.0  0.45735  0.11190  0.87439  1.0000
  Fe  Fe114     1.0  0.45713  0.08691  0.82359  1.0000
  S   S221      1.0  0.44211  0.10302  0.80219  1.0000
  S   S222      1.0  0.47790  0.06254  0.86497  1.0000
  S   S223      1.0  0.47210  0.05840  0.82656  1.0000
  Fe  Fe115     1.0  0.35567  0.09175  0.79194  1.0000
  S   S224      1.0  0.35572  0.11244  0.76649  1.0000
  S   S225      1.0  0.37954  0.07016  0.79792  1.0000
  Fe  Fe116     1.0  0.31963  0.11049  0.81016  1.0000
  S   S226      1.0  0.31720  0.13302  0.78656  1.0000
  S   S227      1.0  0.30096  0.10995  0.83680  1.0000
  Fe  Fe117     1.0  0.32675  0.11138  0.77089  1.0000
  S   S228      1.0  0.31286  0.11583  0.74814  1.0000
  Fe  Fe118     1.0  0.34609  0.13188  0.78446  1.0000
  S   S229      1.0  0.35724  0.15644  0.77947  1.0000
  S   S230      1.0  0.32758  0.08871  0.79491  1.0000
  S   S231      1.0  0.34745  0.11130  0.80960  1.0000
  Fe  Fe119     1.0  0.40376  0.21588  0.84212  1.0000
  S   S232      1.0  0.41765  0.18801  0.85227  1.0000
  S   S233      1.0  0.38607  0.23135  0.86225  1.0000
  Fe  Fe120     1.0  0.41832  0.21348  0.80338  1.0000
  S   S234      1.0  0.43392  0.18551  0.81025  1.0000
  S   S235      1.0  0.41226  0.22674  0.77631  1.0000
  Fe  Fe121     1.0  0.40937  0.18097  0.83091  1.0000
  S   S236      1.0  0.39970  0.15576  0.83601  1.0000
  Fe  Fe122     1.0  0.44089  0.19520  0.83104  1.0000
  S   S237      1.0  0.46745  0.18490  0.83893  1.0000
  S   S238      1.0  0.39315  0.20817  0.82281  1.0000
  S   S239      1.0  0.42762  0.22386  0.82217  1.0000
  C   C632      1.0  0.39019  0.32410  0.64266  1.0000
  S   S240      1.0  0.47643  0.16918  0.96168  1.0000
  H   H640      1.0  0.32839  0.25536  0.85266  1.0000
  C   C633      1.0  0.47565  0.09482  0.95630  1.0000
  S   S241      1.0  0.47247  0.14628  0.93460  1.0000
  S   S242      1.0  0.26848  0.18676  0.58191  1.0000
  Fe  Fe123     1.0  0.48010  0.17187  0.93213  1.0000
  S   S243      1.0  0.46651  0.19622  0.91486  1.0000
  Fe  Fe124     1.0  0.47116  0.14228  0.96363  1.0000
  C   C634      1.0  0.29615  0.16324  0.85044  1.0000
  H   H641      1.0  0.44339  0.11021  0.91251  1.0000
  C   C635      1.0  0.31028  0.10572  0.97283  1.0000
  C   C636      1.0  0.43928  0.27548  0.74015  1.0000
  Fe  Fe125     1.0  0.37308  0.06851  0.93691  1.0000
  C   C637      1.0  0.43475  0.12613  0.97097  1.0000
  Fe  Fe126     1.0  0.28461  0.18858  0.55415  1.0000
  H   H642      1.0  0.31721  0.16161  0.56904  1.0000
  S   S244      1.0  0.30932  0.20022  0.54745  1.0000
  H   H643      1.0  0.29667  0.15717  0.96873  1.0000
  S   S245      1.0  0.28471  0.16049  0.55309  1.0000
  H   H644      1.0  0.28307  0.12238  0.50930  1.0000
  C   C638      1.0  0.26521  0.28248  0.87616  1.0000
  C   C639      1.0  0.44608  0.14155  0.83661  1.0000
  Fe  Fe127     1.0  0.36126  0.29775  0.56719  1.0000
  S   S246      1.0  0.33168  0.30461  0.57802  1.0000
  Fe  Fe128     1.0  0.36673  0.26498  0.59665  1.0000
  S   S247      1.0  0.33786  0.26930  0.61026  1.0000
  S   S248      1.0  0.38957  0.24540  0.60706  1.0000
  Fe  Fe129     1.0  0.33291  0.27502  0.58257  1.0000
  S   S249      1.0  0.30989  0.26472  0.57964  1.0000
  Fe  Fe130     1.0  0.33908  0.29819  0.60463  1.0000
  H   H645      1.0  0.33425  0.06243  0.93918  1.0000
  S   S250      1.0  0.36201  0.26878  0.56927  1.0000
  S   S251      1.0  0.36836  0.29314  0.59347  1.0000
  C   C640      1.0  0.27391  0.25018  0.88420  1.0000
  Fe  Fe131     1.0  0.45697  0.26125  0.68455  1.0000
  S   S252      1.0  0.47051  0.28278  0.66621  1.0000
  S   S253      1.0  0.47011  0.24118  0.70563  1.0000
  Fe  Fe132     1.0  0.42342  0.27557  0.67008  1.0000
  S   S254      1.0  0.43342  0.29871  0.65091  1.0000
  S   S255      1.0  0.39543  0.27390  0.67128  1.0000
  C   C641      1.0  0.29920  0.26666  0.90275  1.0000
  Fe  Fe133     1.0  0.44422  0.30105  0.67305  1.0000
  C   C642      1.0  0.43973  0.08552  0.93081  1.0000
  S   S256      1.0  0.44823  0.25521  0.66272  1.0000
  S   S257      1.0  0.43143  0.28008  0.69314  1.0000
  H   H646      1.0  0.30093  0.11890  0.86941  1.0000
  C   C643      1.0  0.46626  0.31741  0.61425  1.0000
  H   H647      1.0  0.32295  0.17390  0.80148  1.0000
  C   C644      1.0  0.27435  0.24962  0.54123  1.0000
  C   C645      1.0  0.25203  0.12598  0.65483  1.0000
  C   C646      1.0  0.38205  0.01042  0.98632  1.0000
  H   H648      1.0  0.26388  0.14256  0.75412  1.0000
  S   S258      1.0  0.39999  0.11750  0.93823  1.0000
  H   H649      1.0  0.29607  0.14441  0.61508  1.0000
  C   C647      1.0  0.33727  0.15750  0.82845  1.0000
  N   N55       1.0  0.33517  0.17546  0.82171  1.0000
  H   H650      1.0  0.47442  0.21307  0.93928  1.0000
  C   C648      1.0  0.49141  0.21100  0.95704  1.0000
  H   H651      1.0  0.48948  0.08958  0.94951  1.0000
  C   C649      1.0  0.39104  0.25163  0.62597  1.0000
  C   C650      1.0  0.40740  0.24772  0.63101  1.0000
  C   C651      1.0  0.40889  0.25448  0.64494  1.0000
  C   C652      1.0  0.39385  0.26442  0.65441  1.0000
  C   C653      1.0  0.37731  0.26734  0.65001  1.0000
  C   C654      1.0  0.37600  0.26138  0.63556  1.0000
  H   H652      1.0  0.41898  0.23980  0.62392  1.0000
  H   H653      1.0  0.42160  0.25175  0.64847  1.0000
  H   H654      1.0  0.36551  0.27445  0.65756  1.0000
  H   H655      1.0  0.36324  0.26417  0.63199  1.0000
  N   N56       1.0  0.28186  0.26197  0.54391  1.0000
  C   C655      1.0  0.31022  0.21678  0.55805  1.0000
  C   C656      1.0  0.29581  0.22317  0.57084  1.0000
  C   C657      1.0  0.29648  0.23703  0.57827  1.0000
  C   C658      1.0  0.31150  0.24475  0.57299  1.0000
  C   C659      1.0  0.32628  0.23778  0.56085  1.0000
  C   C660      1.0  0.32562  0.22385  0.55341  1.0000
  H   H656      1.0  0.28392  0.21782  0.57468  1.0000
  H   H657      1.0  0.28503  0.24225  0.58774  1.0000
  H   H658      1.0  0.33792  0.24363  0.55661  1.0000
  H   H659      1.0  0.33693  0.21888  0.54366  1.0000
  H   H660      1.0  0.44878  0.26290  0.74206  1.0000
  C   C661      1.0  0.37671  0.31438  0.64868  1.0000
  C   C662      1.0  0.28011  0.11772  0.96820  1.0000
  C   C663      1.0  0.34094  0.18586  0.82915  1.0000
  Fe  Fe134     1.0  0.29676  0.18293  0.88255  1.0000
  S   S259      1.0  0.37830  0.31431  0.54500  1.0000
  N   N57       1.0  0.32080  0.14450  0.97794  1.0000
  S   S260      1.0  0.26117  0.20025  0.54098  1.0000
  Fe  Fe135     1.0  0.35262  0.08333  0.96951  1.0000
  H   H661      1.0  0.43058  0.08331  0.92415  1.0000
  H   H662      1.0  0.32944  0.14451  0.58408  1.0000
  C   C664      1.0  0.42014  0.13598  0.94592  1.0000
  C   C665      1.0  0.41275  0.12084  0.95143  1.0000
  C   C666      1.0  0.34961  0.30690  0.66941  1.0000
  H   H663      1.0  0.34623  0.30376  0.65810  1.0000
  C   C667      1.0  0.26018  0.10467  0.79592  1.0000
  C   C668      1.0  0.29881  0.26553  0.53236  1.0000
  H   H664      1.0  0.42975  0.10146  0.98865  1.0000
  C   C669      1.0  0.30140  0.15103  0.98136  1.0000
  H   H665      1.0  0.33702  0.31404  0.67679  1.0000
  C   C670      1.0  0.42897  0.22849  0.75681  1.0000
  C   C671      1.0  0.44711  0.22362  0.75717  1.0000
  C   C672      1.0  0.45989  0.22670  0.74123  1.0000
  C   C673      1.0  0.45449  0.23469  0.72503  1.0000
  C   C674      1.0  0.43641  0.23878  0.72470  1.0000
  C   C675      1.0  0.42369  0.23581  0.74053  1.0000
  H   H666      1.0  0.45125  0.21796  0.76971  1.0000
  H   H667      1.0  0.47390  0.22346  0.74153  1.0000
  H   H668      1.0  0.43216  0.24436  0.71222  1.0000
  H   H669      1.0  0.40968  0.23954  0.74015  1.0000
  C   C676      1.0  0.46717  0.18824  0.85995  1.0000
  C   C677      1.0  0.48016  0.17754  0.86939  1.0000
  C   C678      1.0  0.47995  0.17985  0.88630  1.0000
  C   C679      1.0  0.46697  0.19314  0.89368  1.0000
  C   C680      1.0  0.45413  0.20400  0.88414  1.0000
  C   C681      1.0  0.45404  0.20137  0.86744  1.0000
  C   C682      1.0  0.41603  0.10848  0.96699  1.0000
  S   S261      1.0  0.27154  0.14408  0.94002  1.0000
  H   H670      1.0  0.44410  0.21436  0.88973  1.0000
  H   H671      1.0  0.44400  0.20974  0.86023  1.0000
  C   C683      1.0  0.29684  0.10432  0.74773  1.0000
  C   C684      1.0  0.28697  0.11100  0.73429  1.0000
  C   C685      1.0  0.26250  0.13230  0.76620  1.0000
  C   C686      1.0  0.26968  0.08794  0.74707  1.0000
  C   C687      1.0  0.27990  0.08094  0.76023  1.0000
  C   C688      1.0  0.29329  0.08920  0.76070  1.0000
  H   H672      1.0  0.28971  0.12262  0.72414  1.0000
  H   H673      1.0  0.48896  0.13836  0.79993  1.0000
  H   H674      1.0  0.30091  0.08385  0.77101  1.0000
  C   C689      1.0  0.37062  0.15573  0.79403  1.0000
  C   C690      1.0  0.37664  0.13986  0.80548  1.0000
  C   C691      1.0  0.38586  0.13984  0.81815  1.0000
  C   C692      1.0  0.38943  0.15571  0.81918  1.0000
  C   C693      1.0  0.38441  0.17142  0.80700  1.0000
  C   C694      1.0  0.37487  0.17147  0.79458  1.0000
  H   H675      1.0  0.37428  0.12755  0.80461  1.0000
  H   H676      1.0  0.39019  0.12752  0.82715  1.0000
  H   H677      1.0  0.38747  0.18365  0.80735  1.0000
  H   H678      1.0  0.37052  0.18378  0.78560  1.0000
  C   C695      1.0  0.47481  0.11191  0.88397  1.0000
  H   H679      1.0  0.27948  0.28097  0.55928  1.0000
  C   C696      1.0  0.27334  0.10297  0.73405  1.0000
  H   H680      1.0  0.40086  0.32136  0.63142  1.0000
  H   H681      1.0  0.32481  0.07478  0.95670  1.0000
  C   C697      1.0  0.47604  0.12787  0.88726  1.0000
  H   H682      1.0  0.46179  0.13229  0.79542  1.0000
  C   C698      1.0  0.43100  0.13868  0.95571  1.0000
  C   C699      1.0  0.35760  0.13216  0.97157  1.0000
  H   H683      1.0  0.46751  0.14028  0.88242  1.0000
  C   C700      1.0  0.42518  0.09349  0.80059  1.0000
  C   C701      1.0  0.41102  0.10440  0.79294  1.0000
  C   C702      1.0  0.39714  0.09724  0.79191  1.0000
  C   C703      1.0  0.39743  0.07904  0.79830  1.0000
  C   C704      1.0  0.41186  0.06800  0.80551  1.0000
  C   C705      1.0  0.42559  0.07524  0.80689  1.0000
  H   H684      1.0  0.41063  0.11846  0.78800  1.0000
  H   H685      1.0  0.38627  0.10578  0.78598  1.0000
  H   H686      1.0  0.41240  0.05384  0.81008  1.0000
  H   H687      1.0  0.43660  0.06665  0.81258  1.0000
  H   H688      1.0  0.30761  0.25313  0.52852  1.0000
  S   S262      1.0  0.36186  0.09625  0.94105  1.0000
  H   H689      1.0  0.27146  0.10900  0.93073  1.0000
  H   H690      1.0  0.28188  0.26598  0.85800  1.0000
  C   C706      1.0  0.37390  0.21675  0.87805  1.0000
  C   C707      1.0  0.36872  0.21830  0.89585  1.0000
  C   C708      1.0  0.35917  0.20636  0.90851  1.0000
  C   C709      1.0  0.35436  0.19328  0.90320  1.0000
  C   C710      1.0  0.35926  0.19191  0.88539  1.0000
  C   C711      1.0  0.36929  0.20347  0.87287  1.0000
  H   H691      1.0  0.37236  0.22854  0.89986  1.0000
  H   H692      1.0  0.35533  0.20741  0.92232  1.0000
  H   H693      1.0  0.35560  0.18171  0.88137  1.0000
  H   H694      1.0  0.37328  0.20223  0.85915  1.0000
  H   H695      1.0  0.38877  0.02124  0.93268  1.0000
  C   C712      1.0  0.29399  0.16268  0.83380  1.0000
  C   C713      1.0  0.29503  0.14635  0.82976  1.0000
  C   C714      1.0  0.29777  0.13052  0.84250  1.0000
  C   C715      1.0  0.29893  0.13113  0.85951  1.0000
  Fe  Fe136     1.0  0.25932  0.17194  0.54294  1.0000
  H   H696      1.0  0.29181  0.17487  0.82390  1.0000
  H   H697      1.0  0.29357  0.14603  0.81680  1.0000
  H   H698      1.0  0.33288  0.14921  0.82244  1.0000
  C   C716      1.0  0.44609  0.13708  0.82090  1.0000
  C   C717      1.0  0.38999  0.05200  0.90132  1.0000
  C   C718      1.0  0.39287  0.03737  0.89362  1.0000
  C   C719      1.0  0.40981  0.03105  0.88383  1.0000
  C   C720      1.0  0.42369  0.03972  0.88123  1.0000
  C   C721      1.0  0.42073  0.05449  0.88874  1.0000
  C   C722      1.0  0.40391  0.06056  0.89887  1.0000
  H   H699      1.0  0.38212  0.03072  0.89553  1.0000
  H   H700      1.0  0.41211  0.01961  0.87804  1.0000
  H   H701      1.0  0.43147  0.06111  0.88692  1.0000
  H   H702      1.0  0.40164  0.07207  0.90451  1.0000
  C   C723      1.0  0.31652  0.11760  0.95743  1.0000
  C   C724      1.0  0.30459  0.12966  0.94754  1.0000
  C   C725      1.0  0.28639  0.12964  0.95282  1.0000
  H   H703      1.0  0.33044  0.11805  0.95352  1.0000
  H   H704      1.0  0.30951  0.13897  0.93586  1.0000
  C   C726      1.0  0.27485  0.10089  0.50405  1.0000
  Fe  Fe137     1.0  0.38722  0.05583  0.97073  1.0000
  H   H705      1.0  0.43626  0.15065  0.95156  1.0000
  H   H706      1.0  0.26568  0.10842  0.72377  1.0000
  H   H707      1.0  0.37194  0.12719  0.96896  1.0000
  H   H708      1.0  0.29187  0.19233  0.63202  1.0000
  C   C727      1.0  0.30789  0.19033  0.60587  1.0000
  C   C728      1.0  0.45864  0.10357  0.93286  1.0000
  H   H709      1.0  0.32542  0.16367  0.95367  1.0000
  C   C729      1.0  0.43468  0.27070  0.59961  1.0000
  H   H710      1.0  0.42032  0.27090  0.55291  1.0000
  H   H711      1.0  0.41366  0.02552  0.94318  1.0000
  H   H712      1.0  0.41044  0.09670  0.97132  1.0000
  C   C730      1.0  0.27340  0.27135  0.55699  1.0000
  H   H713      1.0  0.35818  0.15266  0.94760  1.0000
  H   H714      1.0  0.47109  0.29138  0.72369  1.0000
  Fe  Fe138     1.0  0.45897  0.27893  0.64521  1.0000
  H   H715      1.0  0.43419  0.14217  0.84714  1.0000
  N   N58       1.0  0.30946  0.16376  0.59625  1.0000
  H   H716      1.0  0.30689  0.14423  0.58384  1.0000
  H   H717      1.0  0.43048  0.25113  0.58808  1.0000
  H   H718      1.0  0.35472  0.29423  0.67830  1.0000
  C   C731      1.0  0.31415  0.17979  0.59309  1.0000
  H   H719      1.0  0.33923  0.20008  0.82381  1.0000
  C   C732      1.0  0.44698  0.10066  0.92417  1.0000
  H   H720      1.0  0.33709  0.08959  0.91679  1.0000
  C   C733      1.0  0.46152  0.13622  0.80749  1.0000
  C   C734      1.0  0.25065  0.12111  0.76930  1.0000
  H   H721      1.0  0.28080  0.11313  0.80249  1.0000
  H   H722      1.0  0.39615  0.29406  0.75611  1.0000
  N   N59       1.0  0.36320  0.31772  0.66291  1.0000
  N   N60       1.0  0.38674  0.06706  0.84633  1.0000
  C   C735      1.0  0.37038  0.07747  0.84435  1.0000
  C   C736      1.0  0.39054  0.04935  0.84600  1.0000
  C   C737      1.0  0.35735  0.07022  0.84179  1.0000
  C   C738      1.0  0.37793  0.04173  0.84319  1.0000
  C   C739      1.0  0.36125  0.05228  0.84104  1.0000
  C   C740      1.0  0.40008  0.07500  0.84912  1.0000
  H   H723      1.0  0.36748  0.09155  0.84438  1.0000
  H   H724      1.0  0.40356  0.04112  0.84743  1.0000
  H   H725      1.0  0.34450  0.07857  0.83983  1.0000
  H   H726      1.0  0.38121  0.02786  0.84225  1.0000
  H   H727      1.0  0.35153  0.04669  0.83829  1.0000
  H   H728      1.0  0.40140  0.08755  0.83902  1.0000
  H   H729      1.0  0.39620  0.07781  0.86269  1.0000
  H   H730      1.0  0.41348  0.06596  0.84772  1.0000
  H   H731      1.0  0.48043  0.21422  0.96793  1.0000
  H   H732      1.0  0.33458  0.22796  0.88568  1.0000
  H   H733      1.0  0.31542  0.22228  0.91578  1.0000
  H   H734      1.0  0.34803  0.25025  0.86190  1.0000
  C   C741      1.0  0.31023  0.26946  0.88578  1.0000
  C   C742      1.0  0.25506  0.26675  0.90625  1.0000
  C   C743      1.0  0.49630  0.01714  0.85482  1.0000
  C   C744      1.0  0.32490  0.23896  0.89054  1.0000
  H   H735      1.0  0.28675  0.08330  0.95049  1.0000
  H   H736      1.0  0.26601  0.11773  0.97235  1.0000
  C   C745      1.0  0.29926  0.15741  0.61231  1.0000
  C   C746      1.0  0.44403  0.07356  0.94615  1.0000
  Fe  Fe139     1.0  0.38742  0.09358  0.94919  1.0000
  C   C747      1.0  0.25289  0.15550  0.62638  1.0000
  H   H737      1.0  0.29965  0.14785  0.87635  1.0000
  N   N61       1.0  0.31273  0.08457  0.93442  1.0000
  H   H738      1.0  0.41203  0.31545  0.69245  1.0000
  C   C748      1.0  0.31434  0.10833  0.90841  1.0000
  C   C749      1.0  0.28583  0.10443  0.92729  1.0000
  C   C750      1.0  0.29580  0.11372  0.91226  1.0000
  H   H739      1.0  0.40550  0.32038  0.73396  1.0000
  H   H740      1.0  0.28423  0.16264  0.63793  1.0000
  H   H741      1.0  0.49238  0.14576  0.84291  1.0000
  S   S263      1.0  0.27018  0.18681  0.90140  1.0000
  S   S264      1.0  0.32772  0.31527  0.62534  1.0000
  H   H742      1.0  0.29747  0.16107  0.98978  1.0000
  H   H743      1.0  0.30627  0.27043  0.53936  1.0000
  N   N62       1.0  0.41580  0.16373  0.76781  1.0000
  C   C751      1.0  0.40595  0.15758  0.76008  1.0000
  C   C752      1.0  0.41430  0.18168  0.76566  1.0000
  C   C753      1.0  0.39443  0.16949  0.74963  1.0000
  C   C754      1.0  0.40294  0.19395  0.75525  1.0000
  C   C755      1.0  0.39299  0.18778  0.74717  1.0000
  C   C756      1.0  0.42730  0.15095  0.77917  1.0000
  H   H744      1.0  0.40661  0.14340  0.76229  1.0000
  H   H745      1.0  0.42171  0.18670  0.77212  1.0000
  H   H746      1.0  0.38628  0.16453  0.74395  1.0000
  H   H747      1.0  0.40173  0.20814  0.75369  1.0000
  H   H748      1.0  0.38395  0.19714  0.73925  1.0000
  H   H749      1.0  0.41904  0.14552  0.79210  1.0000
  H   H750      1.0  0.43506  0.13959  0.77279  1.0000
  H   H751      1.0  0.43693  0.15721  0.78179  1.0000
  N   N63       1.0  0.40966  0.15230  0.89592  1.0000
  C   C757      1.0  0.39729  0.16412  0.90504  1.0000
  C   C758      1.0  0.42719  0.15343  0.89111  1.0000
  C   C759      1.0  0.40246  0.17733  0.90982  1.0000
  C   C760      1.0  0.43285  0.16630  0.89589  1.0000
  C   C761      1.0  0.42038  0.17835  0.90525  1.0000
  C   C762      1.0  0.40396  0.13898  0.89042  1.0000
  H   H752      1.0  0.38336  0.16333  0.90872  1.0000
  H   H753      1.0  0.43686  0.14439  0.88348  1.0000
  H   H754      1.0  0.39265  0.18668  0.91704  1.0000
  H   H755      1.0  0.44679  0.16703  0.89224  1.0000
  H   H756      1.0  0.42464  0.18847  0.90892  1.0000
  H   H757      1.0  0.41491  0.12701  0.88903  1.0000
  H   H758      1.0  0.39265  0.13426  0.90057  1.0000
  H   H759      1.0  0.39990  0.14482  0.87743  1.0000
  C   C763      1.0  0.41927  0.30087  0.58988  1.0000
  H   H760      1.0  0.46259  0.29737  0.70351  1.0000
  H   H761      1.0  0.33590  0.27275  0.85740  1.0000
  H   H762      1.0  0.45907  0.06757  0.96643  1.0000
  H   H763      1.0  0.29442  0.13988  0.98815  1.0000
  C   C764      1.0  0.31613  0.15296  0.58265  1.0000
  H   H764      1.0  0.30815  0.28259  0.87714  1.0000
  H   H765      1.0  0.29634  0.27567  0.52019  1.0000
  H   H766      1.0  0.46421  0.11537  0.92760  1.0000
  C   C765      1.0  0.41053  0.01244  0.94634  1.0000
  C   C766      1.0  0.42699  0.11116  0.97678  1.0000
  H   H767      1.0  0.28112  0.24205  0.53097  1.0000
  S   S265      1.0  0.40343  0.03234  0.98659  1.0000
  C   C767      1.0  0.29457  0.08995  0.93842  1.0000
  H   H768      1.0  0.28097  0.23764  0.88055  1.0000
  C   C768      1.0  0.26052  0.12367  0.63750  1.0000
  C   C769      1.0  0.29265  0.16762  0.62537  1.0000
  H   H769      1.0  0.39763  0.28044  0.56225  1.0000
  S   S266      1.0  0.29800  0.18341  0.85401  1.0000
  H   H770      1.0  0.31145  0.20318  0.60316  1.0000
  C   C770      1.0  0.43235  0.30590  0.72569  1.0000
  H   H771      1.0  0.48845  0.01376  0.84708  1.0000
  N   N64       1.0  0.47689  0.14327  0.82592  1.0000
  C   C771      1.0  0.25818  0.24605  0.55213  1.0000
  H   H772      1.0  0.32270  0.18458  0.58055  1.0000
  Fe  Fe140     1.0  0.28083  0.20563  0.91008  1.0000
  C   C772      1.0  0.41490  0.30768  0.73582  1.0000
  H   H773      1.0  0.25492  0.13085  0.54717  1.0000
  C   C773      1.0  0.49336  0.14590  0.82871  1.0000
  H   H774      1.0  0.40388  0.30449  0.57030  1.0000
  H   H775      1.0  0.48918  0.29636  0.58049  1.0000
  H   H776      1.0  0.37715  0.30408  0.64196  1.0000
  C   C774      1.0  0.45577  0.07689  0.95451  1.0000
  H   H777      1.0  0.46006  0.31472  0.62819  1.0000
  N   N65       1.0  0.44413  0.28983  0.72762  1.0000
  C   C775      1.0  0.46232  0.28822  0.71681  1.0000
  C   C776      1.0  0.48646  0.09605  0.88976  1.0000
  H   H778      1.0  0.40703  0.25790  0.57126  1.0000
  H   H779      1.0  0.48560  0.08366  0.88732  1.0000
  C   C777      1.0  0.48295  0.30714  0.58744  1.0000
  S   S267      1.0  0.32504  0.09096  0.98558  1.0000
  C   C778      1.0  0.30115  0.24964  0.91367  1.0000
  H   H780      1.0  0.35774  0.15400  0.86183  1.0000
  C   C779      1.0  0.34676  0.12421  0.98686  1.0000
  C   C780      1.0  0.46164  0.14475  0.83886  1.0000
  H   H781      1.0  0.28308  0.13760  0.77549  1.0000
  C   C781      1.0  0.48831  0.12791  0.89691  1.0000
  C   C782      1.0  0.34987  0.14646  0.95959  1.0000
  C   C783      1.0  0.33134  0.15259  0.96307  1.0000
  C   C784      1.0  0.32167  0.06969  0.94652  1.0000
  C   C785      1.0  0.26067  0.13841  0.62321  1.0000
  C   C786      1.0  0.47422  0.30342  0.60535  1.0000
  H   H782      1.0  0.29218  0.24712  0.92656  1.0000
  H   H783      1.0  0.49722  0.03128  0.84909  1.0000
  H   H784      1.0  0.32219  0.11564  0.89688  1.0000
  Fe  Fe141     1.0  0.26657  0.15983  0.58009  1.0000
  S   S268      1.0  0.36149  0.05568  0.96462  1.0000
  N   N66       1.0  0.41659  0.27725  0.57799  1.0000
  H   H785      1.0  0.46154  0.14810  0.85117  1.0000
  H   H786      1.0  0.27733  0.06918  0.77023  1.0000
  H   H787      1.0  0.28911  0.12536  0.90393  1.0000
  S   S269      1.0  0.37737  0.08265  0.97813  1.0000
  C   C787      1.0  0.31408  0.23567  0.90756  1.0000
  C   C788      1.0  0.43048  0.28864  0.60041  1.0000
  H   H788      1.0  0.33602  0.19049  0.79528  1.0000
  C   C789      1.0  0.41255  0.29494  0.57852  1.0000
  H   H789      1.0  0.43422  0.13403  0.81928  1.0000
  C   C790      1.0  0.33436  0.25868  0.86210  1.0000
  C   C791      1.0  0.29693  0.18424  0.62204  1.0000
  C   C792      1.0  0.41013  0.27134  0.56546  1.0000
  C   C793      1.0  0.39652  0.01004  0.94050  1.0000
  C   C794      1.0  0.35117  0.16004  0.85074  1.0000
  S   S270      1.0  0.47393  0.28124  0.61665  1.0000
  H   H790      1.0  0.44326  0.26110  0.60789  1.0000
  H   H791      1.0  0.49002  0.17157  0.89349  1.0000
  H   H792      1.0  0.34674  0.13532  0.84838  1.0000
  C   C795      1.0  0.47688  0.13947  0.81021  1.0000
  C   C796      1.0  0.27218  0.11561  0.79322  1.0000
  H   H793      1.0  0.35396  0.18655  0.84931  1.0000
  S   S271      1.0  0.26436  0.23094  0.91824  1.0000
  C   C797      1.0  0.29823  0.14748  0.86344  1.0000
  C   C798      1.0  0.32668  0.18384  0.80647  1.0000
  H   H794      1.0  0.26416  0.07087  0.51151  1.0000
  N   N67       1.0  0.32310  0.25573  0.88003  1.0000
  H   H795      1.0  0.41755  0.14563  0.93401  1.0000
  H   H796      1.0  0.41809  0.26525  0.76029  1.0000
  S   S272      1.0  0.26559  0.30243  0.86017  1.0000
  C   C799      1.0  0.32265  0.09364  0.91973  1.0000
  S   S273      1.0  0.44978  0.12859  0.98231  1.0000
  S   S274      1.0  0.39965  0.06672  0.94245  1.0000
  H   H797      1.0  0.31314  0.05985  0.95345  1.0000
  H   H798      1.0  0.31439  0.19375  0.81042  1.0000
  H   H799      1.0  0.49037  0.16738  0.86369  1.0000
  C   C800      1.0  0.26427  0.25047  0.90163  1.0000
  C   C801      1.0  0.34513  0.14955  0.84315  1.0000
  C   C802      1.0  0.34912  0.17831  0.84369  1.0000
  C   C803      1.0  0.40967  0.29295  0.74824  1.0000
  C   C804      1.0  0.42751  0.26518  0.58832  1.0000
  S   S275      1.0  0.27097  0.13528  0.60158  1.0000
  H   H800      1.0  0.43818  0.06190  0.95163  1.0000
  H   H801      1.0  0.26679  0.11042  0.63516  1.0000
  H   H802      1.0  0.47345  0.08858  0.97073  1.0000
  H   H803      1.0  0.25182  0.11454  0.66576  1.0000
  C   C805      1.0  0.40973  0.32930  0.69284  1.0000
  H   H804      1.0  0.46782  0.27449  0.71436  1.0000
  C   C806      1.0  0.25555  0.28273  0.89355  1.0000
  H   H805      1.0  0.41579  0.31481  0.59053  1.0000
  H   H806      1.0  0.43594  0.29296  0.60923  1.0000
  C   C807      1.0  0.25726  0.26803  0.56819  1.0000
  N   N68       1.0  0.46284  0.09181  0.94786  1.0000
  C   C808      1.0  0.42196  0.27677  0.75056  1.0000
  C   C809      1.0  0.27444  0.26621  0.87147  1.0000
  H   H807      1.0  0.25959  0.09370  0.80742  1.0000
  C   C810      1.0  0.29204  0.10589  0.97830  1.0000
  C   C811      1.0  0.32829  0.13064  0.98989  1.0000
  H   H808      1.0  0.43638  0.31741  0.71615  1.0000
  H   H809      1.0  0.37564  0.02141  0.97745  1.0000
  H   H810      1.0  0.25238  0.23603  0.55025  1.0000
  H   H811      1.0  0.49133  0.31743  0.63459  1.0000
  H   H812      1.0  0.48917  0.14028  0.89937  1.0000
  C   C812      1.0  0.27336  0.12945  0.77820  1.0000
  C   C813      1.0  0.24967  0.25524  0.56576  1.0000
  C   C814      1.0  0.48803  0.21034  0.94100  1.0000
  H   H813      1.0  0.47408  0.10927  0.95538  1.0000
  H   H814      1.0  0.48888  0.01590  0.86888  1.0000
  H   H815      1.0  0.43062  0.00013  0.96173  1.0000
  H   H816      1.0  0.28714  0.09678  0.99029  1.0000
  S   S276      1.0  0.25187  0.07820  0.74789  1.0000
  C   C815      1.0  0.26451  0.07760  0.49730  1.0000
  S   S277      1.0  0.25086  0.16461  0.52123  1.0000
  H   H817      1.0  0.28009  0.09112  0.51480  1.0000
  H   H818      1.0  0.25314  0.16695  0.61550  1.0000
  C   C816      1.0  0.42010  0.99800  0.95682  1.0000
  H   H819      1.0  0.25090  0.27512  0.57888  1.0000
  H   H820      1.0  0.49601  0.15903  0.82070  1.0000
  H   H821      1.0  0.49696  0.29492  0.63163  1.0000
  N   N69       1.0  0.24965  0.10748  0.78401  1.0000
  C   C817      1.0  0.48382  0.32477  0.57853  1.0000
  H   H822      1.0  0.35788  0.32706  0.59963  1.0000
  H   H823      1.0  0.49060  0.32757  0.56470  1.0000
  S   S278      1.0  0.44496  0.32752  0.67704  1.0000
  C   C818      1.0  0.27669  0.11850  0.50094  1.0000
  H   H824      1.0  0.25182  0.07681  0.49458  1.0000
  H   H825      1.0  0.24880  0.29526  0.89738  1.0000
  N   N70       1.0  0.26597  0.09620  0.49413  1.0000
  C   C819      1.0  0.39565  0.01233  0.99318  1.0000
  H   H826      1.0  0.31475  0.60479  0.43416  1.0000
  S   S279      1.0  0.46919  0.60067  0.44246  1.0000
  S   S280      1.0  0.47317  0.62444  0.47800  1.0000
  Fe  Fe142     1.0  0.30427  0.62953  0.28953  1.0000
  S   S281      1.0  0.29902  0.61468  0.31787  1.0000
  H   H827      1.0  0.26901  0.58329  0.15061  1.0000
  Fe  Fe143     1.0  0.29772  0.60037  0.27534  1.0000
  S   S282      1.0  0.29279  0.58292  0.30255  1.0000
  S   S283      1.0  0.29482  0.59406  0.25032  1.0000
  Fe  Fe144     1.0  0.27652  0.60816  0.31092  1.0000
  C   C820      1.0  0.37981  0.65071  0.26914  1.0000
  Fe  Fe145     1.0  0.31605  0.59115  0.30676  1.0000
  S   S284      1.0  0.33631  0.57209  0.32194  1.0000
  S   S285      1.0  0.28008  0.62516  0.28345  1.0000
  S   S286      1.0  0.32264  0.60641  0.27862  1.0000
  Fe  Fe146     1.0  0.42539  0.58128  0.33655  1.0000
  S   S287      1.0  0.42966  0.55208  0.34927  1.0000
  S   S288      1.0  0.40939  0.59382  0.31500  1.0000
  Fe  Fe147     1.0  0.44867  0.58863  0.35798  1.0000
  S   S289      1.0  0.45416  0.56018  0.37223  1.0000
  S   S290      1.0  0.46177  0.60805  0.36333  1.0000
  Fe  Fe148     1.0  0.45814  0.55385  0.34568  1.0000
  Fe  Fe149     1.0  0.42529  0.56159  0.37442  1.0000
  S   S291      1.0  0.40949  0.55060  0.40107  1.0000
  S   S292      1.0  0.45437  0.58236  0.33090  1.0000
  S   S293      1.0  0.41926  0.59082  0.36204  1.0000
  C   C821      1.0  0.40645  0.62962  0.41109  1.0000
  H   H828      1.0  0.38407  0.62603  0.48913  1.0000
  S   S294      1.0  0.36844  0.61793  0.43329  1.0000
  C   C822      1.0  0.34017  0.60792  0.35354  1.0000
  N   N71       1.0  0.27045  0.58673  0.12282  1.0000
  H   H829      1.0  0.28780  0.65883  0.46884  1.0000
  H   H830      1.0  0.43850  0.64317  0.39711  1.0000
  Fe  Fe150     1.0  0.36096  0.60570  0.46204  1.0000
  H   H831      1.0  0.43024  0.59743  0.43838  1.0000
  H   H832      1.0  0.39762  0.64812  0.44650  1.0000
  C   C823      1.0  0.29358  0.63014  0.47568  1.0000
  H   H833      1.0  0.36032  0.53740  0.45666  1.0000
  Fe  Fe151     1.0  0.46840  0.62578  0.45112  1.0000
  H   H834      1.0  0.33107  0.63768  0.44595  1.0000
  H   H835      1.0  0.41243  0.63589  0.48388  1.0000
  H   H836      1.0  0.27921  0.61093  0.14714  1.0000
  C   C824      1.0  0.28619  0.64682  0.46618  1.0000
  Fe  Fe152     1.0  0.48611  0.64788  0.46499  1.0000
  C   C825      1.0  0.32424  0.64260  0.43500  1.0000
  H   H837      1.0  0.26696  0.63330  0.44036  1.0000
  H   H838      1.0  0.37595  0.61280  0.36470  1.0000
  H   H839      1.0  0.30788  0.62800  0.40827  1.0000
  C   C826      1.0  0.43512  0.65718  0.39732  1.0000
  H   H840      1.0  0.28232  0.62155  0.09075  1.0000
  H   H841      1.0  0.35431  0.64047  0.36157  1.0000
  C   C827      1.0  0.27442  0.63245  0.45015  1.0000
  H   H842      1.0  0.30317  0.64133  0.35320  1.0000
  H   H843      1.0  0.40717  0.52116  0.43582  1.0000
  H   H844      1.0  0.27980  0.60366  0.45749  1.0000
  C   C828      1.0  0.39760  0.56912  0.41012  1.0000
  C   C829      1.0  0.38827  0.58397  0.39985  1.0000
  C   C830      1.0  0.37966  0.59927  0.40671  1.0000
  C   C831      1.0  0.38006  0.59948  0.42403  1.0000
  C   C832      1.0  0.38924  0.58454  0.43435  1.0000
  C   C833      1.0  0.39809  0.56941  0.42738  1.0000
  H   H845      1.0  0.38756  0.58351  0.38668  1.0000
  H   H846      1.0  0.37245  0.61075  0.39878  1.0000
  H   H847      1.0  0.38979  0.58470  0.44765  1.0000
  H   H848      1.0  0.40556  0.55808  0.43524  1.0000
  C   C834      1.0  0.27723  0.58428  0.25058  1.0000
  C   C835      1.0  0.27040  0.57232  0.26562  1.0000
  C   C836      1.0  0.25733  0.56375  0.26500  1.0000
  C   C837      1.0  0.29146  0.61452  0.47250  1.0000
  Fe  Fe153     1.0  0.32906  0.59330  0.48695  1.0000
  C   C838      1.0  0.27059  0.58784  0.23508  1.0000
  H   H849      1.0  0.27548  0.56932  0.27759  1.0000
  C   C839      1.0  0.26035  0.62409  0.03568  1.0000
  H   H850      1.0  0.25447  0.64100  0.36872  1.0000
  H   H851      1.0  0.27591  0.59694  0.22333  1.0000
  S   S295      1.0  0.25434  0.62716  0.07058  1.0000
  H   H852      1.0  0.27156  0.59426  0.09479  1.0000
  C   C840      1.0  0.41777  0.61354  0.41686  1.0000
  H   H853      1.0  0.40319  0.63212  0.39818  1.0000
  H   H854      1.0  0.37342  0.65808  0.42426  1.0000
  H   H855      1.0  0.38192  0.65139  0.25467  1.0000
  C   C841      1.0  0.46715  0.43392  0.48192  1.0000
  S   S296      1.0  0.41684  0.66053  0.37213  1.0000
  H   H856      1.0  0.26534  0.62816  0.34159  1.0000
  C   C842      1.0  0.35695  0.57773  0.31948  1.0000
  C   C843      1.0  0.36738  0.56909  0.33223  1.0000
  C   C844      1.0  0.38357  0.57378  0.33093  1.0000
  C   C845      1.0  0.38965  0.58683  0.31661  1.0000
  C   C846      1.0  0.37957  0.59491  0.30348  1.0000
  C   C847      1.0  0.36317  0.59056  0.30502  1.0000
  H   H857      1.0  0.36277  0.55898  0.34336  1.0000
  H   H858      1.0  0.39130  0.56733  0.34104  1.0000
  H   H859      1.0  0.38425  0.60486  0.29226  1.0000
  H   H860      1.0  0.35535  0.59720  0.29503  1.0000
  C   C848      1.0  0.40432  0.48418  0.46890  1.0000
  H   H861      1.0  0.47240  0.63065  0.37943  1.0000
  H   H862      1.0  0.42320  0.60388  0.40842  1.0000
  C   C849      1.0  0.28163  0.61570  0.45989  1.0000
  C   C850      1.0  0.46793  0.60265  0.42024  1.0000
  C   C851      1.0  0.46315  0.58897  0.41579  1.0000
  C   C852      1.0  0.46087  0.59066  0.39851  1.0000
  C   C853      1.0  0.46410  0.60573  0.38531  1.0000
  C   C854      1.0  0.46972  0.61902  0.38955  1.0000
  C   C855      1.0  0.47133  0.61765  0.40703  1.0000
  H   H863      1.0  0.46067  0.57723  0.42588  1.0000
  H   H864      1.0  0.45651  0.58033  0.39552  1.0000
  H   H865      1.0  0.27016  0.56381  0.11413  1.0000
  C   C856      1.0  0.35026  0.63595  0.31192  1.0000
  C   C857      1.0  0.33677  0.63761  0.30310  1.0000
  H   H866      1.0  0.45391  0.64617  0.35577  1.0000
  C   C858      1.0  0.38742  0.49024  0.47872  1.0000
  C   C859      1.0  0.43430  0.57807  0.48265  1.0000
  H   H867      1.0  0.35727  0.62288  0.31745  1.0000
  H   H868      1.0  0.33354  0.62579  0.30177  1.0000
  H   H869      1.0  0.37783  0.61015  0.34259  1.0000
  N   N72       1.0  0.33573  0.55407  0.28323  1.0000
  C   C860      1.0  0.32952  0.56206  0.26796  1.0000
  C   C861      1.0  0.35153  0.55644  0.28490  1.0000
  C   C862      1.0  0.33903  0.57305  0.25402  1.0000
  C   C863      1.0  0.36128  0.56749  0.27132  1.0000
  C   C864      1.0  0.35496  0.57584  0.25578  1.0000
  C   C865      1.0  0.32577  0.54250  0.29779  1.0000
  H   H870      1.0  0.31698  0.56027  0.26654  1.0000
  H   H871      1.0  0.35645  0.55011  0.29702  1.0000
  H   H872      1.0  0.33377  0.57971  0.24214  1.0000
  H   H873      1.0  0.37349  0.56977  0.27303  1.0000
  H   H874      1.0  0.36222  0.58467  0.24524  1.0000
  H   H875      1.0  0.33277  0.52835  0.29842  1.0000
  H   H876      1.0  0.32457  0.54599  0.31072  1.0000
  H   H877      1.0  0.31199  0.54404  0.29614  1.0000
  C   C866      1.0  0.27824  0.60698  0.13551  1.0000
  H   H878      1.0  0.28594  0.63029  0.11707  1.0000
  H   H879      1.0  0.44058  0.57351  0.47034  1.0000
  H   H880      1.0  0.33811  0.60622  0.42713  1.0000
  H   H881      1.0  0.36938  0.66237  0.27273  1.0000
  C   C867      1.0  0.27675  0.64804  0.45329  1.0000
  S   S297      1.0  0.37862  0.59442  0.48161  1.0000
  S   S298      1.0  0.44174  0.64429  0.45569  1.0000
  H   H882      1.0  0.36506  0.51228  0.48099  1.0000
  C   C868      1.0  0.37792  0.50748  0.47293  1.0000
  S   S299      1.0  0.48247  0.53288  0.33845  1.0000
  H   H883      1.0  0.32361  0.65653  0.35932  1.0000
  C   C869      1.0  0.26442  0.66252  0.30499  1.0000
  H   H884      1.0  0.45042  0.65388  0.41684  1.0000
  C   C870      1.0  0.30692  0.65549  0.40689  1.0000
  C   C871      1.0  0.34532  0.63349  0.35952  1.0000
  C   C872      1.0  0.32795  0.64268  0.35822  1.0000
  C   C873      1.0  0.31655  0.63418  0.35464  1.0000
  S   S300      1.0  0.48387  0.64726  0.43745  1.0000
  N   N73       1.0  0.31983  0.63099  0.42789  1.0000
  H   H885      1.0  0.32549  0.60888  0.44901  1.0000
  H   H886      1.0  0.44552  0.65177  0.33618  1.0000
  C   C874      1.0  0.40325  0.63844  0.43811  1.0000
  C   C875      1.0  0.41437  0.62240  0.44438  1.0000
  C   C876      1.0  0.42164  0.60991  0.43366  1.0000
  C   C877      1.0  0.27254  0.59132  0.13736  1.0000
  C   C878      1.0  0.48486  0.43028  0.48374  1.0000
  C   C879      1.0  0.32772  0.65448  0.29580  1.0000
  C   C880      1.0  0.25058  0.56741  0.24955  1.0000
  H   H887      1.0  0.31396  0.60988  0.34952  1.0000
  C   C881      1.0  0.35479  0.65107  0.31362  1.0000
  H   H888      1.0  0.37897  0.54583  0.45710  1.0000
  H   H889      1.0  0.37165  0.59297  0.36158  1.0000
  C   C882      1.0  0.31963  0.66098  0.42856  1.0000
  N   N74       1.0  0.39938  0.64184  0.42168  1.0000
  S   S301      1.0  0.26465  0.65345  0.39945  1.0000
  Fe  Fe154     1.0  0.44778  0.64491  0.48123  1.0000
  H   H890      1.0  0.27395  0.65937  0.29315  1.0000
  H   H891      1.0  0.48677  0.57239  0.37273  1.0000
  C   C883      1.0  0.40152  0.51247  0.44787  1.0000
  N   N75       1.0  0.39639  0.65079  0.27375  1.0000
  C   C884      1.0  0.37006  0.60760  0.35653  1.0000
  S   S302      1.0  0.26845  0.66053  0.08873  1.0000
  H   H892      1.0  0.46924  0.64915  0.33443  1.0000
  C   C885      1.0  0.32484  0.61175  0.43477  1.0000
  H   H893      1.0  0.37755  0.54048  0.43701  1.0000
  H   H894      1.0  0.46371  0.44079  0.46923  1.0000
  H   H895      1.0  0.41191  0.47089  0.47343  1.0000
  H   H896      1.0  0.47524  0.62817  0.41026  1.0000
  C   C886      1.0  0.27985  0.61304  0.10391  1.0000
  S   S303      1.0  0.30186  0.59353  0.48350  1.0000
  C   C887      1.0  0.44155  0.58958  0.48767  1.0000
  S   S304      1.0  0.33825  0.61894  0.48062  1.0000
  H   H897      1.0  0.38185  0.48176  0.49096  1.0000
  C   C888      1.0  0.27386  0.59746  0.10627  1.0000
  C   C889      1.0  0.38699  0.65841  0.41590  1.0000
  H   H898      1.0  0.30051  0.62941  0.48584  1.0000
  S   S305      1.0  0.35112  0.58075  0.46710  1.0000
  C   C890      1.0  0.28193  0.61788  0.11865  1.0000
  S   S306      1.0  0.37239  0.64787  0.32417  1.0000
  C   C891      1.0  0.32262  0.61661  0.35247  1.0000
  Fe  Fe155     1.0  0.25266  0.65585  0.07150  1.0000
  H   H899      1.0  0.38624  0.66030  0.40180  1.0000
  H   H900      1.0  0.34496  0.59451  0.35116  1.0000
  H   H901      1.0  0.45343  0.59398  0.47933  1.0000
  N   N76       1.0  0.35128  0.61638  0.35701  1.0000
  N   N77       1.0  0.38489  0.51823  0.45753  1.0000
  C   C892      1.0  0.37493  0.53635  0.45179  1.0000
  H   H902      1.0  0.24877  0.57520  0.12504  1.0000
  H   H903      1.0  0.43812  0.65378  0.28768  1.0000
  H   H904      1.0  0.48979  0.56790  0.33218  1.0000
  C   C893      1.0  0.25914  0.61591  0.02259  1.0000
  Fe  Fe156     1.0  0.36657  0.57043  0.48862  1.0000
  H   H905      1.0  0.41735  0.61969  0.45743  1.0000
  H   H906      1.0  0.37470  0.63848  0.27645  1.0000
  S   S307      1.0  0.31100  0.65632  0.28449  1.0000
  H   H907      1.0  0.26480  0.56152  0.13789  1.0000
  C   C894      1.0  0.41145  0.49536  0.45338  1.0000
  H   H908      1.0  0.26957  0.63283  0.03252  1.0000
  H   H909      1.0  0.26726  0.61863  0.00932  1.0000
  S   S308      1.0  0.38687  0.54450  0.49063  1.0000
  C   C895      1.0  0.31143  0.63719  0.41388  1.0000
  C   C896      1.0  0.26324  0.57100  0.12506  1.0000
  C   C897      1.0  0.42658  0.65274  0.28361  1.0000
  H   H910      1.0  0.42028  0.63107  0.30564  1.0000
  C   C898      1.0  0.25716  0.57964  0.23462  1.0000
  C   C899      1.0  0.25286  0.62605  0.35047  1.0000
  H   H911      1.0  0.42462  0.49083  0.44569  1.0000
  H   H912      1.0  0.41343  0.56353  0.48965  1.0000
  H   H913      1.0  0.25238  0.55424  0.27657  1.0000
  H   H914      1.0  0.39366  0.62966  0.29673  1.0000
  H   H915      1.0  0.30003  0.66039  0.39597  1.0000
  C   C900      1.0  0.41663  0.64006  0.29367  1.0000
  H   H916      1.0  0.49508  0.43432  0.47244  1.0000
  C   C901      1.0  0.45570  0.65416  0.34189  1.0000
  C   C902      1.0  0.40152  0.63926  0.28850  1.0000
  C   C903      1.0  0.25051  0.62002  0.05307  1.0000
  H   H917      1.0  0.49119  0.53952  0.38092  1.0000
  H   H918      1.0  0.49342  0.53460  0.30034  1.0000
  H   H919      1.0  0.25221  0.58247  0.22259  1.0000
  H   H920      1.0  0.48905  0.51653  0.64483  1.0000
  Fe  Fe157     1.0  0.41218  0.42322  0.55992  1.0000
  S   S309      1.0  0.41271  0.44769  0.53822  1.0000
  S   S310      1.0  0.42587  0.41605  0.58287  1.0000
  Fe  Fe158     1.0  0.38545  0.41081  0.54746  1.0000
  S   S311      1.0  0.38371  0.43418  0.52424  1.0000
  S   S312      1.0  0.36700  0.39146  0.55936  1.0000
  Fe  Fe159     1.0  0.41342  0.42945  0.52091  1.0000
  C   C904      1.0  0.38827  0.62800  0.50011  1.0000
  Fe  Fe160     1.0  0.38316  0.45073  0.54308  1.0000
  H   H921      1.0  0.28219  0.40749  0.74080  1.0000
  S   S313      1.0  0.41533  0.40443  0.54231  1.0000
  S   S314      1.0  0.38246  0.42797  0.56665  1.0000
  H   H922      1.0  0.40681  0.36706  0.59914  1.0000
  C   C905      1.0  0.41633  0.46941  0.57990  1.0000
  H   H923      1.0  0.34261  0.41747  0.58168  1.0000
  C   C906      1.0  0.45385  0.42878  0.49651  1.0000
  H   H924      1.0  0.40284  0.63601  0.53940  1.0000
  S   S315      1.0  0.46370  0.43003  0.66274  1.0000
  H   H925      1.0  0.43887  0.60452  0.50740  1.0000
  Fe  Fe161     1.0  0.37377  0.41827  0.65200  1.0000
  S   S316      1.0  0.35325  0.41728  0.67775  1.0000
  S   S317      1.0  0.39150  0.43812  0.63913  1.0000
  Fe  Fe162     1.0  0.36381  0.38805  0.64261  1.0000
  S   S318      1.0  0.34289  0.38406  0.66744  1.0000
  S   S319      1.0  0.37127  0.37255  0.62108  1.0000
  Fe  Fe163     1.0  0.33512  0.41381  0.66229  1.0000
  S   S320      1.0  0.30630  0.42759  0.66354  1.0000
  C   C907      1.0  0.35746  0.51180  0.52771  1.0000
  S   S321      1.0  0.35464  0.41767  0.63616  1.0000
  S   S322      1.0  0.38462  0.38883  0.65623  1.0000
  S   S323      1.0  0.43018  0.64209  0.50858  1.0000
  C   C908      1.0  0.38971  0.33737  0.65125  1.0000
  H   H926      1.0  0.39795  0.56431  0.53344  1.0000
  C   C909      1.0  0.47564  0.33873  0.58745  1.0000
  H   H927      1.0  0.41151  0.59476  0.52608  1.0000
  S   S324      1.0  0.35807  0.61708  0.52194  1.0000
  H   H928      1.0  0.42390  0.38329  0.62334  1.0000
  C   C910      1.0  0.48201  0.65249  0.54422  1.0000
  C   C911      1.0  0.39882  0.63383  0.52839  1.0000
  C   C912      1.0  0.49059  0.51144  0.65887  1.0000
  N   N78       1.0  0.32951  0.40399  0.60661  1.0000
  H   H929      1.0  0.29700  0.37368  0.63492  1.0000
  C   C913      1.0  0.43343  0.59541  0.50348  1.0000
  S   S325      1.0  0.48191  0.46726  0.62262  1.0000
  C   C914      1.0  0.41202  0.35372  0.56643  1.0000
  H   H930      1.0  0.33964  0.42782  0.59992  1.0000
  S   S326      1.0  0.25153  0.39559  0.72997  1.0000
  C   C915      1.0  0.48126  0.39109  0.59792  1.0000
  S   S327      1.0  0.36749  0.36791  0.70561  1.0000
  C   C916      1.0  0.33963  0.33139  0.62405  1.0000
  C   C917      1.0  0.40321  0.36553  0.69292  1.0000
  C   C918      1.0  0.35874  0.35695  0.62253  1.0000
  H   H931      1.0  0.37459  0.62621  0.54464  1.0000
  C   C919      1.0  0.43521  0.36726  0.56622  1.0000
  C   C920      1.0  0.28651  0.44292  0.70821  1.0000
  H   H932      1.0  0.36370  0.45266  0.59468  1.0000
  C   C921      1.0  0.42333  0.34425  0.55376  1.0000
  H   H933      1.0  0.40890  0.44764  0.60090  1.0000
  C   C922      1.0  0.46723  0.39158  0.62922  1.0000
  C   C923      1.0  0.34413  0.35417  0.63652  1.0000
  H   H934      1.0  0.34011  0.36184  0.64670  1.0000
  S   S328      1.0  0.34352  0.58025  0.50946  1.0000
  H   H935      1.0  0.43012  0.46600  0.58116  1.0000
  N   N79       1.0  0.41795  0.36525  0.57225  1.0000
  H   H936      1.0  0.44972  0.33946  0.53722  1.0000
  C   C924      1.0  0.37761  0.62516  0.51731  1.0000
  C   C925      1.0  0.41800  0.58979  0.51402  1.0000
  C   C926      1.0  0.41053  0.48397  0.56700  1.0000
  C   C927      1.0  0.29100  0.41722  0.68080  1.0000
  C   C928      1.0  0.29683  0.40234  0.69347  1.0000
  C   C929      1.0  0.28446  0.39523  0.70803  1.0000
  C   C930      1.0  0.26628  0.40324  0.71027  1.0000
  H   H937      1.0  0.37477  0.34929  0.59832  1.0000
  C   C931      1.0  0.27272  0.42466  0.68254  1.0000
  H   H938      1.0  0.31089  0.39658  0.69237  1.0000
  H   H939      1.0  0.28910  0.38389  0.71794  1.0000
  H   H940      1.0  0.38197  0.33097  0.70543  1.0000
  H   H941      1.0  0.26812  0.43612  0.67273  1.0000
  C   C932      1.0  0.44347  0.43238  0.65642  1.0000
  C   C933      1.0  0.43067  0.42277  0.66739  1.0000
  C   C934      1.0  0.41476  0.42414  0.66213  1.0000
  C   C935      1.0  0.41139  0.43555  0.64612  1.0000
  C   C936      1.0  0.42402  0.44544  0.63542  1.0000
  C   C937      1.0  0.44008  0.44370  0.64043  1.0000
  H   H942      1.0  0.43313  0.41410  0.67987  1.0000
  H   H943      1.0  0.40498  0.41663  0.67058  1.0000
  H   H944      1.0  0.42145  0.45446  0.62314  1.0000
  H   H945      1.0  0.44970  0.45136  0.63202  1.0000
  C   C938      1.0  0.36978  0.49549  0.52962  1.0000
  C   C939      1.0  0.36140  0.34196  0.56173  1.0000
  H   H946      1.0  0.47949  0.40895  0.52733  1.0000
  C   C940      1.0  0.48937  0.42107  0.50004  1.0000
  C   C941      1.0  0.33457  0.34143  0.63726  1.0000
  C   C942      1.0  0.38732  0.49453  0.51987  1.0000
  C   C943      1.0  0.28960  0.41838  0.73428  1.0000
  H   H947      1.0  0.43996  0.37634  0.57092  1.0000
  C   C944      1.0  0.26081  0.43820  0.73076  1.0000
  C   C945      1.0  0.42042  0.35655  0.68623  1.0000
  C   C946      1.0  0.44260  0.42763  0.58024  1.0000
  C   C947      1.0  0.45123  0.43551  0.56338  1.0000
  C   C948      1.0  0.46457  0.44468  0.56177  1.0000
  C   C949      1.0  0.46943  0.44582  0.57699  1.0000
  C   C950      1.0  0.46067  0.43807  0.59379  1.0000
  C   C951      1.0  0.44723  0.42911  0.59541  1.0000
  H   H948      1.0  0.44773  0.43446  0.55157  1.0000
  H   H949      1.0  0.47112  0.45085  0.54870  1.0000
  H   H950      1.0  0.46399  0.43926  0.60559  1.0000
  H   H951      1.0  0.44019  0.42358  0.60851  1.0000
  N   N80       1.0  0.48799  0.49307  0.66524  1.0000
  C   C952      1.0  0.45832  0.41999  0.51294  1.0000
  C   C953      1.0  0.47611  0.41592  0.51465  1.0000
  H   H952      1.0  0.44813  0.41615  0.52430  1.0000
  H   H953      1.0  0.39593  0.34358  0.52590  1.0000
  C   C954      1.0  0.40591  0.37499  0.58555  1.0000
  C   C955      1.0  0.38569  0.34787  0.53682  1.0000
  C   C956      1.0  0.38337  0.36506  0.53989  1.0000
  C   C957      1.0  0.37005  0.37062  0.55399  1.0000
  C   C958      1.0  0.35901  0.35904  0.56471  1.0000
  C   C959      1.0  0.39273  0.33807  0.70029  1.0000
  S   S329      1.0  0.47626  0.36089  0.57669  1.0000
  H   H954      1.0  0.39184  0.37396  0.53140  1.0000
  H   H955      1.0  0.34861  0.36311  0.57556  1.0000
  H   H956      1.0  0.29951  0.39932  0.64578  1.0000
  H   H957      1.0  0.41985  0.49180  0.55801  1.0000
  N   N81       1.0  0.46609  0.38964  0.61308  1.0000
  C   C960      1.0  0.42359  0.33852  0.68589  1.0000
  C   C961      1.0  0.40961  0.63649  0.51131  1.0000
  C   C962      1.0  0.30598  0.38232  0.62692  1.0000
  H   H958      1.0  0.38794  0.49970  0.55580  1.0000
  H   H959      1.0  0.30066  0.43902  0.70272  1.0000
  C   C963      1.0  0.39269  0.48841  0.56575  1.0000
  H   H960      1.0  0.36853  0.45740  0.61367  1.0000
  H   H961      1.0  0.36705  0.48162  0.57637  1.0000
  C   C964      1.0  0.38094  0.47801  0.57733  1.0000
  C   C965      1.0  0.40428  0.45912  0.59104  1.0000
  H   H962      1.0  0.38149  0.43824  0.60471  1.0000
  N   N82       1.0  0.38693  0.46328  0.58939  1.0000
  H   H963      1.0  0.25464  0.43058  0.74326  1.0000
  C   C966      1.0  0.37448  0.45239  0.60119  1.0000
  H   H964      1.0  0.38968  0.56475  0.51444  1.0000
  H   H965      1.0  0.35220  0.33311  0.68297  1.0000
  H   H966      1.0  0.35292  0.53950  0.51424  1.0000
  C   C967      1.0  0.31933  0.40738  0.62262  1.0000
  C   C968      1.0  0.30742  0.39661  0.63302  1.0000
  C   C969      1.0  0.47107  0.47132  0.66787  1.0000
  C   C970      1.0  0.39250  0.50977  0.50822  1.0000
  H   H967      1.0  0.32033  0.41844  0.62749  1.0000
  C   C971      1.0  0.38939  0.35627  0.69995  1.0000
  H   H968      1.0  0.42555  0.38740  0.65261  1.0000
  H   H969      1.0  0.45366  0.39241  0.65641  1.0000
  H   H970      1.0  0.32326  0.33932  0.64806  1.0000
  C   C972      1.0  0.35414  0.33434  0.61006  1.0000
  S   S330      1.0  0.48636  0.45700  0.57493  1.0000
  H   H971      1.0  0.46032  0.46768  0.66463  1.0000
  H   H972      1.0  0.35275  0.33323  0.57013  1.0000
  C   C973      1.0  0.27624  0.45734  0.69840  1.0000
  Fe  Fe164     1.0  0.48536  0.44003  0.64051  1.0000
  H   H973      1.0  0.34387  0.51263  0.53523  1.0000
  C   C974      1.0  0.48986  0.63059  0.52021  1.0000
  C   C975      1.0  0.38285  0.62826  0.53136  1.0000
  H   H974      1.0  0.39689  0.48204  0.52115  1.0000
  N   N83       1.0  0.49806  0.64066  0.54211  1.0000
  H   H975      1.0  0.39185  0.37791  0.58409  1.0000
  H   H976      1.0  0.47668  0.39589  0.58512  1.0000
  H   H977      1.0  0.25047  0.38543  0.87518  1.0000
  C   C976      1.0  0.36367  0.34704  0.60931  1.0000
  C   C977      1.0  0.32826  0.38995  0.60061  1.0000
  C   C978      1.0  0.34258  0.41476  0.59612  1.0000
  C   C979      1.0  0.45277  0.39059  0.64372  1.0000
  S   S331      1.0  0.49683  0.42525  0.61844  1.0000
  C   C980      1.0  0.46675  0.33504  0.60527  1.0000
  C   C981      1.0  0.36259  0.52703  0.51587  1.0000
  H   H978      1.0  0.47926  0.39417  0.63094  1.0000
  H   H979      1.0  0.35613  0.40735  0.59805  1.0000
  H   H980      1.0  0.28241  0.46435  0.68551  1.0000
  C   C982      1.0  0.47430  0.48856  0.66134  1.0000
  C   C983      1.0  0.46954  0.65373  0.53426  1.0000
  Fe  Fe165     1.0  0.36268  0.38765  0.68072  1.0000
  C   C984      1.0  0.26041  0.41779  0.69732  1.0000
  H   H981      1.0  0.40606  0.50889  0.50060  1.0000
  N   N84       1.0  0.27870  0.43341  0.72404  1.0000
  H   H982      1.0  0.30200  0.41254  0.72552  1.0000
  H   H983      1.0  0.31577  0.36762  0.60589  1.0000
  H   H984      1.0  0.47971  0.44519  0.68333  1.0000
  H   H985      1.0  0.45013  0.38436  0.59834  1.0000
  C   C985      1.0  0.45100  0.38599  0.61111  1.0000
  H   H986      1.0  0.33660  0.38715  0.58810  1.0000
  C   C986      1.0  0.31643  0.37896  0.61059  1.0000
  C   C987      1.0  0.43615  0.38527  0.62524  1.0000
  S   S332      1.0  0.36311  0.47656  0.54445  1.0000
  H   H987      1.0  0.40057  0.37967  0.69254  1.0000
  C   C988      1.0  0.43705  0.38766  0.64161  1.0000
  H   H988      1.0  0.39835  0.35208  0.57130  1.0000
  C   C989      1.0  0.39495  0.57265  0.52059  1.0000
  H   H989      1.0  0.46042  0.36002  0.54844  1.0000
  H   H990      1.0  0.40919  0.38807  0.58402  1.0000
  H   H991      1.0  0.38416  0.58439  0.52325  1.0000
  H   H992      1.0  0.46054  0.34576  0.61228  1.0000
  N   N85       1.0  0.41096  0.57850  0.50903  1.0000
  H   H993      1.0  0.49042  0.37786  0.59779  1.0000
  C   C990      1.0  0.37479  0.33623  0.54790  1.0000
  H   H994      1.0  0.29322  0.42284  0.74460  1.0000
  C   C991      1.0  0.44684  0.35808  0.55347  1.0000
  C   C992      1.0  0.44083  0.34653  0.54721  1.0000
  H   H995      1.0  0.43117  0.36365  0.68102  1.0000
  C   C993      1.0  0.48197  0.45868  0.67841  1.0000
  H   H996      1.0  0.41843  0.33547  0.54882  1.0000
  H   H997      1.0  0.46588  0.49827  0.65300  1.0000
  H   H998      1.0  0.48861  0.40089  0.59845  1.0000
  H   H999      1.0  0.49331  0.62240  0.51040  1.0000
  C   C994      1.0  0.38012  0.52600  0.50609  1.0000
  C   C995      1.0  0.25793  0.46217  0.70504  1.0000
  C   C996      1.0  0.25015  0.45264  0.72137  1.0000
  Fe  Fe166     1.0  0.49514  0.45239  0.60067  1.0000
  C   C997      1.0  0.49595  0.46336  0.68228  1.0000
  H   H1000     1.0  0.39995  0.34516  0.64665  1.0000
  C   C998      1.0  0.40425  0.63372  0.49711  1.0000
  C   C999      1.0  0.47356  0.64275  0.52213  1.0000
  H   H1001     1.0  0.37520  0.35118  0.67228  1.0000
  H   H1002     1.0  0.46420  0.64389  0.51401  1.0000
  Fe  Fe167     1.0  0.35475  0.60501  0.50106  1.0000
  C   C1000     1.0  0.36276  0.33055  0.67155  1.0000
  H   H1003     1.0  0.48080  0.52017  0.66738  1.0000
  C   C1001     1.0  0.37584  0.34074  0.66567  1.0000
  S   S333      1.0  0.43173  0.43330  0.49408  1.0000
  H   H1004     1.0  0.47895  0.66134  0.55335  1.0000
  H   H1005     1.0  0.24973  0.47316  0.69748  1.0000
  C   C1002     1.0  0.41896  0.57252  0.49362  1.0000
  C   C1003     1.0  0.40535  0.79317  0.05921  1.0000
  C   C1004     1.0  0.43781  0.84642  0.04062  1.0000
  H   H1006     1.0  0.42061  0.87196  0.15631  1.0000
  H   H1007     1.0  0.42538  0.84362  0.04904  1.0000
  C   C1005     1.0  0.41095  0.81265  0.07457  1.0000
  H   H1008     1.0  0.40143  0.79116  0.04800  1.0000
  C   C1006     1.0  0.32529  0.69492  0.09366  1.0000
  H   H1009     1.0  0.31777  0.68581  0.09275  1.0000
  C   C1007     1.0  0.48315  0.78193  0.17635  1.0000
  H   H1010     1.0  0.46558  0.89673  0.13392  1.0000
  Fe  Fe168     1.0  0.48250  0.94820  0.13048  1.0000
  S   S334      1.0  0.45487  0.95159  0.14815  1.0000
  C   C1008     1.0  0.44663  0.68578  0.32827  1.0000
  Fe  Fe169     1.0  0.34888  0.89734  0.18172  1.0000
  S   S335      1.0  0.35053  0.90825  0.15242  1.0000
  S   S336      1.0  0.32789  0.91044  0.20224  1.0000
  Fe  Fe170     1.0  0.38169  0.86835  0.17603  1.0000
  S   S337      1.0  0.38610  0.87684  0.14645  1.0000
  S   S338      1.0  0.40142  0.84499  0.18703  1.0000
  Fe  Fe171     1.0  0.37976  0.90447  0.15100  1.0000
  S   S339      1.0  0.39697  0.92206  0.13107  1.0000
  Fe  Fe172     1.0  0.35672  0.87950  0.15071  1.0000
  S   S340      1.0  0.34738  0.87093  0.13076  1.0000
  S   S341      1.0  0.37784  0.89585  0.18040  1.0000
  S   S342      1.0  0.35261  0.86878  0.18021  1.0000
  Fe  Fe173     1.0  0.42230  0.75632  0.16253  1.0000
  S   S343      1.0  0.41174  0.73184  0.16718  1.0000
  S   S344      1.0  0.40717  0.78257  0.14996  1.0000
  Fe  Fe174     1.0  0.45714  0.73558  0.17243  1.0000
  S   S345      1.0  0.44982  0.70903  0.17786  1.0000
  Fe  Fe175     1.0  0.43894  0.72043  0.15303  1.0000
  S   S346      1.0  0.44421  0.70722  0.13018  1.0000
  Fe  Fe176     1.0  0.42325  0.72287  0.19163  1.0000
  S   S347      1.0  0.40541  0.71108  0.21656  1.0000
  S   S348      1.0  0.44857  0.74561  0.14640  1.0000
  S   S349      1.0  0.43144  0.74855  0.18833  1.0000
  Fe  Fe177     1.0  0.34229  0.78407  0.11732  1.0000
  S   S350      1.0  0.36656  0.78592  0.09532  1.0000
  S   S351      1.0  0.34094  0.79081  0.14347  1.0000
  Fe  Fe178     1.0  0.32336  0.77106  0.09607  1.0000
  S   S352      1.0  0.34575  0.77274  0.07207  1.0000
  S   S353      1.0  0.29869  0.76001  0.09986  1.0000
  Fe  Fe179     1.0  0.36350  0.76020  0.09156  1.0000
  S   S354      1.0  0.38567  0.73777  0.08364  1.0000
  Fe  Fe180     1.0  0.34703  0.79856  0.07763  1.0000
  S   S355      1.0  0.35258  0.82192  0.05493  1.0000
  S   S356      1.0  0.34119  0.75683  0.11539  1.0000
  S   S357      1.0  0.32264  0.79840  0.09990  1.0000
  Fe  Fe181     1.0  0.43062  0.90543  0.01926  1.0000
  S   S358      1.0  0.42620  0.89814  0.04901  1.0000
  S   S359      1.0  0.25090  0.89526  0.21705  1.0000
  Fe  Fe182     1.0  0.39843  0.93544  0.01940  1.0000
  S   S360      1.0  0.39076  0.93011  0.04917  1.0000
  C   C1009     1.0  0.44207  0.89012  0.17607  1.0000
  Fe  Fe183     1.0  0.41985  0.92750  0.04747  1.0000
  S   S361      1.0  0.42572  0.94056  0.06634  1.0000
  Fe  Fe184     1.0  0.39774  0.90116  0.04794  1.0000
  S   S362      1.0  0.38381  0.88084  0.06852  1.0000
  S   S363      1.0  0.42720  0.93464  0.01767  1.0000
  S   S364      1.0  0.40249  0.90670  0.01818  1.0000
  Fe  Fe185     1.0  0.40217  0.69904  0.31415  1.0000
  C   C1010     1.0  0.31460  0.69775  0.33801  1.0000
  S   S365      1.0  0.42244  0.70883  0.29017  1.0000
  Fe  Fe186     1.0  0.36876  0.70523  0.34237  1.0000
  H   H1011     1.0  0.49189  0.88691  0.00355  1.0000
  S   S366      1.0  0.34354  0.72274  0.35371  1.0000
  Fe  Fe187     1.0  0.40079  0.67772  0.35217  1.0000
  H   H1012     1.0  0.47760  0.78119  0.06974  1.0000
  H   H1013     1.0  0.39149  0.67005  0.41698  1.0000
  S   S367      1.0  0.39694  0.70704  0.34042  1.0000
  S   S368      1.0  0.37354  0.69984  0.31513  1.0000
  H   H1014     1.0  0.45285  0.87246  0.08953  1.0000
  H   H1015     1.0  0.41510  0.77093  0.09924  1.0000
  C   C1011     1.0  0.49194  0.85771  0.13989  1.0000
  H   H1016     1.0  0.48257  0.83045  0.03486  1.0000
  H   H1017     1.0  0.41161  0.82593  0.07502  1.0000
  H   H1018     1.0  0.48647  0.67606  0.48939  1.0000
  C   C1012     1.0  0.31917  0.85216  0.08383  1.0000
  C   C1013     1.0  0.25958  0.73887  0.35692  1.0000
  S   S369      1.0  0.44627  0.68876  0.42298  1.0000
  H   H1019     1.0  0.31434  0.88172  0.11667  1.0000
  H   H1020     1.0  0.44537  0.82432  0.15758  1.0000
  H   H1021     1.0  0.40571  0.80717  0.11282  1.0000
  H   H1022     1.0  0.43155  0.85283  0.09502  1.0000
  S   S370      1.0  0.25987  0.69644  0.39715  1.0000
  Fe  Fe188     1.0  0.26821  0.68787  0.07122  1.0000
  C   C1014     1.0  0.43010  0.98797  0.08078  1.0000
  S   S371      1.0  0.29255  0.70042  0.06342  1.0000
  H   H1023     1.0  0.30198  0.83751  0.10498  1.0000
  C   C1015     1.0  0.45760  0.67803  0.35481  1.0000
  H   H1024     1.0  0.27551  0.78203  0.35139  1.0000
  C   C1016     1.0  0.49673  0.76314  0.08447  1.0000
  C   C1017     1.0  0.46822  0.90367  0.16387  1.0000
  C   C1018     1.0  0.27276  0.73899  0.36539  1.0000
  C   C1019     1.0  0.48558  0.76223  0.14292  1.0000
  H   H1025     1.0  0.48251  0.85833  0.01235  1.0000
  C   C1020     1.0  0.42664  0.69336  0.39786  1.0000
  C   C1021     1.0  0.41985  0.68724  0.38657  1.0000
  N   N86       1.0  0.32593  0.87693  0.09055  1.0000
  Fe  Fe189     1.0  0.48560  0.84027  0.09534  1.0000
  H   H1026     1.0  0.42333  0.70738  0.39812  1.0000
  H   H1027     1.0  0.41139  0.69654  0.37807  1.0000
  C   C1022     1.0  0.32707  0.71217  0.35352  1.0000
  C   C1023     1.0  0.32666  0.70776  0.33784  1.0000
  C   C1024     1.0  0.39296  0.96354  0.10064  1.0000
  H   H1028     1.0  0.45786  0.69981  0.36590  1.0000
  C   C1025     1.0  0.30351  0.69638  0.36955  1.0000
  C   C1026     1.0  0.31539  0.70658  0.36938  1.0000
  H   H1029     1.0  0.33561  0.71211  0.32554  1.0000
  C   C1027     1.0  0.43762  0.68131  0.40891  1.0000
  C   C1028     1.0  0.38619  0.97908  0.00082  1.0000
  H   H1030     1.0  0.31603  0.70958  0.38159  1.0000
  C   C1029     1.0  0.29662  0.74441  0.08869  1.0000
  C   C1030     1.0  0.30871  0.74061  0.07316  1.0000
  C   C1031     1.0  0.30687  0.72763  0.06514  1.0000
  C   C1032     1.0  0.29311  0.71815  0.07267  1.0000
  C   C1033     1.0  0.28090  0.72216  0.08806  1.0000
  C   C1034     1.0  0.28259  0.73529  0.09593  1.0000
  H   H1031     1.0  0.31943  0.74768  0.06732  1.0000
  H   H1032     1.0  0.31631  0.72472  0.05317  1.0000
  H   H1033     1.0  0.27037  0.71490  0.09411  1.0000
  H   H1034     1.0  0.27315  0.73820  0.10790  1.0000
  C   C1035     1.0  0.36350  0.83710  0.05790  1.0000
  C   C1036     1.0  0.36743  0.85150  0.04393  1.0000
  C   C1037     1.0  0.37464  0.86465  0.04661  1.0000
  C   C1038     1.0  0.37785  0.86343  0.06332  1.0000
  C   C1039     1.0  0.37467  0.84864  0.07697  1.0000
  C   C1040     1.0  0.36753  0.83554  0.07429  1.0000
  H   H1035     1.0  0.36444  0.85276  0.03115  1.0000
  H   H1036     1.0  0.37708  0.87602  0.03597  1.0000
  H   H1037     1.0  0.37738  0.84752  0.08984  1.0000
  H   H1038     1.0  0.36479  0.82443  0.08503  1.0000
  H   H1039     1.0  0.40369  0.82139  0.04893  1.0000
  C   C1041     1.0  0.45386  0.86690  0.01767  1.0000
  C   C1042     1.0  0.43776  0.86237  0.02779  1.0000
  H   H1040     1.0  0.44133  0.90469  0.08952  1.0000
  H   H1041     1.0  0.42525  0.87147  0.02624  1.0000
  C   C1043     1.0  0.41004  0.71176  0.23661  1.0000
  C   C1044     1.0  0.39749  0.70812  0.25241  1.0000
  C   C1045     1.0  0.40119  0.70743  0.26879  1.0000
  C   C1046     1.0  0.41735  0.71059  0.26953  1.0000
  C   C1047     1.0  0.42979  0.71466  0.25365  1.0000
  C   C1048     1.0  0.42615  0.71523  0.23718  1.0000
  H   H1042     1.0  0.38494  0.70559  0.25204  1.0000
  H   H1043     1.0  0.39154  0.70428  0.28081  1.0000
  H   H1044     1.0  0.44233  0.71714  0.25409  1.0000
  H   H1045     1.0  0.43592  0.71805  0.22500  1.0000
  C   C1049     1.0  0.42803  0.71637  0.11715  1.0000
  C   C1050     1.0  0.42839  0.70830  0.10351  1.0000
  C   C1051     1.0  0.41537  0.71507  0.09323  1.0000
  C   C1052     1.0  0.40185  0.72986  0.09663  1.0000
  C   C1053     1.0  0.40159  0.73818  0.11007  1.0000
  C   C1054     1.0  0.41483  0.73156  0.12019  1.0000
  H   H1046     1.0  0.43863  0.69666  0.10102  1.0000
  H   H1047     1.0  0.41568  0.70869  0.08276  1.0000
  H   H1048     1.0  0.39117  0.74965  0.11271  1.0000
  H   H1049     1.0  0.41473  0.73817  0.13035  1.0000
  C   C1055     1.0  0.34650  0.84832  0.13487  1.0000
  C   C1056     1.0  0.34678  0.84120  0.12057  1.0000
  C   C1057     1.0  0.34501  0.82363  0.12326  1.0000
  C   C1058     1.0  0.34300  0.81292  0.14035  1.0000
  C   C1059     1.0  0.34262  0.81997  0.15481  1.0000
  C   C1060     1.0  0.34455  0.83762  0.15205  1.0000
  H   H1050     1.0  0.34822  0.84938  0.10734  1.0000
  H   H1051     1.0  0.34497  0.81840  0.11214  1.0000
  H   H1052     1.0  0.34056  0.81193  0.16815  1.0000
  H   H1053     1.0  0.34407  0.84305  0.16323  1.0000
  C   C1061     1.0  0.40264  0.82740  0.17722  1.0000
  C   C1062     1.0  0.39200  0.82961  0.16509  1.0000
  C   C1063     1.0  0.39368  0.81590  0.15651  1.0000
  C   C1064     1.0  0.40570  0.79975  0.16037  1.0000
  C   C1065     1.0  0.41605  0.79735  0.17279  1.0000
  C   C1066     1.0  0.41456  0.81118  0.18119  1.0000
  H   H1054     1.0  0.38231  0.84180  0.16237  1.0000
  H   H1055     1.0  0.38539  0.81772  0.14714  1.0000
  H   H1056     1.0  0.42541  0.78498  0.17570  1.0000
  H   H1057     1.0  0.42267  0.80937  0.19070  1.0000
  C   C1067     1.0  0.43979  0.94111  0.14441  1.0000
  C   C1068     1.0  0.44260  0.93611  0.12825  1.0000
  C   C1069     1.0  0.42973  0.92928  0.12476  1.0000
  C   C1070     1.0  0.41406  0.92723  0.13746  1.0000
  C   C1071     1.0  0.41153  0.93141  0.15400  1.0000
  C   C1072     1.0  0.42433  0.93851  0.15741  1.0000
  H   H1058     1.0  0.45426  0.93832  0.11807  1.0000
  H   H1059     1.0  0.43170  0.92600  0.11199  1.0000
  H   H1060     1.0  0.39932  0.93005  0.16380  1.0000
  H   H1061     1.0  0.42205  0.94241  0.16994  1.0000
  C   C1073     1.0  0.48279  0.94220  0.06527  1.0000
  C   C1074     1.0  0.47940  0.93672  0.05142  1.0000
  C   C1075     1.0  0.46193  0.93584  0.05159  1.0000
  C   C1076     1.0  0.44793  0.94067  0.06551  1.0000
  C   C1077     1.0  0.45146  0.94613  0.07919  1.0000
  C   C1078     1.0  0.46875  0.94699  0.07906  1.0000
  H   H1062     1.0  0.44733  0.99315  0.09465  1.0000
  H   H1063     1.0  0.45928  0.93164  0.04093  1.0000
  H   H1064     1.0  0.44077  0.94974  0.08999  1.0000
  H   H1065     1.0  0.47120  0.95155  0.08957  1.0000
  C   C1079     1.0  0.25213  0.75461  0.34626  1.0000
  C   C1080     1.0  0.44384  0.70392  0.32809  1.0000
  C   C1081     1.0  0.30635  0.85973  0.11255  1.0000
  C   C1082     1.0  0.47012  0.74426  0.10166  1.0000
  C   C1083     1.0  0.32787  0.86638  0.07889  1.0000
  H   H1066     1.0  0.40584  0.96987  0.01706  1.0000
  H   H1067     1.0  0.39903  0.86552  0.10110  1.0000
  C   C1084     1.0  0.44786  0.70904  0.34169  1.0000
  H   H1068     1.0  0.40887  0.91679  0.09542  1.0000
  H   H1069     1.0  0.38432  0.97099  0.09104  1.0000
  C   C1085     1.0  0.43861  0.87782  0.09231  1.0000
  H   H1070     1.0  0.40595  0.96634  0.12712  1.0000
  C   C1086     1.0  0.40653  0.81014  0.05975  1.0000
  H   H1071     1.0  0.31218  0.91869  0.25814  1.0000
  C   C1087     1.0  0.27486  0.91333  0.21929  1.0000
  C   C1088     1.0  0.29195  0.91687  0.21559  1.0000
  C   C1089     1.0  0.30616  0.90784  0.20438  1.0000
  C   C1090     1.0  0.30306  0.89577  0.19628  1.0000
  C   C1091     1.0  0.28594  0.89229  0.19991  1.0000
  H   H1072     1.0  0.25485  0.74952  0.40971  1.0000
  H   H1073     1.0  0.29425  0.92637  0.22173  1.0000
  H   H1074     1.0  0.31392  0.88884  0.18751  1.0000
  H   H1075     1.0  0.28365  0.88274  0.19383  1.0000
  C   C1092     1.0  0.25600  0.67622  0.33030  1.0000
  H   H1076     1.0  0.42899  0.67428  0.26056  1.0000
  C   C1093     1.0  0.42664  0.86680  0.09551  1.0000
  C   C1094     1.0  0.34566  0.66802  0.30653  1.0000
  N   N87       1.0  0.48647  0.73852  0.10611  1.0000
  H   H1077     1.0  0.37906  0.90767  0.11231  1.0000
  Fe  Fe190     1.0  0.47807  0.82205  0.07041  1.0000
  N   N88       1.0  0.30368  0.88425  0.24696  1.0000
  C   C1095     1.0  0.28622  0.88533  0.25568  1.0000
  C   C1096     1.0  0.31307  0.89581  0.24810  1.0000
  C   C1097     1.0  0.27761  0.89853  0.26547  1.0000
  C   C1098     1.0  0.30482  0.90925  0.25770  1.0000
  C   C1099     1.0  0.28694  0.91062  0.26637  1.0000
  C   C1100     1.0  0.31248  0.87026  0.23683  1.0000
  H   H1078     1.0  0.27873  0.87622  0.25473  1.0000
  H   H1079     1.0  0.32687  0.89508  0.24106  1.0000
  H   H1080     1.0  0.26373  0.89954  0.27218  1.0000
  C   C1101     1.0  0.40830  0.87405  0.09891  1.0000
  H   H1081     1.0  0.28024  0.92110  0.27368  1.0000
  H   H1082     1.0  0.30308  0.86788  0.23009  1.0000
  H   H1083     1.0  0.32381  0.87424  0.22610  1.0000
  H   H1084     1.0  0.31755  0.85772  0.24583  1.0000
  Fe  Fe191     1.0  0.25579  0.67200  0.41838  1.0000
  N   N89       1.0  0.45308  0.67311  0.34174  1.0000
  H   H1085     1.0  0.31438  0.69434  0.32585  1.0000
  H   H1086     1.0  0.25495  0.72672  0.35892  1.0000
  C   C1102     1.0  0.38294  0.89953  0.10204  1.0000
  H   H1087     1.0  0.27733  0.90023  0.32732  1.0000
  H   H1088     1.0  0.25905  0.68355  0.33832  1.0000
  S   S372      1.0  0.26849  0.66930  0.44120  1.0000
  H   H1089     1.0  0.48000  0.71426  0.12318  1.0000
  C   C1103     1.0  0.42421  0.66910  0.38628  1.0000
  C   C1104     1.0  0.39921  0.98111  0.00844  1.0000
  N   N90       1.0  0.46971  0.80514  0.15466  1.0000
  S   S373      1.0  0.28819  0.67931  0.35398  1.0000
  C   C1105     1.0  0.27187  0.90088  0.21161  1.0000
  H   H1090     1.0  0.47309  0.91287  0.15141  1.0000
  S   S374      1.0  0.25232  0.78589  0.39129  1.0000
  H   H1091     1.0  0.36437  0.71079  0.05414  1.0000
  H   H1092     1.0  0.45503  0.78999  0.17737  1.0000
  C   C1106     1.0  0.43579  0.98778  0.09591  1.0000
  H   H1093     1.0  0.45959  0.73699  0.10835  1.0000
  S   S375      1.0  0.48406  0.73763  0.17439  1.0000
  Fe  Fe192     1.0  0.45727  0.66583  0.44351  1.0000
  H   H1094     1.0  0.33654  0.86862  0.06583  1.0000
  C   C1107     1.0  0.43013  0.87866  0.15776  1.0000
  C   C1108     1.0  0.32899  0.71612  0.10825  1.0000
  C   C1109     1.0  0.25797  0.77021  0.34416  1.0000
  H   H1095     1.0  0.36283  0.73012  0.06227  1.0000
  N   N91       1.0  0.45474  0.89555  0.16164  1.0000
  S   S376      1.0  0.26865  0.86593  0.34227  1.0000
  H   H1096     1.0  0.30792  0.70154  0.11788  1.0000
  N   N92       1.0  0.34870  0.71119  0.08055  1.0000
  H   H1097     1.0  0.37491  0.88908  0.10667  1.0000
  H   H1098     1.0  0.44332  0.68197  0.31770  1.0000
  H   H1099     1.0  0.37651  0.70925  0.07090  1.0000
  H   H1100     1.0  0.34371  0.69231  0.06892  1.0000
  C   C1110     1.0  0.45362  0.81562  0.14826  1.0000
  H   H1101     1.0  0.32116  0.84353  0.07469  1.0000
  C   C1111     1.0  0.41379  0.90269  0.09568  1.0000
  N   N93       1.0  0.37086  0.76118  0.18201  1.0000
  C   C1112     1.0  0.36947  0.77909  0.17971  1.0000
  C   C1113     1.0  0.37568  0.74969  0.19693  1.0000
  C   C1114     1.0  0.37320  0.78592  0.19238  1.0000
  C   C1115     1.0  0.37977  0.75603  0.20975  1.0000
  C   C1116     1.0  0.37856  0.77427  0.20740  1.0000
  C   C1117     1.0  0.36671  0.75455  0.16850  1.0000
  H   H1102     1.0  0.36606  0.78808  0.16766  1.0000
  H   H1103     1.0  0.37677  0.73546  0.19886  1.0000
  H   H1104     1.0  0.37238  0.80012  0.19028  1.0000
  H   H1105     1.0  0.38404  0.74679  0.22132  1.0000
  H   H1106     1.0  0.38192  0.77935  0.21711  1.0000
  H   H1107     1.0  0.37126  0.73987  0.17015  1.0000
  H   H1108     1.0  0.35209  0.75816  0.16925  1.0000
  H   H1109     1.0  0.37342  0.76072  0.15496  1.0000
  S   S377      1.0  0.45380  0.88840  0.00443  1.0000
  H   H1110     1.0  0.37949  0.90808  0.08943  1.0000
  S   S378      1.0  0.37225  0.67647  0.35636  1.0000
  S   S379      1.0  0.49115  0.92613  0.11588  1.0000
  H   H1111     1.0  0.45681  0.82429  0.13490  1.0000
  S   S380      1.0  0.46082  0.66836  0.46974  1.0000
  C   C1118     1.0  0.49521  0.74923  0.15445  1.0000
  C   C1119     1.0  0.41567  0.98027  0.08265  1.0000
  H   H1112     1.0  0.29847  0.85691  0.12598  1.0000
  C   C1120     1.0  0.27124  0.76980  0.35280  1.0000
  H   H1113     1.0  0.44355  0.88211  0.13015  1.0000
  C   C1121     1.0  0.43218  0.89588  0.09240  1.0000
  N   N94       1.0  0.40212  0.89180  0.09904  1.0000
  C   C1122     1.0  0.45401  0.83508  0.04342  1.0000
  S   S381      1.0  0.48160  0.84981  0.06741  1.0000
  C   C1123     1.0  0.48966  0.72295  0.12056  1.0000
  H   H1114     1.0  0.34170  0.89429  0.07130  1.0000
  C   C1124     1.0  0.25888  0.91455  0.31027  1.0000
  Fe  Fe193     1.0  0.37944  0.67123  0.32896  1.0000
  S   S382      1.0  0.45489  0.81801  0.06243  1.0000
  C   C1125     1.0  0.46997  0.85497  0.01975  1.0000
  C   C1126     1.0  0.46670  0.75963  0.08848  1.0000
  C   C1127     1.0  0.42958  0.88160  0.17435  1.0000
  C   C1128     1.0  0.33653  0.89060  0.08590  1.0000
  H   H1115     1.0  0.26409  0.92008  0.22824  1.0000
  C   C1129     1.0  0.44306  0.88426  0.14312  1.0000
  C   C1130     1.0  0.40881  0.77890  0.07334  1.0000
  C   C1131     1.0  0.45493  0.69604  0.35507  1.0000
  H   H1116     1.0  0.32849  0.90286  0.09053  1.0000
  H   H1117     1.0  0.39910  0.95007  0.09775  1.0000
  N   N95       1.0  0.41432  0.79862  0.08836  1.0000
  H   H1118     1.0  0.34905  0.67978  0.30788  1.0000
  H   H1119     1.0  0.44158  0.89236  0.18901  1.0000
  H   H1120     1.0  0.42516  0.78934  0.11183  1.0000
  C   C1132     1.0  0.41308  0.78193  0.08801  1.0000
  C   C1133     1.0  0.41830  0.80180  0.10398  1.0000
  H   H1121     1.0  0.42725  0.81141  0.09985  1.0000
  H   H1122     1.0  0.44538  0.72305  0.34191  1.0000
  C   C1134     1.0  0.49449  0.77134  0.12691  1.0000
  C   C1135     1.0  0.41244  0.97271  0.11406  1.0000
  H   H1123     1.0  0.43146  0.97958  0.12452  1.0000
  C   C1136     1.0  0.48010  0.76915  0.07989  1.0000
  C   C1137     1.0  0.42688  0.98018  0.11268  1.0000
  H   H1124     1.0  0.41954  0.87721  0.18578  1.0000
  N   N96       1.0  0.40705  0.97278  0.09915  1.0000
  H   H1125     1.0  0.32446  0.72350  0.11882  1.0000
  C   C1138     1.0  0.36385  0.71544  0.06623  1.0000
  S   S383      1.0  0.47927  0.81378  0.09903  1.0000
  H   H1126     1.0  0.28140  0.67551  0.31177  1.0000
  C   C1139     1.0  0.30841  0.84879  0.10081  1.0000
  C   C1140     1.0  0.33215  0.66972  0.29752  1.0000
  C   C1141     1.0  0.47002  0.83915  0.03267  1.0000
  H   H1127     1.0  0.47981  0.89320  0.16753  1.0000
  S   S384      1.0  0.38226  0.95793  0.00261  1.0000
  C   C1142     1.0  0.31528  0.87382  0.10717  1.0000
  H   H1128     1.0  0.34818  0.88540  0.09236  1.0000
  H   H1129     1.0  0.46259  0.91191  0.17413  1.0000
  C   C1143     1.0  0.26650  0.89962  0.32189  1.0000
  H   H1130     1.0  0.26399  0.92661  0.30657  1.0000
  C   C1144     1.0  0.45545  0.89257  0.14534  1.0000
  H   H1131     1.0  0.40756  0.76571  0.07318  1.0000
  C   C1145     1.0  0.26853  0.67178  0.31535  1.0000
  H   H1132     1.0  0.27826  0.72681  0.37387  1.0000
  C   C1146     1.0  0.30297  0.69210  0.35386  1.0000
  C   C1147     1.0  0.34363  0.71956  0.09454  1.0000
  C   C1148     1.0  0.25990  0.88402  0.32676  1.0000
  H   H1133     1.0  0.35068  0.72928  0.09489  1.0000
  H   H1134     1.0  0.48834  0.72736  0.13302  1.0000
  H   H1135     1.0  0.30572  0.75003  0.36363  1.0000
  N   N97       1.0  0.27831  0.75435  0.36340  1.0000
  H   H1136     1.0  0.38436  0.96182  0.11424  1.0000
  C   C1149     1.0  0.31973  0.70378  0.10772  1.0000
  H   H1137     1.0  0.32512  0.68282  0.29196  1.0000
  H   H1138     1.0  0.49024  0.93313  0.04062  1.0000
  H   H1139     1.0  0.29141  0.74447  0.38523  1.0000
  C   C1150     1.0  0.29239  0.75403  0.37217  1.0000
  H   H1140     1.0  0.29119  0.76730  0.37493  1.0000
  H   H1141     1.0  0.47125  0.76568  0.14655  1.0000
  H   H1142     1.0  0.41192  0.97959  0.07078  1.0000
  H   H1143     1.0  0.25205  0.78260  0.33616  1.0000
  C   C1151     1.0  0.33991  0.69880  0.08010  1.0000
  H   H1144     1.0  0.44567  0.80665  0.14712  1.0000
  S   S385      1.0  0.40842  0.66985  0.32583  1.0000
  H   H1145     1.0  0.29507  0.69155  0.38191  1.0000
  S   S386      1.0  0.49400  0.96778  0.10695  1.0000
  Fe  Fe194     1.0  0.26634  0.67828  0.37837  1.0000
  H   H1146     1.0  0.43830  0.71389  0.31758  1.0000
  H   H1147     1.0  0.45376  0.76415  0.08495  1.0000
  S   S387      1.0  0.47261  0.85390  0.11811  1.0000
  H   H1148     1.0  0.48761  0.81809  0.13314  1.0000
  S   S388      1.0  0.25512  0.68199  0.05210  1.0000
  H   H1149     1.0  0.43726  0.99335  0.06763  1.0000
  H   H1150     1.0  0.48183  0.77132  0.18816  1.0000
  H   H1151     1.0  0.30681  0.68169  0.40966  1.0000
  C   C1152     1.0  0.46805  0.79240  0.17006  1.0000
  C   C1153     1.0  0.48619  0.80803  0.14535  1.0000
  H   H1152     1.0  0.48583  0.84769  0.14990  1.0000
  C   C1154     1.0  0.49574  0.87600  0.11008  1.0000
  H   H1153     1.0  0.40215  0.67226  0.25196  1.0000
  H   H1154     1.0  0.46269  0.66799  0.36551  1.0000
  H   H1155     1.0  0.48687  0.78072  0.11788  1.0000
  H   H1156     1.0  0.32253  0.67015  0.43472  1.0000
  H   H1157     1.0  0.49254  0.88024  0.09703  1.0000
  C   C1155     1.0  0.42145  0.66425  0.26842  1.0000
  C   C1156     1.0  0.48803  0.86291  0.12292  1.0000
  C   C1157     1.0  0.31087  0.66744  0.41445  1.0000
  C   C1158     1.0  0.44180  0.66322  0.40858  1.0000
  Fe  Fe195     1.0  0.24853  0.84913  0.35645  1.0000
  C   C1159     1.0  0.40621  0.66309  0.26366  1.0000
  H   H1158     1.0  0.48552  0.87315  0.98225  1.0000
  C   C1160     1.0  0.42622  0.96657  0.97208  1.0000
  H   H1159     1.0  0.41816  0.95647  0.97981  1.0000
  C   C1161     1.0  0.39231  0.99326  0.94511  1.0000
  H   H1160     1.0  0.43813  0.96010  0.96331  1.0000
  H   H1161     1.0  0.48864  0.69126  0.51191  1.0000
  H   H1162     1.0  0.36713  0.99243  0.98433  1.0000
  H   H1163     1.0  0.39850  0.96619  0.95957  1.0000
  H   H1164     1.0  0.43049  0.97104  0.98202  1.0000
  H   H1165     1.0  0.49135  0.87461  0.94798  1.0000
  N   N98       1.0  0.41577  0.98163  0.96143  1.0000
  H   H1166     1.0  0.38125  0.99131  0.94092  1.0000
  C   C1162     1.0  0.49725  0.87884  0.97855  1.0000
  C   C1163     1.0  0.40218  0.97909  0.95559  1.0000
  C   C1164     1.0  0.37729  0.99389  0.99016  1.0000
  H   H1167     1.0  0.45695  0.66335  0.53565  1.0000
  C   C1165     1.0  0.49817  0.67199  0.49511  1.0000
  Fe  Fe196     1.0  0.61515  0.24597  0.18286  1.0000
  S   S389      1.0  0.60218  0.22532  0.17978  1.0000
  S   S390      1.0  0.60370  0.26667  0.20002  1.0000
  Fe  Fe197     1.0  0.64773  0.23679  0.15483  1.0000
  S   S391      1.0  0.63857  0.21499  0.14940  1.0000
  S   S392      1.0  0.67337  0.24488  0.13985  1.0000
  Fe  Fe198     1.0  0.61202  0.23368  0.15021  1.0000
  S   S393      1.0  0.59801  0.23783  0.12759  1.0000
  Fe  Fe199     1.0  0.62951  0.20766  0.17900  1.0000
  S   S394      1.0  0.63201  0.17865  0.19203  1.0000
  S   S395      1.0  0.62198  0.25637  0.15330  1.0000
  S   S396      1.0  0.64163  0.22750  0.18444  1.0000
  Fe  Fe200     1.0  0.55599  0.18026  0.04517  1.0000
  S   S397      1.0  0.57349  0.19611  0.04992  1.0000
  S   S398      1.0  0.53102  0.18837  0.03355  1.0000
  Fe  Fe201     1.0  0.57745  0.14492  0.06095  1.0000
  S   S399      1.0  0.59697  0.15697  0.06666  1.0000
  S   S400      1.0  0.57780  0.11596  0.06506  1.0000
  Fe  Fe202     1.0  0.57334  0.17713  0.07676  1.0000
  S   S401      1.0  0.57228  0.17959  0.10493  1.0000
  Fe  Fe203     1.0  0.59614  0.17480  0.03988  1.0000
  S   S402      1.0  0.62340  0.17620  0.02283  1.0000
  S   S403      1.0  0.55367  0.16342  0.07298  1.0000
  S   S404      1.0  0.57878  0.16071  0.03324  1.0000
  H   H1168     1.0  0.64704  0.32729  0.31665  1.0000
  S   S405      1.0  0.69198  0.08869  0.02478  1.0000
  H   H1169     1.0  0.73453  0.02125  0.99721  1.0000
  Fe  Fe204     1.0  0.70133  0.05927  0.02709  1.0000
  S   S406      1.0  0.70480  0.04267  0.05391  1.0000
  S   S407      1.0  0.72049  0.17245  0.12200  1.0000
  C   C1166     1.0  0.73255  0.26079  0.37975  1.0000
  S   S408      1.0  0.72598  0.05847  0.19603  1.0000
  C   C1167     1.0  0.52825  0.12756  0.00948  1.0000
  Fe  Fe205     1.0  0.71598  0.10957  0.19042  1.0000
  S   S409      1.0  0.70779  0.09727  0.17261  1.0000
  S   S410      1.0  0.71222  0.13855  0.18985  1.0000
  Fe  Fe206     1.0  0.69935  0.07751  0.19751  1.0000
  S   S411      1.0  0.67198  0.07260  0.19980  1.0000
  C   C1168     1.0  0.55981  0.12172  0.00830  1.0000
  Fe  Fe207     1.0  0.73704  0.17426  0.09451  1.0000
  S   S412      1.0  0.70528  0.09165  0.21552  1.0000
  C   C1169     1.0  0.64510  0.15993  0.15464  1.0000
  Fe  Fe208     1.0  0.63327  0.01824  0.15731  1.0000
  S   S413      1.0  0.65707  0.01269  0.17001  1.0000
  Fe  Fe209     1.0  0.60399  0.04668  0.14309  1.0000
  S   S414      1.0  0.59659  0.02904  0.12991  1.0000
  S   S415      1.0  0.59300  0.07607  0.14078  1.0000
  Fe  Fe210     1.0  0.62591  0.01930  0.12152  1.0000
  S   S416      1.0  0.63510  0.01405  0.09397  1.0000
  S   S417      1.0  0.60413  0.02693  0.16918  1.0000
  S   S418      1.0  0.63324  0.03907  0.13204  1.0000
  S   S419      1.0  0.66233  0.31567  0.24796  1.0000
  S   S420      1.0  0.68383  0.05733  0.01024  1.0000
  H   H1170     1.0  0.56623  0.14633  0.13772  1.0000
  C   C1170     1.0  0.72470  0.08401  0.06106  1.0000
  H   H1171     1.0  0.73484  0.14098  0.22260  1.0000
  N   N99       1.0  0.53877  0.13344  0.03240  1.0000
  Fe  Fe211     1.0  0.64635  0.29513  0.26397  1.0000
  S   S421      1.0  0.64904  0.27083  0.25285  1.0000
  C   C1171     1.0  0.70633  0.17431  0.99897  1.0000
  H   H1172     1.0  0.57456  0.24591  0.20903  1.0000
  S   S422      1.0  0.65505  0.29305  0.28939  1.0000
  C   C1172     1.0  0.54580  0.12189  0.00084  1.0000
  H   H1173     1.0  0.73465  0.24895  0.39078  1.0000
  S   S423      1.0  0.61332  0.31773  0.32140  1.0000
  S   S424      1.0  0.70562  0.31281  0.35292  1.0000
  H   H1174     1.0  0.68251  0.08177  0.15337  1.0000
  H   H1175     1.0  0.69635  0.99862  0.04079  1.0000
  Fe  Fe212     1.0  0.67696  0.08708  0.00541  1.0000
  H   H1176     1.0  0.59101  0.29894  0.38086  1.0000
  H   H1177     1.0  0.65123  0.26969  0.16177  1.0000
  H   H1178     1.0  0.73973  0.03704  0.14201  1.0000
  C   C1173     1.0  0.66582  0.26080  0.18285  1.0000
  H   H1179     1.0  0.71630  0.17879  0.00263  1.0000
  C   C1174     1.0  0.73323  0.08391  0.27593  1.0000
  H   H1180     1.0  0.74173  0.10773  0.13740  1.0000
  H   H1181     1.0  0.73979  0.17719  0.15037  1.0000
  C   C1175     1.0  0.68886  0.30869  0.32895  1.0000
  C   C1176     1.0  0.68618  0.31055  0.31179  1.0000
  H   H1182     1.0  0.55047  0.25196  0.21229  1.0000
  H   H1183     1.0  0.67941  0.23782  0.20908  1.0000
  H   H1184     1.0  0.67602  0.30491  0.31004  1.0000
  H   H1185     1.0  0.66353  0.28389  0.21324  1.0000
  C   C1177     1.0  0.65065  0.32002  0.37543  1.0000
  C   C1178     1.0  0.53528  0.13974  0.04888  1.0000
  S   S425      1.0  0.74391  0.09347  0.18679  1.0000
  H   H1186     1.0  0.53865  0.12838  0.05992  1.0000
  C   C1179     1.0  0.73765  0.16440  0.15964  1.0000
  H   H1187     1.0  0.69510  0.25247  0.20117  1.0000
  Fe  Fe213     1.0  0.72612  0.32701  0.35403  1.0000
  C   C1180     1.0  0.66798  0.05554  0.19200  1.0000
  C   C1181     1.0  0.68051  0.03957  0.19074  1.0000
  C   C1182     1.0  0.67674  0.02630  0.18455  1.0000
  C   C1183     1.0  0.66064  0.02905  0.17915  1.0000
  C   C1184     1.0  0.64813  0.04502  0.18040  1.0000
  C   C1185     1.0  0.65171  0.05809  0.18701  1.0000
  H   H1188     1.0  0.69296  0.03735  0.19481  1.0000
  H   H1189     1.0  0.68642  0.01393  0.18377  1.0000
  H   H1190     1.0  0.64187  0.07031  0.18813  1.0000
  S   S426      1.0  0.73310  0.32456  0.38010  1.0000
  C   C1186     1.0  0.68597  0.03380  0.06518  1.0000
  C   C1187     1.0  0.67546  0.03022  0.05565  1.0000
  C   C1188     1.0  0.66013  0.02360  0.06462  1.0000
  C   C1189     1.0  0.65512  0.02083  0.08317  1.0000
  C   C1190     1.0  0.66578  0.02406  0.09279  1.0000
  C   C1191     1.0  0.68131  0.03041  0.08379  1.0000
  H   H1191     1.0  0.67922  0.03229  0.04138  1.0000
  H   H1192     1.0  0.65199  0.02093  0.05718  1.0000
  H   H1193     1.0  0.66217  0.02149  0.10715  1.0000
  H   H1194     1.0  0.68953  0.03295  0.09122  1.0000
  H   H1195     1.0  0.70260  0.12191  0.02374  1.0000
  C   C1192     1.0  0.63132  0.15572  0.01626  1.0000
  H   H1196     1.0  0.70709  0.02105  0.14202  1.0000
  H   H1197     1.0  0.72533  0.16158  0.15802  1.0000
  C   C1193     1.0  0.74527  0.11044  0.25929  1.0000
  C   C1194     1.0  0.65295  0.12772  0.01593  1.0000
  C   C1195     1.0  0.64720  0.14455  0.02031  1.0000
  S   S427      1.0  0.74765  0.06543  0.23425  1.0000
  C   C1196     1.0  0.73004  0.12324  0.01218  1.0000
  C   C1197     1.0  0.62669  0.13302  0.00400  1.0000
  H   H1198     1.0  0.65483  0.14869  0.02720  1.0000
  C   C1198     1.0  0.58218  0.10478  0.08598  1.0000
  C   C1199     1.0  0.58160  0.08675  0.09211  1.0000
  C   C1200     1.0  0.58520  0.07775  0.10886  1.0000
  C   C1201     1.0  0.58959  0.08671  0.11937  1.0000
  C   C1202     1.0  0.59044  0.10467  0.11307  1.0000
  C   C1203     1.0  0.58648  0.11376  0.09652  1.0000
  H   H1199     1.0  0.57820  0.07977  0.08401  1.0000
  H   H1200     1.0  0.58410  0.06403  0.11377  1.0000
  H   H1201     1.0  0.59395  0.11165  0.12108  1.0000
  H   H1202     1.0  0.58667  0.12773  0.09204  1.0000
  C   C1204     1.0  0.61556  0.26742  0.21561  1.0000
  C   C1205     1.0  0.61209  0.28299  0.22215  1.0000
  C   C1206     1.0  0.62186  0.28414  0.23400  1.0000
  C   C1207     1.0  0.63497  0.26957  0.23963  1.0000
  C   C1208     1.0  0.63797  0.25383  0.23354  1.0000
  C   C1209     1.0  0.62844  0.25280  0.22150  1.0000
  H   H1203     1.0  0.60203  0.29433  0.21782  1.0000
  H   H1204     1.0  0.61938  0.29633  0.23862  1.0000
  H   H1205     1.0  0.64788  0.24241  0.23802  1.0000
  H   H1206     1.0  0.63091  0.24056  0.21703  1.0000
  C   C1210     1.0  0.68978  0.14949  0.19154  1.0000
  C   C1211     1.0  0.67642  0.13983  0.19555  1.0000
  C   C1212     1.0  0.65856  0.14883  0.19633  1.0000
  C   C1213     1.0  0.65412  0.16750  0.19269  1.0000
  C   C1214     1.0  0.66746  0.17710  0.18895  1.0000
  C   C1215     1.0  0.68525  0.16811  0.18855  1.0000
  H   H1207     1.0  0.67980  0.12542  0.19802  1.0000
  H   H1208     1.0  0.64825  0.14133  0.19941  1.0000
  H   H1209     1.0  0.66406  0.19145  0.18645  1.0000
  H   H1210     1.0  0.69553  0.17564  0.18555  1.0000
  C   C1216     1.0  0.59259  0.22070  0.12102  1.0000
  C   C1217     1.0  0.59013  0.20462  0.13287  1.0000
  C   C1218     1.0  0.58423  0.19204  0.12763  1.0000
  C   C1219     1.0  0.58109  0.19520  0.11040  1.0000
  C   C1220     1.0  0.58411  0.21102  0.09839  1.0000
  C   C1221     1.0  0.58961  0.22378  0.10376  1.0000
  H   H1211     1.0  0.59214  0.20218  0.14626  1.0000
  H   H1212     1.0  0.58181  0.17990  0.13706  1.0000
  H   H1213     1.0  0.58164  0.21370  0.08514  1.0000
  H   H1214     1.0  0.59139  0.23621  0.09452  1.0000
  C   C1222     1.0  0.68801  0.22516  0.13542  1.0000
  C   C1223     1.0  0.70169  0.22524  0.12013  1.0000
  C   C1224     1.0  0.71211  0.20904  0.11596  1.0000
  C   C1225     1.0  0.70895  0.19292  0.12730  1.0000
  C   C1226     1.0  0.69578  0.19296  0.14289  1.0000
  C   C1227     1.0  0.68519  0.20904  0.14683  1.0000
  H   H1215     1.0  0.70384  0.23775  0.11126  1.0000
  H   H1216     1.0  0.72240  0.20905  0.10394  1.0000
  H   H1217     1.0  0.69340  0.18052  0.15170  1.0000
  H   H1218     1.0  0.67474  0.20897  0.15868  1.0000
  S   S428      1.0  0.73379  0.19491  0.06958  1.0000
  C   C1228     1.0  0.53017  0.18027  0.01519  1.0000
  H   H1219     1.0  0.60914  0.15875  0.00443  1.0000
  C   C1229     1.0  0.57155  0.27567  0.17613  1.0000
  C   C1230     1.0  0.56344  0.25347  0.15945  1.0000
  C   C1231     1.0  0.57431  0.27950  0.15755  1.0000
  C   C1232     1.0  0.57019  0.26832  0.14921  1.0000
  H   H1220     1.0  0.56089  0.24435  0.15294  1.0000
  H   H1221     1.0  0.58004  0.29080  0.14966  1.0000
  H   H1222     1.0  0.57277  0.27079  0.13477  1.0000
  C   C1233     1.0  0.66368  0.15576  0.15079  1.0000
  H   H1223     1.0  0.68744  0.16242  0.13295  1.0000
  H   H1224     1.0  0.67085  0.14535  0.15981  1.0000
  H   H1225     1.0  0.49973  0.17432  0.99520  1.0000
  C   C1234     1.0  0.61825  0.29856  0.36685  1.0000
  H   H1226     1.0  0.64526  0.30103  0.35507  1.0000
  C   C1235     1.0  0.62120  0.15001  0.00794  1.0000
  H   H1227     1.0  0.56694  0.12738  0.03000  1.0000
  H   H1228     1.0  0.57351  0.11745  0.00164  1.0000
  C   C1236     1.0  0.69704  0.31914  0.29690  1.0000
  H   H1229     1.0  0.67713  0.03680  0.13678  1.0000
  H   H1230     1.0  0.66761  0.19429  0.09772  1.0000
  Fe  Fe214     1.0  0.73830  0.17146  0.05687  1.0000
  C   C1237     1.0  0.70225  0.31562  0.33132  1.0000
  S   S429      1.0  0.71926  0.16814  0.04186  1.0000
  Fe  Fe215     1.0  0.59908  0.00836  0.15486  1.0000
  C   C1238     1.0  0.56453  0.99905  0.13584  1.0000
  Fe  Fe216     1.0  0.73460  0.07895  0.17185  1.0000
  C   C1239     1.0  0.65385  0.27292  0.17305  1.0000
  H   H1231     1.0  0.66200  0.17776  0.00761  1.0000
  C   C1240     1.0  0.56304  0.25658  0.20548  1.0000
  H   H1232     1.0  0.52120  0.14678  0.05265  1.0000
  H   H1233     1.0  0.63869  0.19409  0.11937  1.0000
  S   S430      1.0  0.69453  0.32082  0.27520  1.0000
  C   C1241     1.0  0.67403  0.19019  0.10935  1.0000
  S   S431      1.0  0.73377  0.10846  0.99788  1.0000
  Fe  Fe217     1.0  0.66859  0.31553  0.27381  1.0000
  S   S432      1.0  0.62088  0.31505  0.27054  1.0000
  H   H1234     1.0  0.66458  0.06727  0.14261  1.0000
  C   C1242     1.0  0.64256  0.12185  0.00800  1.0000
  H   H1235     1.0  0.74530  0.08006  0.28172  1.0000
  C   C1243     1.0  0.74107  0.14414  0.02177  1.0000
  H   H1236     1.0  0.67831  0.25376  0.22152  1.0000
  N   N100      1.0  0.63431  0.31410  0.37694  1.0000
  C   C1244     1.0  0.61977  0.31811  0.39011  1.0000
  S   S433      1.0  0.73868  0.15154  0.08252  1.0000
  S   S434      1.0  0.72527  0.06087  0.00481  1.0000
  H   H1237     1.0  0.62018  0.32569  0.39936  1.0000
  C   C1245     1.0  0.73452  0.12946  0.23355  1.0000
  H   H1238     1.0  0.63542  0.29831  0.17086  1.0000
  C   C1246     1.0  0.71281  0.32463  0.31649  1.0000
  H   H1239     1.0  0.62163  0.17720  0.14620  1.0000
  N   N101      1.0  0.71158  0.04250  0.15032  1.0000
  C   C1247     1.0  0.70200  0.03457  0.14402  1.0000
  C   C1248     1.0  0.70500  0.05949  0.15302  1.0000
  C   C1249     1.0  0.68511  0.04351  0.14081  1.0000
  C   C1250     1.0  0.68808  0.06874  0.15014  1.0000
  C   C1251     1.0  0.67806  0.06062  0.14409  1.0000
  H   H1240     1.0  0.69272  0.19967  0.01690  1.0000
  N   N102      1.0  0.73389  0.09957  0.26124  1.0000
  H   H1241     1.0  0.54362  0.31086  0.47823  1.0000
  H   H1242     1.0  0.56436  0.31350  0.44891  1.0000
  H   H1243     1.0  0.73280  0.07224  0.27105  1.0000
  H   H1244     1.0  0.73109  0.27271  0.38517  1.0000
  N   N103      1.0  0.74734  0.10036  0.05691  1.0000
  C   C1252     1.0  0.64584  0.18307  0.12792  1.0000
  H   H1245     1.0  0.73540  0.16614  0.17346  1.0000
  C   C1253     1.0  0.60401  0.31270  0.39177  1.0000
  N   N104      1.0  0.66890  0.26463  0.19732  1.0000
  C   C1254     1.0  0.66103  0.28078  0.20182  1.0000
  H   H1246     1.0  0.69739  0.14505  0.04112  1.0000
  C   C1255     1.0  0.64888  0.29315  0.19238  1.0000
  H   H1247     1.0  0.56651  0.10465  0.17198  1.0000
  C   C1256     1.0  0.64514  0.28907  0.17803  1.0000
  C   C1257     1.0  0.68111  0.25155  0.20773  1.0000
  H   H1248     1.0  0.71245  0.07989  0.06874  1.0000
  H   H1249     1.0  0.64203  0.30556  0.19655  1.0000
  C   C1258     1.0  0.51257  0.17412  0.99749  1.0000
  H   H1250     1.0  0.60612  0.99841  0.09192  1.0000
  C   C1259     1.0  0.74587  0.12546  0.24534  1.0000
  Fe  Fe218     1.0  0.71477  0.09052  0.00128  1.0000
  C   C1260     1.0  0.55995  0.13660  0.13595  1.0000
  H   H1251     1.0  0.55614  0.23813  0.18583  1.0000
  H   H1252     1.0  0.59246  0.31618  0.40210  1.0000
  H   H1253     1.0  0.61768  0.29136  0.35730  1.0000
  C   C1261     1.0  0.57163  0.11491  0.16065  1.0000
  H   H1254     1.0  0.68795  0.18298  0.10499  1.0000
  C   C1262     1.0  0.72426  0.14929  0.03233  1.0000
  H   H1255     1.0  0.56297  0.26822  0.21069  1.0000
  H   H1256     1.0  0.54357  0.14953  0.04704  1.0000
  C   C1263     1.0  0.55602  0.12746  0.02426  1.0000
  H   H1257     1.0  0.65944  0.32013  0.36198  1.0000
  H   H1258     1.0  0.61867  0.12859  0.99776  1.0000
  C   C1264     1.0  0.72280  0.11845  0.23580  1.0000
  H   H1259     1.0  0.67244  0.24821  0.17890  1.0000
  C   C1265     1.0  0.70467  0.99888  0.02751  1.0000
  H   H1260     1.0  0.71264  0.06574  0.15795  1.0000
  N   N105      1.0  0.56116  0.11997  0.14684  1.0000
  C   C1266     1.0  0.73341  0.07808  0.04539  1.0000
  H   H1261     1.0  0.71575  0.02065  0.02777  1.0000
  C   C1267     1.0  0.60324  0.30295  0.37996  1.0000
  C   C1268     1.0  0.54573  0.17356  0.00375  1.0000
  H   H1262     1.0  0.66976  0.19988  0.01839  1.0000
  C   C1269     1.0  0.67607  0.17357  0.00192  1.0000
  N   N106      1.0  0.66408  0.17906  0.12440  1.0000
  C   C1270     1.0  0.63381  0.30418  0.36558  1.0000
  C   C1271     1.0  0.51358  0.18065  0.01189  1.0000
  H   H1263     1.0  0.57115  0.12656  0.16602  1.0000
  C   C1272     1.0  0.55379  0.10758  0.14404  1.0000
  H   H1264     1.0  0.58573  0.10916  0.15501  1.0000
  C   C1273     1.0  0.54488  0.11171  0.13009  1.0000
  C   C1274     1.0  0.55090  0.14124  0.12205  1.0000
  C   C1275     1.0  0.54344  0.12867  0.11905  1.0000
  H   H1265     1.0  0.55544  0.09415  0.15216  1.0000
  H   H1266     1.0  0.53961  0.10163  0.12758  1.0000
  H   H1267     1.0  0.55004  0.15442  0.11345  1.0000
  H   H1268     1.0  0.53688  0.13198  0.10796  1.0000
  N   N107      1.0  0.62474  0.09550  0.06262  1.0000
  C   C1276     1.0  0.62681  0.08383  0.07839  1.0000
  C   C1277     1.0  0.62243  0.08973  0.04891  1.0000
  C   C1278     1.0  0.62616  0.06594  0.08085  1.0000
  C   C1279     1.0  0.62176  0.07194  0.05090  1.0000
  C   C1280     1.0  0.62352  0.06003  0.06703  1.0000
  C   C1281     1.0  0.62594  0.11408  0.06002  1.0000
  H   H1269     1.0  0.62864  0.08836  0.08929  1.0000
  H   H1270     1.0  0.62098  0.09894  0.03636  1.0000
  H   H1271     1.0  0.62754  0.05672  0.09342  1.0000
  H   H1272     1.0  0.61991  0.06747  0.03999  1.0000
  H   H1273     1.0  0.62286  0.04622  0.06885  1.0000
  H   H1274     1.0  0.61757  0.12306  0.05065  1.0000
  H   H1275     1.0  0.62100  0.11873  0.07275  1.0000
  H   H1276     1.0  0.63997  0.11545  0.05449  1.0000
  N   N108      1.0  0.56484  0.26111  0.18610  1.0000
  C   C1282     1.0  0.71344  0.12782  0.02334  1.0000
  H   H1277     1.0  0.72795  0.06942  0.04087  1.0000
  H   H1278     1.0  0.57517  0.28422  0.18248  1.0000
  H   H1279     1.0  0.68074  0.30160  0.34034  1.0000
  C   C1283     1.0  0.67301  0.16553  0.13556  1.0000
  H   H1280     1.0  0.67460  0.20232  0.11335  1.0000
  N   N109      1.0  0.74762  0.25973  0.36448  1.0000
  H   H1281     1.0  0.66515  0.11917  0.01914  1.0000
  Fe  Fe219     1.0  0.73307  0.07484  0.21131  1.0000
  C   C1284     1.0  0.63608  0.17358  0.14310  1.0000
  H   H1282     1.0  0.55857  0.17356  0.00579  1.0000
  S   S435      1.0  0.64871  0.10034  0.00373  1.0000
  C   C1285     1.0  0.71052  0.14095  0.03321  1.0000
  C   C1286     1.0  0.56084  0.25002  0.17800  1.0000
  H   H1283     1.0  0.63771  0.15295  0.16684  1.0000
  Fe  Fe220     1.0  0.63085  0.31480  0.29449  1.0000
  H   H1284     1.0  0.63565  0.04725  0.17638  1.0000
  C   C1287     1.0  0.55435  0.99663  0.12513  1.0000
  H   H1285     1.0  0.73062  0.01835  0.15667  1.0000
  H   H1286     1.0  0.55319  0.00596  0.11263  1.0000
  H   H1287     1.0  0.74460  0.28793  0.35624  1.0000
  S   S436      1.0  0.62839  0.99756  0.14568  1.0000
  H   H1288     1.0  0.65817  0.31103  0.38547  1.0000
  H   H1289     1.0  0.68257  0.18253  0.03272  1.0000
  C   C1288     1.0  0.74388  0.13131  0.01161  1.0000
  H   H1290     1.0  0.72005  0.26167  0.37564  1.0000
  H   H1291     1.0  0.72490  0.10008  0.07869  1.0000
  N   N110      1.0  0.68860  0.17973  0.00601  1.0000
  C   C1289     1.0  0.68310  0.19106  0.01911  1.0000
  C   C1290     1.0  0.73183  0.09533  0.06661  1.0000
  C   C1291     1.0  0.55098  0.32142  0.47368  1.0000
  H   H1292     1.0  0.57091  0.01024  0.13159  1.0000
  C   C1292     1.0  0.52495  0.13338  0.02533  1.0000
  H   H1293     1.0  0.71396  0.12142  0.22667  1.0000
  H   H1294     1.0  0.72124  0.08669  0.28655  1.0000
  C   C1293     1.0  0.56274  0.32292  0.45706  1.0000
  H   H1295     1.0  0.71386  0.09466  0.25116  1.0000
  C   C1294     1.0  0.72924  0.03303  0.15372  1.0000
  C   C1295     1.0  0.71030  0.32626  0.29931  1.0000
  H   H1296     1.0  0.73159  0.03638  0.16545  1.0000
  C   C1296     1.0  0.72269  0.10344  0.24977  1.0000
  C   C1297     1.0  0.72626  0.01145  0.00319  1.0000
  H   H1297     1.0  0.51128  0.13830  0.03165  1.0000
  H   H1298     1.0  0.51731  0.12816  0.00351  1.0000
  H   H1299     1.0  0.50145  0.18591  0.02062  1.0000
  C   C1298     1.0  0.71559  0.01124  0.02023  1.0000
  C   C1299     1.0  0.72592  0.99921  0.99367  1.0000
  H   H1300     1.0  0.64637  0.03100  0.95807  1.0000
  C   C1300     1.0  0.68934  0.02405  0.98134  1.0000
  S   S437      1.0  0.50947  0.16009  0.92758  1.0000
  H   H1301     1.0  0.65914  0.03402  0.80630  1.0000
  H   H1302     1.0  0.53190  0.00728  0.80623  1.0000
  H   H1303     1.0  0.68811  0.05423  0.92177  1.0000
  S   S438      1.0  0.52813  0.15892  0.96775  1.0000
  H   H1304     1.0  0.66386  0.07164  0.97084  1.0000
  H   H1305     1.0  0.53768  0.29944  0.57734  1.0000
  S   S439      1.0  0.62398  0.02920  0.82490  1.0000
  C   C1301     1.0  0.70278  0.02876  0.96674  1.0000
  H   H1306     1.0  0.66422  0.03177  0.76832  1.0000
  H   H1307     1.0  0.70353  0.14585  0.97538  1.0000
  H   H1308     1.0  0.72603  0.15751  0.98260  1.0000
  C   C1302     1.0  0.68476  0.00249  0.96721  1.0000
  H   H1309     1.0  0.51296  0.03499  0.81566  1.0000
  H   H1310     1.0  0.68627  0.07334  0.94230  1.0000
  C   C1303     1.0  0.53402  0.30643  0.58816  1.0000
  N   N111      1.0  0.52291  0.20283  0.94541  1.0000
  C   C1304     1.0  0.71192  0.16227  0.98766  1.0000
  H   H1311     1.0  0.50859  0.30114  0.64456  1.0000
  N   N112      1.0  0.66727  0.04160  0.93870  1.0000
  H   H1312     1.0  0.65491  0.01231  0.77261  1.0000
  H   H1313     1.0  0.71774  0.02361  0.94112  1.0000
  C   C1305     1.0  0.66783  0.02107  0.80541  1.0000
  H   H1314     1.0  0.64374  0.05037  0.97868  1.0000
  H   H1315     1.0  0.51155  0.20774  0.97156  1.0000
  C   C1306     1.0  0.65331  0.05148  0.96608  1.0000
  C   C1307     1.0  0.61345  0.01407  0.89857  1.0000
  S   S440      1.0  0.69903  0.09112  0.98143  1.0000
  H   H1316     1.0  0.61932  0.01936  0.90627  1.0000
  C   C1308     1.0  0.50905  0.20726  0.95902  1.0000
  S   S441      1.0  0.71458  0.04492  0.96610  1.0000
  S   S442      1.0  0.52162  0.06078  0.83035  1.0000
  C   C1309     1.0  0.66458  0.06343  0.96168  1.0000
  H   H1317     1.0  0.64422  0.02909  0.78529  1.0000
  H   H1318     1.0  0.65785  0.03577  0.91887  1.0000
  H   H1319     1.0  0.73408  0.99970  0.98032  1.0000
  N   N113      1.0  0.51602  0.31092  0.61669  1.0000
  C   C1310     1.0  0.65748  0.02201  0.77888  1.0000
  C   C1311     1.0  0.63487  0.02549  0.84234  1.0000
  C   C1312     1.0  0.63792  0.04014  0.84661  1.0000
  C   C1313     1.0  0.64635  0.03769  0.86062  1.0000
  C   C1314     1.0  0.65171  0.02058  0.87052  1.0000
  C   C1315     1.0  0.64902  0.00582  0.86604  1.0000
  C   C1316     1.0  0.64057  0.00828  0.85195  1.0000
  H   H1320     1.0  0.63359  0.05346  0.83917  1.0000
  H   H1321     1.0  0.64843  0.04913  0.86399  1.0000
  H   H1322     1.0  0.54848  0.11804  0.98817  1.0000
  C   C1317     1.0  0.59840  0.01833  0.87481  1.0000
  C   C1318     1.0  0.60541  0.02541  0.88493  1.0000
  S   S443      1.0  0.66091  0.01837  0.88885  1.0000
  H   H1323     1.0  0.54836  0.18559  0.94513  1.0000
  C   C1319     1.0  0.70723  0.02018  0.95241  1.0000
  H   H1324     1.0  0.52451  0.02417  0.86110  1.0000
  H   H1325     1.0  0.70182  0.00056  0.94152  1.0000
  H   H1326     1.0  0.66711  0.01650  0.93423  1.0000
  H   H1327     1.0  0.53066  0.19811  0.91906  1.0000
  H   H1328     1.0  0.55506  0.00561  0.85872  1.0000
  H   H1329     1.0  0.51441  0.29128  0.60384  1.0000
  Fe  Fe221     1.0  0.62155  0.00437  0.81867  1.0000
  H   H1330     1.0  0.60501  0.03961  0.88193  1.0000
  C   C1320     1.0  0.52392  0.32453  0.61566  1.0000
  C   C1321     1.0  0.53457  0.04234  0.82142  1.0000
  C   C1322     1.0  0.52703  0.03149  0.81572  1.0000
  C   C1323     1.0  0.53775  0.01587  0.81033  1.0000
  C   C1324     1.0  0.55598  0.01121  0.81056  1.0000
  H   H1331     1.0  0.57763  0.01919  0.81553  1.0000
  C   C1325     1.0  0.55287  0.03795  0.82106  1.0000
  C   C1326     1.0  0.65485  0.04060  0.95437  1.0000
  C   C1327     1.0  0.69928  0.15568  0.98365  1.0000
  C   C1328     1.0  0.54456  0.00078  0.85647  1.0000
  C   C1329     1.0  0.52082  0.30195  0.60315  1.0000
  C   C1330     1.0  0.67816  0.05351  0.93412  1.0000
  H   H1332     1.0  0.54851  0.20916  0.93769  1.0000
  C   C1331     1.0  0.67709  0.06447  0.94559  1.0000
  N   N114      1.0  0.66851  0.01300  0.79207  1.0000
  H   H1333     1.0  0.55879  0.04643  0.82525  1.0000
  H   H1334     1.0  0.59252  0.02700  0.86387  1.0000
  H   H1335     1.0  0.55691  0.16211  0.98055  1.0000
  H   H1336     1.0  0.67676  0.01873  0.82936  1.0000
  C   C1332     1.0  0.69818  0.00718  0.95257  1.0000
  C   C1333     1.0  0.66850  0.03014  0.92663  1.0000
  H   H1337     1.0  0.50478  0.13506  0.82493  1.0000
  C   C1334     1.0  0.52726  0.01123  0.85774  1.0000
  Fe  Fe222     1.0  0.50545  0.15541  0.95749  1.0000
  C   C1335     1.0  0.56355  0.02247  0.81562  1.0000
  C   C1336     1.0  0.51970  0.20195  0.92972  1.0000
  H   H1338     1.0  0.68161  0.02861  0.91712  1.0000
  C   C1337     1.0  0.52820  0.16739  0.98611  1.0000
  S   S444      1.0  0.51272  0.11165  0.91791  1.0000
  C   C1338     1.0  0.54140  0.19915  0.94740  1.0000
  C   C1339     1.0  0.68049  0.01089  0.98163  1.0000
  H   H1339     1.0  0.63821  0.99689  0.84877  1.0000
  H   H1340     1.0  0.54217  0.19947  0.96100  1.0000
  S   S445      1.0  0.61583  0.00446  0.79267  1.0000
  C   C1340     1.0  0.67784  0.01252  0.81845  1.0000
  C   C1341     1.0  0.54474  0.16722  0.98930  1.0000
  C   C1342     1.0  0.50259  0.30587  0.63264  1.0000
  N   N115      1.0  0.51421  0.00573  0.85377  1.0000
  Fe  Fe223     1.0  0.70699  0.06114  0.98753  1.0000
  C   C1343     1.0  0.68121  0.16151  0.99064  1.0000
  Fe  Fe224     1.0  0.50137  0.13400  0.93266  1.0000
  H   H1341     1.0  0.50730  0.08373  0.90453  1.0000
  C   C1344     1.0  0.50224  0.20580  0.92723  1.0000
  H   H1342     1.0  0.55258  0.32379  0.57556  1.0000
  H   H1343     1.0  0.67025  0.00720  0.99309  1.0000
  C   C1345     1.0  0.54234  0.32010  0.58713  1.0000
  H   H1344     1.0  0.67124  0.15645  0.98764  1.0000
  C   C1346     1.0  0.67979  0.99688  0.79070  1.0000
  C   C1347     1.0  0.59966  0.99991  0.87842  1.0000
  S   S446      1.0  0.49981  0.12817  0.96204  1.0000
  C   C1348     1.0  0.49932  0.11198  0.90352  1.0000
  H   H1345     1.0  0.68589  0.03032  0.99255  1.0000
  H   H1346     1.0  0.49969  0.20499  0.91480  1.0000
  C   C1349     1.0  0.49871  0.09609  0.89955  1.0000
  C   C1350     1.0  0.53719  0.32933  0.60087  1.0000
  C   C1351     1.0  0.64212  0.34609  0.33324  1.0000
  C   C1352     1.0  0.50397  0.54219  0.29288  1.0000
  C   C1353     1.0  0.51573  0.37906  0.47865  1.0000
  C   C1354     1.0  0.54715  0.39184  0.42671  1.0000
  H   H1347     1.0  0.68007  0.52412  0.45120  1.0000
  S   S447      1.0  0.62774  0.35995  0.23676  1.0000
  Fe  Fe225     1.0  0.62039  0.37602  0.38049  1.0000
  S   S448      1.0  0.59111  0.37795  0.39112  1.0000
  H   H1348     1.0  0.51365  0.50701  0.30509  1.0000
  Fe  Fe226     1.0  0.62611  0.38290  0.41403  1.0000
  S   S449      1.0  0.59728  0.38526  0.42789  1.0000
  S   S450      1.0  0.64899  0.38480  0.42427  1.0000
  Fe  Fe227     1.0  0.59865  0.36182  0.41675  1.0000
  H   H1349     1.0  0.60240  0.45483  0.37658  1.0000
  Fe  Fe228     1.0  0.59223  0.40115  0.40119  1.0000
  S   S451      1.0  0.57100  0.42609  0.39899  1.0000
  S   S452      1.0  0.62804  0.35789  0.40524  1.0000
  S   S453      1.0  0.62098  0.40084  0.38826  1.0000
  Fe  Fe229     1.0  0.66798  0.46188  0.44588  1.0000
  S   S454      1.0  0.68357  0.46105  0.41819  1.0000
  S   S455      1.0  0.64204  0.45257  0.45420  1.0000
  Fe  Fe230     1.0  0.69416  0.47892  0.45404  1.0000
  S   S456      1.0  0.71200  0.47920  0.42677  1.0000
  S   S457      1.0  0.51151  0.64726  0.47338  1.0000
  Fe  Fe231     1.0  0.68637  0.48840  0.41707  1.0000
  S   S458      1.0  0.68208  0.50705  0.39124  1.0000
  Fe  Fe232     1.0  0.70760  0.45155  0.43020  1.0000
  S   S459      1.0  0.66884  0.49023  0.44396  1.0000
  S   S460      1.0  0.69183  0.45032  0.45833  1.0000
  S   S461      1.0  0.72196  0.35662  0.34708  1.0000
  Fe  Fe233     1.0  0.73114  0.35425  0.37195  1.0000
  S   S462      1.0  0.71262  0.37323  0.38883  1.0000
  Fe  Fe234     1.0  0.67763  0.46243  0.24916  1.0000
  S   S463      1.0  0.67487  0.44531  0.23234  1.0000
  S   S464      1.0  0.68073  0.49077  0.23956  1.0000
  Fe  Fe235     1.0  0.68146  0.43172  0.28062  1.0000
  S   S465      1.0  0.67856  0.41177  0.26705  1.0000
  S   S466      1.0  0.68686  0.42533  0.30789  1.0000
  Fe  Fe236     1.0  0.69688  0.42507  0.24363  1.0000
  Fe  Fe237     1.0  0.65689  0.43367  0.25712  1.0000
  S   S467      1.0  0.63016  0.43089  0.25565  1.0000
  S   S468      1.0  0.70136  0.44343  0.25802  1.0000
  S   S469      1.0  0.65797  0.45230  0.27316  1.0000
  Fe  Fe238     1.0  0.61715  0.52560  0.31762  1.0000
  S   S470      1.0  0.60136  0.54037  0.33908  1.0000
  S   S471      1.0  0.64126  0.53460  0.29912  1.0000
  Fe  Fe239     1.0  0.59378  0.49861  0.32874  1.0000
  S   S472      1.0  0.57616  0.51075  0.35135  1.0000
  S   S473      1.0  0.59016  0.47402  0.32287  1.0000
  Fe  Fe240     1.0  0.57755  0.53664  0.33177  1.0000
  S   S474      1.0  0.55332  0.55863  0.32918  1.0000
  Fe  Fe241     1.0  0.60151  0.51316  0.35648  1.0000
  S   S475      1.0  0.60548  0.50536  0.38443  1.0000
  S   S476      1.0  0.59335  0.52436  0.30860  1.0000
  S   S477      1.0  0.61917  0.49856  0.33571  1.0000
  H   H1350     1.0  0.55669  0.35637  0.48664  1.0000
  H   H1351     1.0  0.68919  0.54356  0.44164  1.0000
  C   C1355     1.0  0.70804  0.46846  0.37311  1.0000
  H   H1352     1.0  0.71704  0.48542  0.38403  1.0000
  H   H1353     1.0  0.70619  0.35823  0.42915  1.0000
  H   H1354     1.0  0.65280  0.44601  0.40378  1.0000
  H   H1355     1.0  0.67377  0.36877  0.39457  1.0000
  C   C1356     1.0  0.67705  0.53881  0.44998  1.0000
  C   C1357     1.0  0.68108  0.50412  0.30569  1.0000
  C   C1358     1.0  0.67600  0.55854  0.46930  1.0000
  C   C1359     1.0  0.53019  0.40000  0.45438  1.0000
  H   H1356     1.0  0.52991  0.35767  0.45528  1.0000
  H   H1357     1.0  0.71112  0.40899  0.27992  1.0000
  C   C1360     1.0  0.53377  0.55120  0.33197  1.0000
  C   C1361     1.0  0.51783  0.56373  0.33071  1.0000
  C   C1362     1.0  0.72678  0.47288  0.21470  1.0000
  H   H1358     1.0  0.74663  0.37791  0.39260  1.0000
  C   C1363     1.0  0.51793  0.52739  0.33808  1.0000
  C   C1364     1.0  0.53380  0.53301  0.33566  1.0000
  H   H1359     1.0  0.51773  0.57781  0.32786  1.0000
  H   H1360     1.0  0.68047  0.39800  0.47185  1.0000
  H   H1361     1.0  0.51801  0.51332  0.34087  1.0000
  H   H1362     1.0  0.54606  0.52325  0.33641  1.0000
  C   C1365     1.0  0.66814  0.50418  0.25478  1.0000
  C   C1366     1.0  0.67416  0.51886  0.25547  1.0000
  C   C1367     1.0  0.66537  0.52861  0.26872  1.0000
  C   C1368     1.0  0.65044  0.52381  0.28123  1.0000
  C   C1369     1.0  0.64388  0.50968  0.28005  1.0000
  C   C1370     1.0  0.65273  0.49987  0.26681  1.0000
  H   H1363     1.0  0.68592  0.52240  0.24607  1.0000
  H   H1364     1.0  0.67037  0.53965  0.26953  1.0000
  H   H1365     1.0  0.63212  0.50617  0.28945  1.0000
  H   H1366     1.0  0.64747  0.48917  0.26578  1.0000
  C   C1371     1.0  0.70816  0.41162  0.30681  1.0000
  C   C1372     1.0  0.71584  0.40626  0.32171  1.0000
  C   C1373     1.0  0.73220  0.39404  0.32131  1.0000
  H   H1367     1.0  0.70897  0.41110  0.33371  1.0000
  H   H1368     1.0  0.73788  0.38945  0.33304  1.0000
  C   C1374     1.0  0.50200  0.53995  0.33673  1.0000
  H   H1369     1.0  0.55535  0.39511  0.41352  1.0000
  C   C1375     1.0  0.53073  0.56233  0.37142  1.0000
  H   H1370     1.0  0.52148  0.52102  0.38285  1.0000
  C   C1376     1.0  0.72020  0.53180  0.46199  1.0000
  C   C1377     1.0  0.71444  0.51670  0.46151  1.0000
  C   C1378     1.0  0.60735  0.34045  0.34379  1.0000
  C   C1379     1.0  0.74257  0.44624  0.19562  1.0000
  H   H1371     1.0  0.72710  0.53923  0.44985  1.0000
  H   H1372     1.0  0.71688  0.51258  0.44907  1.0000
  C   C1380     1.0  0.66052  0.50781  0.38902  1.0000
  C   C1381     1.0  0.65634  0.51228  0.37218  1.0000
  C   C1382     1.0  0.63933  0.51182  0.37058  1.0000
  C   C1383     1.0  0.62646  0.50714  0.38585  1.0000
  C   C1384     1.0  0.63055  0.50314  0.40262  1.0000
  C   C1385     1.0  0.64757  0.50325  0.40417  1.0000
  H   H1373     1.0  0.66626  0.51596  0.36041  1.0000
  H   H1374     1.0  0.63614  0.51517  0.35758  1.0000
  H   H1375     1.0  0.62057  0.49980  0.41446  1.0000
  H   H1376     1.0  0.65050  0.50000  0.41718  1.0000
  C   C1386     1.0  0.70851  0.41618  0.40815  1.0000
  C   C1387     1.0  0.70514  0.40406  0.40024  1.0000
  H   H1377     1.0  0.65030  0.46802  0.32938  1.0000
  H   H1378     1.0  0.69774  0.42649  0.41270  1.0000
  H   H1379     1.0  0.69181  0.40524  0.39861  1.0000
  H   H1380     1.0  0.51358  0.36520  0.48221  1.0000
  C   C1388     1.0  0.57015  0.34860  0.46163  1.0000
  C   C1389     1.0  0.71199  0.45209  0.36817  1.0000
  C   C1390     1.0  0.72038  0.47280  0.37992  1.0000
  C   C1391     1.0  0.64644  0.40444  0.43150  1.0000
  C   C1392     1.0  0.62963  0.41400  0.43837  1.0000
  C   C1393     1.0  0.62826  0.42861  0.44572  1.0000
  C   C1394     1.0  0.64366  0.43390  0.44577  1.0000
  C   C1395     1.0  0.66038  0.42442  0.43874  1.0000
  C   C1396     1.0  0.66172  0.40975  0.43166  1.0000
  H   H1381     1.0  0.61775  0.40984  0.43849  1.0000
  H   H1382     1.0  0.61528  0.43580  0.45135  1.0000
  H   H1383     1.0  0.67231  0.42814  0.43911  1.0000
  H   H1384     1.0  0.67468  0.40217  0.42673  1.0000
  C   C1397     1.0  0.57449  0.43850  0.37708  1.0000
  C   C1398     1.0  0.58742  0.43129  0.36365  1.0000
  C   C1399     1.0  0.59167  0.44202  0.34667  1.0000
  C   C1400     1.0  0.58308  0.45999  0.34318  1.0000
  C   C1401     1.0  0.56959  0.46695  0.35637  1.0000
  C   C1402     1.0  0.56523  0.45619  0.37328  1.0000
  H   H1385     1.0  0.59437  0.41753  0.36639  1.0000
  H   H1386     1.0  0.60206  0.43659  0.33646  1.0000
  H   H1387     1.0  0.56249  0.48063  0.35354  1.0000
  H   H1388     1.0  0.55503  0.46174  0.38355  1.0000
  C   C1403     1.0  0.62927  0.37968  0.24142  1.0000
  C   C1404     1.0  0.64100  0.37950  0.25177  1.0000
  C   C1405     1.0  0.64181  0.39534  0.25567  1.0000
  C   C1406     1.0  0.63080  0.41138  0.24928  1.0000
  C   C1407     1.0  0.61926  0.41165  0.23873  1.0000
  C   C1408     1.0  0.61865  0.39584  0.23463  1.0000
  H   H1389     1.0  0.64983  0.36729  0.25635  1.0000
  H   H1390     1.0  0.65065  0.39504  0.26393  1.0000
  H   H1391     1.0  0.61069  0.42407  0.23382  1.0000
  H   H1392     1.0  0.60967  0.39607  0.22650  1.0000
  C   C1409     1.0  0.68322  0.36753  0.44864  1.0000
  H   H1393     1.0  0.57798  0.46104  0.40243  1.0000
  C   C1410     1.0  0.61234  0.35193  0.35130  1.0000
  H   H1394     1.0  0.71095  0.35137  0.25075  1.0000
  C   C1411     1.0  0.70077  0.36659  0.43890  1.0000
  H   H1395     1.0  0.67992  0.34499  0.35046  1.0000
  H   H1396     1.0  0.60264  0.35874  0.36098  1.0000
  H   H1397     1.0  0.64309  0.47597  0.30842  1.0000
  H   H1398     1.0  0.58484  0.46741  0.42841  1.0000
  S   S478      1.0  0.58636  0.33796  0.42955  1.0000
  C   C1412     1.0  0.67337  0.38938  0.21753  1.0000
  S   S479      1.0  0.63606  0.37014  0.35392  1.0000
  H   H1399     1.0  0.65991  0.37850  0.20421  1.0000
  H   H1400     1.0  0.70435  0.50774  0.28498  1.0000
  C   C1413     1.0  0.67097  0.56341  0.48582  1.0000
  H   H1401     1.0  0.54378  0.41760  0.43238  1.0000
  H   H1402     1.0  0.66152  0.52029  0.48063  1.0000
  C   C1414     1.0  0.68618  0.38893  0.46281  1.0000
  H   H1403     1.0  0.71160  0.39687  0.45477  1.0000
  H   H1404     1.0  0.50097  0.59745  0.35683  1.0000
  H   H1405     1.0  0.66812  0.40315  0.21175  1.0000
  C   C1415     1.0  0.61974  0.33182  0.33097  1.0000
  S   S480      1.0  0.64500  0.33696  0.28055  1.0000
  H   H1406     1.0  0.70559  0.48086  0.27406  1.0000
  C   C1416     1.0  0.68236  0.47429  0.29352  1.0000
  H   H1407     1.0  0.65101  0.39345  0.47168  1.0000
  C   C1417     1.0  0.69473  0.49939  0.29156  1.0000
  C   C1418     1.0  0.54062  0.40448  0.43733  1.0000
  H   H1408     1.0  0.74633  0.48012  0.38873  1.0000
  H   H1409     1.0  0.67395  0.57539  0.48726  1.0000
  C   C1419     1.0  0.65772  0.37950  0.47057  1.0000
  H   H1410     1.0  0.69197  0.36258  0.26477  1.0000
  S   S481      1.0  0.72999  0.42918  0.42125  1.0000
  H   H1411     1.0  0.53312  0.55498  0.28673  1.0000
  H   H1412     1.0  0.67743  0.34187  0.38267  1.0000
  H   H1413     1.0  0.61593  0.46703  0.42845  1.0000
  C   C1420     1.0  0.73349  0.39309  0.29092  1.0000
  H   H1414     1.0  0.73377  0.42178  0.24799  1.0000
  H   H1415     1.0  0.67513  0.35975  0.44632  1.0000
  N   N116      1.0  0.60899  0.39701  0.29721  1.0000
  C   C1421     1.0  0.61242  0.37882  0.30230  1.0000
  C   C1422     1.0  0.59930  0.40551  0.28441  1.0000
  C   C1423     1.0  0.60594  0.36866  0.29465  1.0000
  C   C1424     1.0  0.59273  0.39575  0.27639  1.0000
  C   C1425     1.0  0.59622  0.37720  0.28146  1.0000
  C   C1426     1.0  0.61664  0.40745  0.30463  1.0000
  H   H1416     1.0  0.62033  0.37204  0.31220  1.0000
  H   H1417     1.0  0.59715  0.41990  0.27989  1.0000
  H   H1418     1.0  0.60866  0.35424  0.29872  1.0000
  H   H1419     1.0  0.58555  0.40251  0.26585  1.0000
  H   H1420     1.0  0.59171  0.36941  0.27496  1.0000
  H   H1421     1.0  0.62013  0.39997  0.31761  1.0000
  H   H1422     1.0  0.62883  0.41098  0.29510  1.0000
  H   H1423     1.0  0.60699  0.42001  0.30698  1.0000
  C   C1427     1.0  0.54865  0.33345  0.48444  1.0000
  C   C1428     1.0  0.69542  0.48436  0.28542  1.0000
  C   C1429     1.0  0.51933  0.53544  0.37966  1.0000
  C   C1430     1.0  0.66819  0.49379  0.31340  1.0000
  C   C1431     1.0  0.68408  0.38533  0.22997  1.0000
  C   C1432     1.0  0.67693  0.35487  0.37381  1.0000
  C   C1433     1.0  0.73606  0.38876  0.39661  1.0000
  H   H1424     1.0  0.65718  0.49813  0.32376  1.0000
  H   H1425     1.0  0.65902  0.45534  0.31245  1.0000
  N   N117      1.0  0.66897  0.47904  0.30733  1.0000
  H   H1426     1.0  0.54384  0.48964  0.30879  1.0000
  C   C1434     1.0  0.72561  0.41456  0.41059  1.0000
  C   C1435     1.0  0.70087  0.36404  0.25132  1.0000
  N   N118      1.0  0.67612  0.37866  0.46036  1.0000
  H   H1427     1.0  0.68708  0.39617  0.23359  1.0000
  C   C1436     1.0  0.71710  0.40523  0.29135  1.0000
  C   C1437     1.0  0.71870  0.38999  0.39500  1.0000
  C   C1438     1.0  0.71112  0.37692  0.44140  1.0000
  C   C1439     1.0  0.65465  0.46913  0.31478  1.0000
  H   H1428     1.0  0.67983  0.51628  0.31003  1.0000
  N   N119      1.0  0.52171  0.53195  0.29542  1.0000
  C   C1440     1.0  0.51214  0.65834  0.48960  1.0000
  C   C1441     1.0  0.66396  0.53259  0.48195  1.0000
  H   H1429     1.0  0.70241  0.44836  0.36323  1.0000
  N   N120      1.0  0.67249  0.54328  0.46755  1.0000
  C   C1442     1.0  0.57232  0.33650  0.45091  1.0000
  H   H1430     1.0  0.56885  0.50512  0.30112  1.0000
  H   H1431     1.0  0.54698  0.53581  0.37658  1.0000
  S   S482      1.0  0.69635  0.48900  0.47733  1.0000
  C   C1443     1.0  0.55831  0.34706  0.47843  1.0000
  H   H1432     1.0  0.50250  0.38841  0.48006  1.0000
  H   H1433     1.0  0.52279  0.38026  0.48834  1.0000
  H   H1434     1.0  0.70820  0.37471  0.24940  1.0000
  C   C1444     1.0  0.74023  0.44511  0.37687  1.0000
  N   N121      1.0  0.67877  0.37292  0.34419  1.0000
  C   C1445     1.0  0.67863  0.35666  0.35554  1.0000
  C   C1446     1.0  0.67653  0.38781  0.35063  1.0000
  C   C1447     1.0  0.53545  0.54060  0.29122  1.0000
  C   C1448     1.0  0.67459  0.38653  0.36885  1.0000
  C   C1449     1.0  0.67484  0.36994  0.38047  1.0000
  C   C1450     1.0  0.68049  0.37451  0.32510  1.0000
  H   H1435     1.0  0.64584  0.46458  0.41456  1.0000
  H   H1436     1.0  0.67634  0.40073  0.34165  1.0000
  H   H1437     1.0  0.72472  0.37634  0.43389  1.0000
  H   H1438     1.0  0.67320  0.39821  0.37399  1.0000
  C   C1451     1.0  0.71693  0.53745  0.47804  1.0000
  H   H1439     1.0  0.68816  0.36189  0.32090  1.0000
  H   H1440     1.0  0.66703  0.37782  0.32208  1.0000
  H   H1441     1.0  0.68779  0.38510  0.31710  1.0000
  N   N122      1.0  0.69033  0.36801  0.23772  1.0000
  C   C1452     1.0  0.68584  0.35439  0.23369  1.0000
  C   C1453     1.0  0.54323  0.37494  0.43319  1.0000
  H   H1442     1.0  0.67108  0.34721  0.21855  1.0000
  H   H1443     1.0  0.65092  0.46881  0.39081  1.0000
  C   C1454     1.0  0.66883  0.37557  0.21324  1.0000
  H   H1444     1.0  0.54868  0.36484  0.42523  1.0000
  H   H1445     1.0  0.65760  0.37092  0.48407  1.0000
  C   C1455     1.0  0.50196  0.55811  0.33322  1.0000
  H   H1446     1.0  0.58131  0.65825  0.47423  1.0000
  H   H1447     1.0  0.66579  0.54494  0.44310  1.0000
  H   H1448     1.0  0.70168  0.46811  0.21407  1.0000
  S   S483      1.0  0.71843  0.40872  0.22614  1.0000
  C   C1456     1.0  0.70538  0.50711  0.47714  1.0000
  N   N123      1.0  0.52633  0.38342  0.46059  1.0000
  C   C1457     1.0  0.74053  0.40854  0.22616  1.0000
  C   C1458     1.0  0.53363  0.54372  0.37616  1.0000
  C   C1459     1.0  0.67507  0.35796  0.22136  1.0000
  H   H1449     1.0  0.68281  0.46287  0.28843  1.0000
  N   N124      1.0  0.62644  0.46056  0.40285  1.0000
  C   C1460     1.0  0.62277  0.45714  0.38848  1.0000
  C   C1461     1.0  0.61305  0.46419  0.41709  1.0000
  C   C1462     1.0  0.60530  0.45733  0.38808  1.0000
  C   C1463     1.0  0.59543  0.46440  0.41718  1.0000
  C   C1464     1.0  0.59158  0.46091  0.40257  1.0000
  C   C1465     1.0  0.64495  0.45991  0.40297  1.0000
  H   H1450     1.0  0.63335  0.45438  0.37717  1.0000
  N   N125      1.0  0.51408  0.57238  0.37009  1.0000
  C   C1466     1.0  0.62967  0.35494  0.34583  1.0000
  H   H1451     1.0  0.52529  0.40979  0.46273  1.0000
  C   C1467     1.0  0.55260  0.53112  0.29311  1.0000
  N   N126      1.0  0.73628  0.46121  0.38163  1.0000
  Fe  Fe242     1.0  0.63750  0.33538  0.25618  1.0000
  H   H1452     1.0  0.74720  0.45868  0.40382  1.0000
  H   H1453     1.0  0.68304  0.56689  0.45800  1.0000
  S   S484      1.0  0.72347  0.55706  0.47803  1.0000
  H   H1454     1.0  0.52360  0.59627  0.35707  1.0000
  H   H1455     1.0  0.57757  0.35909  0.45702  1.0000
  C   C1468     1.0  0.70378  0.38833  0.45326  1.0000
  C   C1469     1.0  0.52460  0.51384  0.30146  1.0000
  C   C1470     1.0  0.54159  0.50394  0.30361  1.0000
  H   H1456     1.0  0.54203  0.56861  0.36820  1.0000
  H   H1457     1.0  0.69536  0.47766  0.37204  1.0000
  C   C1471     1.0  0.72821  0.44034  0.36999  1.0000
  H   H1458     1.0  0.65564  0.34814  0.32910  1.0000
  C   C1472     1.0  0.53262  0.37096  0.45023  1.0000
  C   C1473     1.0  0.55566  0.51267  0.29935  1.0000
  C   C1474     1.0  0.49993  0.56439  0.37387  1.0000
  C   C1475     1.0  0.50234  0.54582  0.37858  1.0000
  C   C1476     1.0  0.71608  0.46430  0.21018  1.0000
  C   C1477     1.0  0.74430  0.41651  0.23792  1.0000
  H   H1459     1.0  0.50652  0.59748  0.37729  1.0000
  H   H1460     1.0  0.73992  0.38755  0.27923  1.0000
  H   H1461     1.0  0.64738  0.33389  0.37746  1.0000
  C   C1478     1.0  0.73949  0.40105  0.40441  1.0000
  H   H1462     1.0  0.56333  0.53813  0.29009  1.0000
  C   C1479     1.0  0.51120  0.59187  0.36511  1.0000
  H   H1463     1.0  0.50361  0.54571  0.27853  1.0000
  H   H1464     1.0  0.50050  0.55458  0.29807  1.0000
  H   H1465     1.0  0.69034  0.34069  0.24023  1.0000
  H   H1466     1.0  0.73121  0.42733  0.36672  1.0000
  H   H1467     1.0  0.64966  0.37506  0.46382  1.0000
  C   C1480     1.0  0.74082  0.38718  0.30606  1.0000
  H   H1468     1.0  0.72062  0.48334  0.22216  1.0000
  C   C1481     1.0  0.72398  0.45081  0.20068  1.0000
  H   H1469     1.0  0.59384  0.33838  0.34780  1.0000
  C   C1482     1.0  0.63721  0.33443  0.32597  1.0000
  H   H1470     1.0  0.71875  0.33292  0.28785  1.0000
  H   H1471     1.0  0.71577  0.44373  0.19749  1.0000
  C   C1483     1.0  0.70261  0.51246  0.49322  1.0000
  H   H1472     1.0  0.53817  0.64283  0.49287  1.0000
  H   H1473     1.0  0.72313  0.33010  0.31819  1.0000
  C   C1484     1.0  0.74535  0.46790  0.20953  1.0000
  H   H1474     1.0  0.65838  0.55623  0.51343  1.0000
  H   H1475     1.0  0.58732  0.50433  0.61595  1.0000
  C   C1485     1.0  0.62661  0.59767  0.71212  1.0000
  H   H1476     1.0  0.72611  0.61355  0.77107  1.0000
  Fe  Fe243     1.0  0.52320  0.42833  0.62050  1.0000
  S   S485      1.0  0.54883  0.40796  0.61811  1.0000
  S   S486      1.0  0.52266  0.45432  0.60084  1.0000
  C   C1486     1.0  0.51086  0.63939  0.55284  1.0000
  H   H1477     1.0  0.61633  0.60947  0.71557  1.0000
  S   S487      1.0  0.54242  0.37140  0.51823  1.0000
  Fe  Fe244     1.0  0.69059  0.61384  0.71885  1.0000
  S   S488      1.0  0.68673  0.60283  0.69752  1.0000
  S   S489      1.0  0.67756  0.64119  0.72385  1.0000
  Fe  Fe245     1.0  0.71878  0.58168  0.73055  1.0000
  S   S490      1.0  0.71678  0.56732  0.71047  1.0000
  S   S491      1.0  0.57530  0.65712  0.57413  1.0000
  Fe  Fe246     1.0  0.71641  0.59406  0.69169  1.0000
  H   H1478     1.0  0.63563  0.54966  0.56544  1.0000
  Fe  Fe247     1.0  0.68700  0.57719  0.71790  1.0000
  S   S492      1.0  0.66346  0.56430  0.72226  1.0000
  S   S493      1.0  0.72031  0.60753  0.71112  1.0000
  S   S494      1.0  0.68897  0.58898  0.73991  1.0000
  Fe  Fe248     1.0  0.62582  0.52287  0.66398  1.0000
  S   S495      1.0  0.62399  0.50289  0.64959  1.0000
  S   S496      1.0  0.65138  0.51921  0.67333  1.0000
  Fe  Fe249     1.0  0.59446  0.54957  0.65077  1.0000
  S   S497      1.0  0.59079  0.53225  0.63454  1.0000
  S   S498      1.0  0.58081  0.57811  0.65122  1.0000
  Fe  Fe250     1.0  0.59421  0.51044  0.65860  1.0000
  S   S499      1.0  0.57860  0.48836  0.66625  1.0000
  Fe  Fe251     1.0  0.62057  0.52600  0.62675  1.0000
  S   S500      1.0  0.63521  0.52163  0.59942  1.0000
  S   S501      1.0  0.59623  0.52817  0.67563  1.0000
  S   S502      1.0  0.62389  0.54549  0.64046  1.0000
  C   C1487     1.0  0.73279  0.60639  0.78192  1.0000
  H   H1479     1.0  0.74366  0.60191  0.86598  1.0000
  Fe  Fe252     1.0  0.55496  0.64440  0.57070  1.0000
  S   S503      1.0  0.55367  0.61556  0.58007  1.0000
  S   S504      1.0  0.68761  0.59531  0.54037  1.0000
  S   S505      1.0  0.72743  0.57551  0.51985  1.0000
  Fe  Fe253     1.0  0.70450  0.56776  0.54159  1.0000
  S   S506      1.0  0.70610  0.55079  0.56865  1.0000
  Fe  Fe254     1.0  0.70965  0.60299  0.51750  1.0000
  C   C1488     1.0  0.61664  0.64885  0.52496  1.0000
  C   C1489     1.0  0.60786  0.63542  0.52623  1.0000
  C   C1490     1.0  0.61760  0.61832  0.52443  1.0000
  C   C1491     1.0  0.63619  0.61450  0.52155  1.0000
  C   C1492     1.0  0.63529  0.64510  0.52183  1.0000
  H   H1480     1.0  0.59358  0.63818  0.52838  1.0000
  H   H1481     1.0  0.61072  0.60799  0.52540  1.0000
  C   C1493     1.0  0.57229  0.58880  0.63200  1.0000
  C   C1494     1.0  0.56734  0.57897  0.62275  1.0000
  C   C1495     1.0  0.56120  0.58739  0.60706  1.0000
  C   C1496     1.0  0.56001  0.60571  0.60051  1.0000
  C   C1497     1.0  0.56458  0.61568  0.60993  1.0000
  C   C1498     1.0  0.57065  0.60723  0.62572  1.0000
  H   H1482     1.0  0.56782  0.56494  0.62789  1.0000
  H   H1483     1.0  0.55744  0.57967  0.59995  1.0000
  H   H1484     1.0  0.56339  0.62989  0.60512  1.0000
  H   H1485     1.0  0.57426  0.61494  0.63294  1.0000
  C   C1499     1.0  0.65499  0.52968  0.59110  1.0000
  C   C1500     1.0  0.66645  0.52536  0.57545  1.0000
  C   C1501     1.0  0.68205  0.53206  0.56836  1.0000
  C   C1502     1.0  0.68633  0.54293  0.57702  1.0000
  C   C1503     1.0  0.67490  0.54727  0.59262  1.0000
  C   C1504     1.0  0.65922  0.54076  0.59956  1.0000
  H   H1486     1.0  0.66323  0.51688  0.56876  1.0000
  H   H1487     1.0  0.69092  0.52859  0.55632  1.0000
  H   H1488     1.0  0.67812  0.55582  0.59925  1.0000
  H   H1489     1.0  0.65039  0.54451  0.61132  1.0000
  C   C1505     1.0  0.69145  0.64299  0.66634  1.0000
  C   C1506     1.0  0.69531  0.65445  0.67463  1.0000
  C   C1507     1.0  0.63530  0.58063  0.67052  1.0000
  C   C1508     1.0  0.66039  0.55205  0.70821  1.0000
  C   C1509     1.0  0.64353  0.54827  0.71070  1.0000
  C   C1510     1.0  0.64035  0.53898  0.69956  1.0000
  C   C1511     1.0  0.65422  0.53276  0.68623  1.0000
  C   C1512     1.0  0.67112  0.53642  0.68382  1.0000
  C   C1513     1.0  0.67412  0.54632  0.69453  1.0000
  H   H1490     1.0  0.63286  0.55253  0.72134  1.0000
  H   H1491     1.0  0.62737  0.53601  0.70174  1.0000
  H   H1492     1.0  0.68203  0.53142  0.67379  1.0000
  H   H1493     1.0  0.68717  0.54906  0.69255  1.0000
  S   S507      1.0  0.51815  0.49083  0.62670  1.0000
  C   C1514     1.0  0.63178  0.59316  0.56535  1.0000
  H   H1494     1.0  0.50465  0.45354  0.69026  1.0000
  C   C1515     1.0  0.64855  0.63898  0.71274  1.0000
  H   H1495     1.0  0.54022  0.65777  0.51544  1.0000
  C   C1516     1.0  0.60321  0.58613  0.57258  1.0000
  H   H1496     1.0  0.65531  0.62555  0.71160  1.0000
  C   C1517     1.0  0.53463  0.48987  0.63820  1.0000
  C   C1518     1.0  0.54104  0.50529  0.63586  1.0000
  C   C1519     1.0  0.55429  0.50509  0.64456  1.0000
  C   C1520     1.0  0.56118  0.48947  0.65584  1.0000
  C   C1521     1.0  0.55442  0.47416  0.65855  1.0000
  C   C1522     1.0  0.54129  0.47430  0.64968  1.0000
  H   H1497     1.0  0.53583  0.51746  0.62715  1.0000
  H   H1498     1.0  0.55909  0.51706  0.64261  1.0000
  H   H1499     1.0  0.55961  0.46203  0.66732  1.0000
  H   H1500     1.0  0.53641  0.46235  0.65167  1.0000
  C   C1523     1.0  0.55114  0.39392  0.60368  1.0000
  C   C1524     1.0  0.53682  0.39388  0.59671  1.0000
  C   C1525     1.0  0.53922  0.38327  0.58446  1.0000
  H   H1501     1.0  0.72047  0.58388  0.78744  1.0000
  C   C1526     1.0  0.55593  0.40793  0.53828  1.0000
  C   C1527     1.0  0.56776  0.38299  0.59865  1.0000
  H   H1502     1.0  0.52396  0.40218  0.60055  1.0000
  N   N127      1.0  0.74476  0.61333  0.78601  1.0000
  N   N128      1.0  0.62366  0.59243  0.69706  1.0000
  H   H1503     1.0  0.57887  0.38287  0.60408  1.0000
  S   S508      1.0  0.64798  0.59283  0.52002  1.0000
  H   H1504     1.0  0.58565  0.43390  0.63791  1.0000
  C   C1528     1.0  0.57423  0.48078  0.60859  1.0000
  C   C1529     1.0  0.73798  0.62180  0.53915  1.0000
  H   H1505     1.0  0.51423  0.44204  0.51977  1.0000
  C   C1530     1.0  0.56956  0.45069  0.61945  1.0000
  S   S509      1.0  0.51170  0.41529  0.50190  1.0000
  C   C1531     1.0  0.59620  0.49088  0.61774  1.0000
  H   H1506     1.0  0.70859  0.65201  0.67705  1.0000
  C   C1532     1.0  0.56536  0.46769  0.60894  1.0000
  H   H1507     1.0  0.64663  0.57552  0.66081  1.0000
  C   C1533     1.0  0.55960  0.41215  0.55258  1.0000
  H   H1508     1.0  0.54346  0.34016  0.59998  1.0000
  H   H1509     1.0  0.56263  0.44045  0.62000  1.0000
  H   H1510     1.0  0.60069  0.48883  0.63032  1.0000
  H   H1511     1.0  0.60274  0.55883  0.57396  1.0000
  H   H1512     1.0  0.52004  0.33171  0.62634  1.0000
  C   C1534     1.0  0.58248  0.44701  0.62950  1.0000
  H   H1513     1.0  0.58323  0.36443  0.58212  1.0000
  C   C1535     1.0  0.73890  0.61740  0.65429  1.0000
  H   H1514     1.0  0.58881  0.59016  0.57593  1.0000
  S   S510      1.0  0.49987  0.36941  0.52461  1.0000
  H   H1515     1.0  0.59547  0.59660  0.70661  1.0000
  H   H1516     1.0  0.56499  0.39736  0.53209  1.0000
  N   N129      1.0  0.68569  0.51093  0.62479  1.0000
  C   C1536     1.0  0.69660  0.50624  0.60957  1.0000
  C   C1537     1.0  0.68973  0.52228  0.63254  1.0000
  C   C1538     1.0  0.71182  0.51330  0.60149  1.0000
  C   C1539     1.0  0.70479  0.52967  0.62474  1.0000
  C   C1540     1.0  0.71580  0.52525  0.60903  1.0000
  C   C1541     1.0  0.66948  0.50394  0.63297  1.0000
  H   H1517     1.0  0.69323  0.49754  0.60321  1.0000
  H   H1518     1.0  0.68106  0.52593  0.64462  1.0000
  H   H1519     1.0  0.71997  0.51032  0.58892  1.0000
  H   H1520     1.0  0.70770  0.53905  0.63065  1.0000
  H   H1521     1.0  0.72711  0.53144  0.60238  1.0000
  H   H1522     1.0  0.67098  0.49438  0.64576  1.0000
  H   H1523     1.0  0.65800  0.51506  0.63579  1.0000
  H   H1524     1.0  0.66609  0.49733  0.62408  1.0000
  C   C1542     1.0  0.63231  0.64645  0.70726  1.0000
  Fe  Fe255     1.0  0.51560  0.38972  0.52200  1.0000
  Fe  Fe256     1.0  0.53787  0.36553  0.54800  1.0000
  C   C1543     1.0  0.60364  0.58660  0.68259  1.0000
  S   S511      1.0  0.56003  0.36102  0.56214  1.0000
  C   C1544     1.0  0.64001  0.57556  0.56400  1.0000
  S   S512      1.0  0.69136  0.56050  0.52395  1.0000
  S   S513      1.0  0.73819  0.57093  0.74933  1.0000
  C   C1545     1.0  0.63788  0.58665  0.68437  1.0000
  N   N130      1.0  0.58678  0.47709  0.61860  1.0000
  H   H1525     1.0  0.59274  0.62111  0.56556  1.0000
  H   H1526     1.0  0.73877  0.60788  0.53986  1.0000
  H   H1527     1.0  0.65443  0.57162  0.56038  1.0000
  Fe  Fe257     1.0  0.50981  0.46648  0.62474  1.0000
  C   C1546     1.0  0.60671  0.59234  0.69638  1.0000
  H   H1528     1.0  0.64216  0.65545  0.52078  1.0000
  Fe  Fe258     1.0  0.71261  0.57046  0.50175  1.0000
  H   H1529     1.0  0.70163  0.63178  0.66243  1.0000
  H   H1530     1.0  0.65947  0.62498  0.51803  1.0000
  H   H1531     1.0  0.65138  0.58609  0.68527  1.0000
  C   C1547     1.0  0.74145  0.62678  0.66555  1.0000
  H   H1532     1.0  0.73582  0.61735  0.89095  1.0000
  H   H1533     1.0  0.73911  0.62170  0.67966  1.0000
  C   C1548     1.0  0.73821  0.58012  0.80497  1.0000
  C   C1549     1.0  0.62948  0.56324  0.56681  1.0000
  C   C1550     1.0  0.57021  0.37253  0.58627  1.0000
  H   H1534     1.0  0.69583  0.50500  0.50542  1.0000
  C   C1551     1.0  0.51183  0.43872  0.53455  1.0000
  H   H1535     1.0  0.61388  0.62604  0.56346  1.0000
  H   H1536     1.0  0.52482  0.63513  0.54571  1.0000
  H   H1537     1.0  0.60804  0.49071  0.60654  1.0000
  C   C1552     1.0  0.61098  0.56844  0.57138  1.0000
  H   H1538     1.0  0.74109  0.61654  0.62702  1.0000
  C   C1553     1.0  0.65616  0.64912  0.71931  1.0000
  H   H1539     1.0  0.62678  0.63891  0.70151  1.0000
  N   N131      1.0  0.52850  0.42991  0.54056  1.0000
  C   C1554     1.0  0.53183  0.43388  0.55484  1.0000
  H   H1540     1.0  0.60132  0.61746  0.58528  1.0000
  C   C1555     1.0  0.72641  0.65297  0.52798  1.0000
  H   H1541     1.0  0.53747  0.41365  0.52127  1.0000
  H   H1542     1.0  0.57155  0.40495  0.55751  1.0000
  C   C1556     1.0  0.64507  0.62786  0.52031  1.0000
  C   C1557     1.0  0.54747  0.42516  0.56099  1.0000
  S   S514      1.0  0.51259  0.38626  0.55132  1.0000
  C   C1558     1.0  0.61804  0.58071  0.66962  1.0000
  H   H1543     1.0  0.54994  0.42811  0.57251  1.0000
  H   H1544     1.0  0.55497  0.47088  0.60147  1.0000
  H   H1545     1.0  0.61578  0.57605  0.65900  1.0000
  C   C1559     1.0  0.59103  0.46044  0.62891  1.0000
  H   H1546     1.0  0.73589  0.56703  0.81216  1.0000
  H   H1547     1.0  0.67103  0.63678  0.65752  1.0000
  H   H1548     1.0  0.65242  0.52831  0.51013  1.0000
  S   S515      1.0  0.53306  0.33111  0.50490  1.0000
  C   C1560     1.0  0.72944  0.58963  0.79123  1.0000
  Fe  Fe259     1.0  0.52668  0.35077  0.52239  1.0000
  H   H1549     1.0  0.57068  0.49404  0.60060  1.0000
  C   C1561     1.0  0.55604  0.37291  0.57889  1.0000
  H   H1550     1.0  0.64005  0.60277  0.56270  1.0000
  C   C1562     1.0  0.67428  0.64584  0.66353  1.0000
  C   C1563     1.0  0.60503  0.61663  0.57104  1.0000
  S   S516      1.0  0.55928  0.65439  0.54125  1.0000
  H   H1551     1.0  0.50560  0.45138  0.53921  1.0000
  H   H1552     1.0  0.50994  0.65256  0.55569  1.0000
  H   H1553     1.0  0.52814  0.38335  0.57917  1.0000
  C   C1564     1.0  0.54027  0.41706  0.53235  1.0000
  S   S517      1.0  0.51215  0.44046  0.64455  1.0000
  Fe  Fe260     1.0  0.67678  0.58889  0.52032  1.0000
  S   S518      1.0  0.71718  0.62959  0.51405  1.0000
  C   C1565     1.0  0.70827  0.52756  0.49367  1.0000
  H   H1554     1.0  0.70604  0.53141  0.50618  1.0000
  C   C1566     1.0  0.72728  0.63494  0.52868  1.0000
  N   N132      1.0  0.61359  0.59827  0.56936  1.0000
  H   H1555     1.0  0.52237  0.44378  0.56162  1.0000
  H   H1556     1.0  0.62622  0.58639  0.72389  1.0000
  H   H1557     1.0  0.63986  0.60115  0.70912  1.0000
  S   S519      1.0  0.52466  0.34290  0.55194  1.0000
  S   S520      1.0  0.73097  0.59757  0.66302  1.0000
  H   H1558     1.0  0.60079  0.45760  0.63705  1.0000
  H   H1559     1.0  0.59020  0.58653  0.68198  1.0000
  C   C1567     1.0  0.74816  0.61818  0.88121  1.0000
  C   C1568     1.0  0.73672  0.65785  0.53700  1.0000
  H   H1560     1.0  0.73979  0.64123  0.78377  1.0000
  C   C1569     1.0  0.74281  0.62384  0.63585  1.0000
  C   C1570     1.0  0.66129  0.66025  0.66873  1.0000
  H   H1561     1.0  0.74515  0.63434  0.76276  1.0000
  H   H1562     1.0  0.74583  0.60587  0.73017  1.0000
  C   C1571     1.0  0.49872  0.48076  0.67563  1.0000
  H   H1563     1.0  0.50220  0.42977  0.53971  1.0000
  H   H1564     1.0  0.50966  0.48428  0.67864  1.0000
  S   S521      1.0  0.69714  0.59883  0.49706  1.0000
  C   C1572     1.0  0.52841  0.66173  0.51002  1.0000
  C   C1573     1.0  0.52727  0.65334  0.49708  1.0000
  H   H1565     1.0  0.51472  0.62032  0.52867  1.0000
  H   H1566     1.0  0.50831  0.62966  0.56565  1.0000
  C   C1574     1.0  0.66227  0.55259  0.50056  1.0000
  C   C1575     1.0  0.65882  0.53702  0.49868  1.0000
  H   H1567     1.0  0.64777  0.66247  0.66698  1.0000
  H   H1568     1.0  0.50429  0.51226  0.65891  1.0000
  Fe  Fe261     1.0  0.49955  0.36384  0.55371  1.0000
  C   C1576     1.0  0.74761  0.64264  0.65850  1.0000
  C   C1577     1.0  0.50197  0.62961  0.53047  1.0000
  C   C1578     1.0  0.74838  0.64471  0.54645  1.0000
  C   C1579     1.0  0.74811  0.63094  0.77626  1.0000
  H   H1569     1.0  0.61874  0.94428  0.14254  1.0000
  H   H1570     1.0  0.58504  0.94585  0.13246  1.0000
  H   H1571     1.0  0.52766  0.86528  0.06911  1.0000
  S   S522      1.0  0.50696  0.81077  0.06023  1.0000
  S   S523      1.0  0.53544  0.97864  0.11486  1.0000
  Fe  Fe262     1.0  0.50852  0.80464  0.08900  1.0000
  Fe  Fe263     1.0  0.51593  0.91936  0.12627  1.0000
  S   S524      1.0  0.52458  0.89002  0.13672  1.0000
  S   S525      1.0  0.53062  0.93621  0.10268  1.0000
  C   C1580     1.0  0.59008  0.95709  0.12337  1.0000
  H   H1572     1.0  0.51246  0.89474  0.10457  1.0000
  C   C1581     1.0  0.50001  0.78457  0.16678  1.0000
  H   H1573     1.0  0.59681  0.95242  0.15533  1.0000
  Fe  Fe264     1.0  0.51078  0.83793  0.05951  1.0000
  H   H1574     1.0  0.51464  0.79963  0.14341  1.0000
  S   S526      1.0  0.52914  0.85379  0.03825  1.0000
  H   H1575     1.0  0.54463  0.85075  0.09278  1.0000
  H   H1576     1.0  0.52437  0.69517  0.47460  1.0000
  C   C1582     1.0  0.54603  0.98205  0.13020  1.0000
  S   S527      1.0  0.52447  0.77914  0.10239  1.0000
  C   C1583     1.0  0.55767  0.97267  0.15730  1.0000
  S   S528      1.0  0.51507  0.83067  0.08755  1.0000
  C   C1584     1.0  0.60763  0.97883  0.11640  1.0000
  C   C1585     1.0  0.57367  0.66928  0.48048  1.0000
  H   H1577     1.0  0.51184  0.77607  0.17116  1.0000
  C   C1586     1.0  0.60796  0.95621  0.14427  1.0000
  C   C1587     1.0  0.54325  0.86496  0.08733  1.0000
  C   C1588     1.0  0.53104  0.70341  0.47888  1.0000
  H   H1578     1.0  0.51254  0.74347  0.10148  1.0000
  H   H1579     1.0  0.61685  0.98460  0.11970  1.0000
  C   C1589     1.0  0.51310  0.76788  0.12250  1.0000
  C   C1590     1.0  0.52279  0.75494  0.13409  1.0000
  C   C1591     1.0  0.52367  0.84089  0.01181  1.0000
  C   C1592     1.0  0.53364  0.87325  0.07393  1.0000
  Fe  Fe265     1.0  0.51903  0.95811  0.11810  1.0000
  H   H1580     1.0  0.53721  0.75209  0.13071  1.0000
  H   H1581     1.0  0.53645  0.91572  0.06876  1.0000
  C   C1593     1.0  0.51111  0.87902  0.13123  1.0000
  C   C1594     1.0  0.58393  0.96452  0.10757  1.0000
  C   C1595     1.0  0.49968  0.74775  0.09772  1.0000
  C   C1596     1.0  0.52730  0.83848  0.99429  1.0000
  H   H1582     1.0  0.52399  0.91240  0.04587  1.0000
  C   C1597     1.0  0.60165  0.98667  0.10056  1.0000
  H   H1583     1.0  0.61301  0.96575  0.14855  1.0000
  H   H1584     1.0  0.52138  0.73567  0.15904  1.0000
  C   C1598     1.0  0.55052  0.87521  0.09400  1.0000
  H   H1585     1.0  0.51919  0.89923  0.99550  1.0000
  H   H1586     1.0  0.55740  0.86910  0.10489  1.0000
  C   C1599     1.0  0.54832  0.89352  0.08707  1.0000
  C   C1600     1.0  0.53371  0.85018  0.01646  1.0000
  C   C1601     1.0  0.58965  0.97950  0.09619  1.0000
  N   N133      1.0  0.60162  0.96438  0.12769  1.0000
  H   H1587     1.0  0.51304  0.83566  0.02169  1.0000
  H   H1588     1.0  0.52140  0.70854  0.49028  1.0000
  C   C1602     1.0  0.50158  0.79773  0.15120  1.0000
  C   C1603     1.0  0.54757  0.97013  0.14646  1.0000
  H   H1589     1.0  0.57410  0.95923  0.10461  1.0000
  C   C1604     1.0  0.54743  0.85699  0.00348  1.0000
  C   C1605     1.0  0.55750  0.67916  0.47599  1.0000
  H   H1590     1.0  0.55889  0.96335  0.16979  1.0000
  H   H1591     1.0  0.54119  0.95886  0.15056  1.0000
  H   H1592     1.0  0.55527  0.86415  0.00701  1.0000
  H   H1593     1.0  0.55354  0.90164  0.09251  1.0000
  H   H1594     1.0  0.58443  0.98575  0.08425  1.0000
  N   N134      1.0  0.53147  0.89122  0.06724  1.0000
  C   C1606     1.0  0.51385  0.74568  0.15010  1.0000
  H   H1595     1.0  0.55268  0.67560  0.46621  1.0000
  H   H1596     1.0  0.72400  0.96152  0.99493  1.0000
  H   H1597     1.0  0.50724  0.77049  0.07803  1.0000
  C   C1607     1.0  0.53862  0.90138  0.07366  1.0000
  S   S529      1.0  0.50656  0.94026  0.14274  1.0000
  H   H1598     1.0  0.50609  0.90295  0.06118  1.0000
  Fe  Fe266     1.0  0.50489  0.94458  0.09341  1.0000
  N   N135      1.0  0.54767  0.69285  0.48413  1.0000
  C   C1608     1.0  0.50702  0.88423  0.11435  1.0000
  C   C1609     1.0  0.70452  0.98693  0.01755  1.0000
  H   H1599     1.0  0.50679  0.86154  0.15705  1.0000
  C   C1610     1.0  0.50375  0.86554  0.14394  1.0000
  H   H1600     1.0  0.69594  0.97742  0.02325  1.0000
  C   C1611     1.0  0.52026  0.89976  0.05416  1.0000
  H   H1601     1.0  0.53381  0.71483  0.46778  1.0000
  C   C1612     1.0  0.56643  0.98701  0.15192  1.0000
  S   S530      1.0  0.58028  0.98898  0.16511  1.0000
  N   N136      1.0  0.71496  0.98731  0.00079  1.0000
  H   H1602     1.0  0.50323  0.71466  0.11719  1.0000
  H   H1603     1.0  0.52160  0.89089  0.04503  1.0000
  S   S531      1.0  0.50448  0.94277  0.06582  1.0000
  C   C1613     1.0  0.57993  0.67372  0.49309  1.0000
  C   C1614     1.0  0.52733  0.89319  0.96935  1.0000
  C   C1615     1.0  0.65199  0.88761  0.89733  1.0000
  C   C1616     1.0  0.67103  0.88516  0.75293  1.0000
  H   H1604     1.0  0.70879  0.80575  0.74852  1.0000
  H   H1605     1.0  0.73202  0.88999  0.79007  1.0000
  N   N137      1.0  0.60798  0.98883  0.89151  1.0000
  Fe  Fe267     1.0  0.71956  0.88359  0.75864  1.0000
  S   S532      1.0  0.71783  0.88736  0.73018  1.0000
  S   S533      1.0  0.69862  0.89355  0.78098  1.0000
  Fe  Fe268     1.0  0.72796  0.85777  0.73451  1.0000
  S   S534      1.0  0.71904  0.84030  0.72247  1.0000
  H   H1606     1.0  0.63093  0.70162  0.61169  1.0000
  S   S535      1.0  0.72713  0.85374  0.76349  1.0000
  H   H1607     1.0  0.60690  0.96535  0.88391  1.0000
  S   S536      1.0  0.62726  0.94444  0.85681  1.0000
  S   S537      1.0  0.68400  0.82974  0.88319  1.0000
  S   S538      1.0  0.71036  0.85770  0.86142  1.0000
  Fe  Fe269     1.0  0.70032  0.84507  0.88974  1.0000
  S   S539      1.0  0.68797  0.85971  0.91195  1.0000
  Fe  Fe270     1.0  0.69604  0.84052  0.85487  1.0000
  S   S540      1.0  0.68007  0.85263  0.83378  1.0000
  S   S541      1.0  0.71936  0.81743  0.85289  1.0000
  H   H1608     1.0  0.64053  0.71730  0.61672  1.0000
  H   H1609     1.0  0.63626  0.93288  0.77702  1.0000
  C   C1617     1.0  0.66837  0.91624  0.73632  1.0000
  Fe  Fe271     1.0  0.64612  0.96218  0.93192  1.0000
  S   S542      1.0  0.66190  0.96560  0.90387  1.0000
  S   S543      1.0  0.61977  0.95441  0.93660  1.0000
  Fe  Fe272     1.0  0.68555  0.95388  0.91652  1.0000
  H   H1610     1.0  0.53088  0.70323  0.66586  1.0000
  C   C1618     1.0  0.67696  0.82028  0.93685  1.0000
  S   S544      1.0  0.66960  0.94869  0.94465  1.0000
  Fe  Fe273     1.0  0.67155  0.97651  0.94469  1.0000
  Fe  Fe274     1.0  0.62365  0.78839  0.77245  1.0000
  S   S545      1.0  0.60492  0.81522  0.77046  1.0000
  S   S546      1.0  0.62146  0.76431  0.76359  1.0000
  Fe  Fe275     1.0  0.64799  0.79975  0.78936  1.0000
  S   S547      1.0  0.63157  0.82742  0.78820  1.0000
  S   S548      1.0  0.67202  0.79171  0.80155  1.0000
  Fe  Fe276     1.0  0.60833  0.81419  0.79794  1.0000
  S   S549      1.0  0.58650  0.82413  0.81998  1.0000
  Fe  Fe277     1.0  0.63005  0.82581  0.76117  1.0000
  S   S550      1.0  0.63603  0.84713  0.73715  1.0000
  S   S551      1.0  0.62480  0.78633  0.80094  1.0000
  S   S552      1.0  0.64861  0.79915  0.76135  1.0000
  Fe  Fe278     1.0  0.57290  0.88348  0.90661  1.0000
  S   S553      1.0  0.60238  0.87269  0.90014  1.0000
  S   S554      1.0  0.56131  0.90846  0.88886  1.0000
  Fe  Fe279     1.0  0.56673  0.85367  0.93851  1.0000
  S   S555      1.0  0.59576  0.84032  0.93470  1.0000
  S   S556      1.0  0.54485  0.84241  0.95934  1.0000
  Fe  Fe280     1.0  0.60021  0.86812  0.92943  1.0000
  S   S557      1.0  0.62162  0.87372  0.93933  1.0000
  Fe  Fe281     1.0  0.59524  0.84620  0.90563  1.0000
  S   S558      1.0  0.61224  0.82790  0.88732  1.0000
  S   S559      1.0  0.57122  0.88103  0.93560  1.0000
  S   S560      1.0  0.56580  0.85734  0.90977  1.0000
  Fe  Fe282     1.0  0.60329  0.74147  0.68144  1.0000
  S   S561      1.0  0.58668  0.72533  0.67589  1.0000
  S   S562      1.0  0.59436  0.76513  0.69497  1.0000
  Fe  Fe283     1.0  0.63793  0.72076  0.66319  1.0000
  S   S563      1.0  0.62506  0.70263  0.65631  1.0000
  S   S564      1.0  0.66743  0.71656  0.65922  1.0000
  Fe  Fe284     1.0  0.60471  0.72713  0.64861  1.0000
  S   S565      1.0  0.59746  0.73214  0.62174  1.0000
  Fe  Fe285     1.0  0.60822  0.70182  0.68381  1.0000
  C   C1619     1.0  0.73643  0.80846  0.75798  1.0000
  S   S566      1.0  0.61925  0.74563  0.65324  1.0000
  S   S567      1.0  0.62316  0.71770  0.69143  1.0000
  H   H1611     1.0  0.70854  0.79711  0.79691  1.0000
  H   H1612     1.0  0.64423  0.95469  0.74906  1.0000
  H   H1613     1.0  0.72083  0.74270  0.91062  1.0000
  H   H1614     1.0  0.68185  0.88074  0.76048  1.0000
  H   H1615     1.0  0.66509  0.69185  0.62438  1.0000
  S   S568      1.0  0.51591  0.68708  0.53100  1.0000
  S   S569      1.0  0.55608  0.69388  0.54905  1.0000
  C   C1620     1.0  0.51603  0.89367  0.98603  1.0000
  S   S570      1.0  0.70755  0.72318  0.57877  1.0000
  H   H1616     1.0  0.70590  0.78722  0.76726  1.0000
  H   H1617     1.0  0.65323  0.99256  0.87353  1.0000
  H   H1618     1.0  0.68811  0.95538  0.74721  1.0000
  C   C1621     1.0  0.58764  0.71777  0.61567  1.0000
  C   C1622     1.0  0.58535  0.72139  0.59811  1.0000
  C   C1623     1.0  0.57506  0.71224  0.59339  1.0000
  C   C1624     1.0  0.56687  0.69941  0.60625  1.0000
  C   C1625     1.0  0.57006  0.69506  0.62356  1.0000
  C   C1626     1.0  0.58053  0.70407  0.62824  1.0000
  H   H1619     1.0  0.59086  0.73191  0.58826  1.0000
  H   H1620     1.0  0.57256  0.71588  0.58008  1.0000
  C   C1627     1.0  0.64025  0.71088  0.60610  1.0000
  H   H1621     1.0  0.58225  0.70108  0.64180  1.0000
  C   C1628     1.0  0.67829  0.71892  0.63681  1.0000
  C   C1629     1.0  0.66952  0.72947  0.62331  1.0000
  C   C1630     1.0  0.67857  0.73104  0.60540  1.0000
  C   C1631     1.0  0.69625  0.72182  0.60107  1.0000
  C   C1632     1.0  0.70483  0.71116  0.61463  1.0000
  C   C1633     1.0  0.69595  0.70984  0.63245  1.0000
  H   H1622     1.0  0.65588  0.73662  0.62667  1.0000
  H   H1623     1.0  0.67187  0.73930  0.59494  1.0000
  H   H1624     1.0  0.71833  0.70376  0.61150  1.0000
  H   H1625     1.0  0.70277  0.70161  0.64284  1.0000
  H   H1626     1.0  0.69271  0.79892  0.92380  1.0000
  H   H1627     1.0  0.67773  0.91170  0.72495  1.0000
  C   C1634     1.0  0.71017  0.89156  0.82137  1.0000
  H   H1628     1.0  0.73116  0.77438  0.59467  1.0000
  H   H1629     1.0  0.53246  0.88444  0.94493  1.0000
  C   C1635     1.0  0.55123  0.85438  0.98600  1.0000
  Fe  Fe286     1.0  0.73493  0.70588  0.57843  1.0000
  H   H1630     1.0  0.73817  0.84351  0.82541  1.0000
  H   H1631     1.0  0.56192  0.85954  0.97612  1.0000
  C   C1636     1.0  0.61319  0.76497  0.74483  1.0000
  C   C1637     1.0  0.61488  0.74889  0.73983  1.0000
  C   C1638     1.0  0.60914  0.74876  0.72467  1.0000
  C   C1639     1.0  0.60139  0.76472  0.71442  1.0000
  C   C1640     1.0  0.59937  0.78079  0.71962  1.0000
  C   C1641     1.0  0.60533  0.78095  0.73469  1.0000
  H   H1632     1.0  0.62080  0.73644  0.74766  1.0000
  H   H1633     1.0  0.61048  0.73626  0.72109  1.0000
  H   H1634     1.0  0.59329  0.79321  0.71187  1.0000
  H   H1635     1.0  0.60388  0.79343  0.73840  1.0000
  C   C1642     1.0  0.59335  0.82415  0.83925  1.0000
  C   C1643     1.0  0.58161  0.83340  0.85196  1.0000
  C   C1644     1.0  0.58713  0.83441  0.86692  1.0000
  C   C1645     1.0  0.60436  0.82592  0.86940  1.0000
  C   C1646     1.0  0.61591  0.81621  0.85695  1.0000
  C   C1647     1.0  0.61049  0.81542  0.84187  1.0000
  H   H1636     1.0  0.56830  0.84009  0.85008  1.0000
  H   H1637     1.0  0.57807  0.84177  0.87650  1.0000
  H   H1638     1.0  0.62928  0.80961  0.85876  1.0000
  H   H1639     1.0  0.61969  0.80824  0.83217  1.0000
  C   C1648     1.0  0.62034  0.93192  0.93761  1.0000
  C   C1649     1.0  0.60604  0.92746  0.93392  1.0000
  C   C1650     1.0  0.60625  0.90964  0.93451  1.0000
  C   C1651     1.0  0.62056  0.89613  0.93917  1.0000
  C   C1652     1.0  0.63458  0.90053  0.94339  1.0000
  C   C1653     1.0  0.63466  0.91841  0.94230  1.0000
  H   H1640     1.0  0.59477  0.93779  0.93059  1.0000
  H   H1641     1.0  0.59518  0.90633  0.93167  1.0000
  H   H1642     1.0  0.64535  0.89008  0.94761  1.0000
  H   H1643     1.0  0.64559  0.92167  0.94549  1.0000
  C   C1654     1.0  0.67815  0.83571  0.82464  1.0000
  C   C1655     1.0  0.67311  0.83999  0.80825  1.0000
  C   C1656     1.0  0.67100  0.82653  0.80121  1.0000
  C   C1657     1.0  0.67388  0.80878  0.81056  1.0000
  C   C1658     1.0  0.67931  0.80449  0.82674  1.0000
  C   C1659     1.0  0.68131  0.81794  0.83384  1.0000
  H   H1644     1.0  0.67092  0.85370  0.80098  1.0000
  H   H1645     1.0  0.66748  0.82983  0.78840  1.0000
  H   H1646     1.0  0.68169  0.79077  0.83396  1.0000
  H   H1647     1.0  0.68497  0.81454  0.84662  1.0000
  H   H1648     1.0  0.51474  0.86974  0.93764  1.0000
  C   C1660     1.0  0.68419  0.89135  0.92108  1.0000
  C   C1661     1.0  0.68805  0.90804  0.91901  1.0000
  H   H1649     1.0  0.67398  0.88689  0.93208  1.0000
  H   H1650     1.0  0.68068  0.91641  0.92835  1.0000
  C   C1662     1.0  0.57798  0.92084  0.88102  1.0000
  C   C1663     1.0  0.57915  0.93267  0.86445  1.0000
  C   C1664     1.0  0.59413  0.94038  0.85713  1.0000
  C   C1665     1.0  0.60788  0.93613  0.86637  1.0000
  C   C1666     1.0  0.60627  0.92496  0.88326  1.0000
  C   C1667     1.0  0.59127  0.91744  0.89059  1.0000
  H   H1651     1.0  0.56889  0.93530  0.85700  1.0000
  H   H1652     1.0  0.59525  0.94913  0.84411  1.0000
  H   H1653     1.0  0.61664  0.92195  0.89066  1.0000
  H   H1654     1.0  0.59009  0.90875  0.90360  1.0000
  H   H1655     1.0  0.58125  0.77197  0.77785  1.0000
  H   H1656     1.0  0.74607  0.78345  0.90681  1.0000
  H   H1657     1.0  0.69857  0.97495  0.80260  1.0000
  C   C1668     1.0  0.70696  0.80142  0.76324  1.0000
  C   C1669     1.0  0.52334  0.88532  0.95761  1.0000
  S   S571      1.0  0.70831  0.77967  0.89630  1.0000
  H   H1658     1.0  0.72204  0.90673  0.88267  1.0000
  H   H1659     1.0  0.67188  0.91323  0.80419  1.0000
  C   C1670     1.0  0.69582  0.84359  0.72650  1.0000
  C   C1671     1.0  0.68764  0.84526  0.71251  1.0000
  C   C1672     1.0  0.66913  0.84711  0.71567  1.0000
  C   C1673     1.0  0.65888  0.84653  0.73296  1.0000
  C   C1674     1.0  0.66709  0.84473  0.74699  1.0000
  C   C1675     1.0  0.68551  0.84367  0.74371  1.0000
  H   H1660     1.0  0.69562  0.84516  0.69920  1.0000
  H   H1661     1.0  0.66284  0.84842  0.70482  1.0000
  H   H1662     1.0  0.65915  0.84432  0.76034  1.0000
  H   H1663     1.0  0.69179  0.84241  0.75455  1.0000
  H   H1664     1.0  0.54875  0.72297  0.66909  1.0000
  H   H1665     1.0  0.53939  0.89833  0.96575  1.0000
  H   H1666     1.0  0.67475  0.68914  0.69450  1.0000
  H   H1667     1.0  0.65547  0.68262  0.68095  1.0000
  H   H1668     1.0  0.66053  0.87739  0.75980  1.0000
  C   C1676     1.0  0.56994  0.68785  0.50111  1.0000
  C   C1677     1.0  0.73832  0.76932  0.58280  1.0000
  C   C1678     1.0  0.69360  0.88034  0.90909  1.0000
  H   H1669     1.0  0.64478  0.84563  0.96094  1.0000
  C   C1679     1.0  0.73536  0.76734  0.86982  1.0000
  S   S572      1.0  0.73796  0.67662  0.58981  1.0000
  H   H1670     1.0  0.72051  0.75201  0.58587  1.0000
  C   C1680     1.0  0.69166  0.68223  0.58564  1.0000
  S   S573      1.0  0.56900  0.99072  0.80589  1.0000
  C   C1681     1.0  0.62366  0.66400  0.70844  1.0000
  C   C1682     1.0  0.67108  0.95223  0.77341  1.0000
  H   H1671     1.0  0.70573  0.88008  0.81977  1.0000
  C   C1683     1.0  0.65696  0.90379  0.86741  1.0000
  H   H1672     1.0  0.66976  0.91888  0.88952  1.0000
  N   N138      1.0  0.66033  0.83041  0.94162  1.0000
  C   C1684     1.0  0.64611  0.82821  0.93656  1.0000
  C   C1685     1.0  0.64825  0.81526  0.92685  1.0000
  C   C1686     1.0  0.66507  0.80448  0.92244  1.0000
  C   C1687     1.0  0.65789  0.84433  0.95141  1.0000
  H   H1673     1.0  0.63301  0.83651  0.94002  1.0000
  H   H1674     1.0  0.63695  0.81366  0.92270  1.0000
  H   H1675     1.0  0.66704  0.79441  0.91482  1.0000
  S   S574      1.0  0.60502  0.67435  0.69897  1.0000
  Fe  Fe287     1.0  0.59695  0.98695  0.80934  1.0000
  N   N139      1.0  0.60163  0.87345  0.84620  1.0000
  C   C1688     1.0  0.61758  0.86495  0.85087  1.0000
  C   C1689     1.0  0.59776  0.87096  0.83147  1.0000
  C   C1690     1.0  0.63035  0.85396  0.84044  1.0000
  C   C1691     1.0  0.61023  0.86005  0.82073  1.0000
  C   C1692     1.0  0.62662  0.85154  0.82528  1.0000
  C   C1693     1.0  0.58823  0.88434  0.85775  1.0000
  H   H1676     1.0  0.62026  0.86612  0.86306  1.0000
  H   H1677     1.0  0.58480  0.87700  0.82822  1.0000
  H   H1678     1.0  0.64272  0.84673  0.84452  1.0000
  H   H1679     1.0  0.60689  0.85755  0.80943  1.0000
  H   H1680     1.0  0.63606  0.84240  0.81757  1.0000
  H   H1681     1.0  0.57833  0.89416  0.85055  1.0000
  H   H1682     1.0  0.58101  0.87566  0.86918  1.0000
  H   H1683     1.0  0.59458  0.89210  0.86296  1.0000
  C   C1694     1.0  0.65558  0.91846  0.89121  1.0000
  C   C1695     1.0  0.68020  0.69178  0.57424  1.0000
  N   N140      1.0  0.58081  0.77870  0.82417  1.0000
  C   C1696     1.0  0.59068  0.76342  0.81877  1.0000
  C   C1697     1.0  0.58170  0.78156  0.84127  1.0000
  H   H1684     1.0  0.59890  0.75345  0.82713  1.0000
  H   H1685     1.0  0.57989  0.76958  0.85200  1.0000
  H   H1686     1.0  0.59485  0.78455  0.84020  1.0000
  H   H1687     1.0  0.57126  0.79305  0.84527  1.0000
  H   H1688     1.0  0.64971  0.86040  0.90151  1.0000
  N   N141      1.0  0.65449  0.90301  0.88522  1.0000
  S   S575      1.0  0.64651  0.98943  0.93444  1.0000
  C   C1698     1.0  0.68883  0.91631  0.77797  1.0000
  Fe  Fe288     1.0  0.62290  0.96522  0.83248  1.0000
  H   H1689     1.0  0.53800  0.96649  0.84314  1.0000
  Fe  Fe289     1.0  0.55266  0.68045  0.57816  1.0000
  H   H1690     1.0  0.66525  0.94402  0.72293  1.0000
  C   C1699     1.0  0.64946  0.94051  0.74968  1.0000
  H   H1691     1.0  0.64879  0.93105  0.88351  1.0000
  C   C1700     1.0  0.68473  0.94622  0.75973  1.0000
  H   H1692     1.0  0.64925  0.90063  0.77867  1.0000
  N   N142      1.0  0.65810  0.70124  0.59896  1.0000
  C   C1701     1.0  0.72875  0.74597  0.89733  1.0000
  C   C1702     1.0  0.65409  0.87322  0.87364  1.0000
  N   N143      1.0  0.64436  0.76796  0.69455  1.0000
  C   C1703     1.0  0.65197  0.75361  0.70597  1.0000
  C   C1704     1.0  0.64149  0.78485  0.69724  1.0000
  C   C1705     1.0  0.65650  0.75591  0.72084  1.0000
  C   C1706     1.0  0.64593  0.78765  0.71194  1.0000
  C   C1707     1.0  0.65340  0.77304  0.72382  1.0000
  C   C1708     1.0  0.63985  0.76519  0.67902  1.0000
  H   H1693     1.0  0.65416  0.74023  0.70385  1.0000
  H   H1694     1.0  0.63535  0.79622  0.68826  1.0000
  H   H1695     1.0  0.66185  0.74448  0.73030  1.0000
  H   H1696     1.0  0.64318  0.80099  0.71438  1.0000
  H   H1697     1.0  0.65631  0.77493  0.73562  1.0000
  H   H1698     1.0  0.65179  0.76418  0.66799  1.0000
  H   H1699     1.0  0.63474  0.75276  0.68245  1.0000
  H   H1700     1.0  0.62899  0.77614  0.67442  1.0000
  N   N144      1.0  0.54557  0.74022  0.62613  1.0000
  C   C1709     1.0  0.53545  0.72966  0.62435  1.0000
  C   C1710     1.0  0.55004  0.73815  0.64207  1.0000
  C   C1711     1.0  0.52996  0.71627  0.63861  1.0000
  C   C1712     1.0  0.54474  0.72490  0.65664  1.0000
  C   C1713     1.0  0.53469  0.71386  0.65483  1.0000
  C   C1714     1.0  0.55117  0.75423  0.61106  1.0000
  H   H1701     1.0  0.53221  0.73098  0.61163  1.0000
  H   H1702     1.0  0.55826  0.74637  0.64342  1.0000
  S   S576      1.0  0.74767  0.88738  0.75213  1.0000
  H   H1703     1.0  0.52271  0.70737  0.63679  1.0000
  H   H1704     1.0  0.50750  0.98531  0.84579  1.0000
  H   H1705     1.0  0.71915  0.97930  0.97620  1.0000
  C   C1715     1.0  0.54842  0.98454  0.85130  1.0000
  C   C1716     1.0  0.68616  0.68216  0.60380  1.0000
  H   H1706     1.0  0.69349  0.67201  0.69972  1.0000
  H   H1707     1.0  0.56193  0.97660  0.84956  1.0000
  H   H1708     1.0  0.64900  0.91788  0.90546  1.0000
  C   C1717     1.0  0.69359  0.92822  0.76198  1.0000
  C   C1718     1.0  0.66133  0.93452  0.73506  1.0000
  Fe  Fe290     1.0  0.74686  0.88829  0.72401  1.0000
  H   H1709     1.0  0.62296  0.96224  0.89695  1.0000
  S   S577      1.0  0.61727  0.96130  0.80792  1.0000
  C   C1719     1.0  0.68687  0.68010  0.68865  1.0000
  C   C1720     1.0  0.65681  0.88892  0.86134  1.0000
  C   C1721     1.0  0.67559  0.92245  0.79182  1.0000
  C   C1722     1.0  0.64704  0.66633  0.72130  1.0000
  H   H1710     1.0  0.65837  0.85733  0.94190  1.0000
  C   C1723     1.0  0.65158  0.87256  0.89176  1.0000
  C   C1724     1.0  0.73851  0.88457  0.83119  1.0000
  H   H1711     1.0  0.73230  0.80179  0.80851  1.0000
  S   S578      1.0  0.54946  0.69202  0.60232  1.0000
  S   S579      1.0  0.60089  0.98914  0.83532  1.0000
  Fe  Fe291     1.0  0.70872  0.80803  0.88198  1.0000
  Fe  Fe292     1.0  0.73267  0.83359  0.86208  1.0000
  C   C1725     1.0  0.72511  0.76326  0.88703  1.0000
  H   H1712     1.0  0.69407  0.80951  0.76908  1.0000
  C   C1726     1.0  0.70174  0.91361  0.90520  1.0000
  C   C1727     1.0  0.70717  0.88597  0.89512  1.0000
  C   C1728     1.0  0.73903  0.88755  0.80067  1.0000
  N   N145      1.0  0.68243  0.66840  0.67990  1.0000
  C   C1729     1.0  0.64498  0.92824  0.76541  1.0000
  H   H1713     1.0  0.56337  0.80385  0.81739  1.0000
  H   H1714     1.0  0.56335  0.79971  0.78782  1.0000
  C   C1730     1.0  0.67952  0.80699  0.92746  1.0000
  C   C1731     1.0  0.59075  0.76068  0.80217  1.0000
  C   C1732     1.0  0.57094  0.79156  0.81331  1.0000
  H   H1715     1.0  0.59896  0.74877  0.79768  1.0000
  H   H1716     1.0  0.65893  0.88948  0.84721  1.0000
  S   S580      1.0  0.72395  0.82241  0.89114  1.0000
  C   C1733     1.0  0.71133  0.90251  0.89328  1.0000
  H   H1717     1.0  0.71474  0.87742  0.88602  1.0000
  H   H1718     1.0  0.51941  0.83136  0.99078  1.0000
  C   C1734     1.0  0.72014  0.80118  0.78763  1.0000
  H   H1719     1.0  0.54112  0.76690  0.61151  1.0000
  H   H1720     1.0  0.65903  0.91599  0.85782  1.0000
  H   H1721     1.0  0.65068  0.88673  0.91139  1.0000
  H   H1722     1.0  0.56371  0.68523  0.63363  1.0000
  H   H1723     1.0  0.65418  0.86151  0.86911  1.0000
  C   C1735     1.0  0.66332  0.70120  0.58117  1.0000
  Fe  Fe293     1.0  0.53758  0.67763  0.54723  1.0000
  S   S581      1.0  0.70712  0.93428  0.90268  1.0000
  H   H1724     1.0  0.65636  0.94496  0.80022  1.0000
  C   C1736     1.0  0.58081  0.77375  0.79099  1.0000
  C   C1737     1.0  0.57082  0.78930  0.79657  1.0000
  H   H1725     1.0  0.70497  0.90363  0.81186  1.0000
  C   C1738     1.0  0.53497  0.97889  0.84759  1.0000
  H   H1726     1.0  0.62367  0.68686  0.71783  1.0000
  C   C1739     1.0  0.66677  0.94039  0.78957  1.0000
  S   S582      1.0  0.64405  0.98060  0.81806  1.0000
  C   C1740     1.0  0.55370  0.69727  0.49654  1.0000
  C   C1741     1.0  0.73367  0.80359  0.79427  1.0000
  C   C1742     1.0  0.65236  0.91007  0.76625  1.0000
  C   C1743     1.0  0.54111  0.84516  0.98135  1.0000
  S   S583      1.0  0.68966  0.98041  0.91770  1.0000
  C   C1744     1.0  0.69002  0.98795  0.80349  1.0000
  N   N146      1.0  0.66361  0.90428  0.75170  1.0000
  H   H1727     1.0  0.67654  0.88188  0.73955  1.0000
  N   N147      1.0  0.72151  0.80386  0.76970  1.0000
  C   C1745     1.0  0.60937  0.96954  0.89507  1.0000
  H   H1728     1.0  0.66843  0.84144  0.95908  1.0000
  C   C1746     1.0  0.66917  0.69171  0.61029  1.0000
  H   H1729     1.0  0.59961  0.96537  0.90738  1.0000
  H   H1730     1.0  0.70386  0.92353  0.75127  1.0000
  H   H1731     1.0  0.57477  0.69142  0.51088  1.0000
  H   H1732     1.0  0.68839  0.82262  0.94009  1.0000
  H   H1733     1.0  0.70123  0.97204  0.99300  1.0000
  H   H1734     1.0  0.56433  0.75635  0.61133  1.0000
  C   C1747     1.0  0.74179  0.75026  0.56271  1.0000
  H   H1735     1.0  0.55287  0.75044  0.59819  1.0000
  S   S584      1.0  0.65858  0.97415  0.76979  1.0000
  C   C1748     1.0  0.63078  0.67370  0.71597  1.0000
  H   H1736     1.0  0.68446  0.69200  0.56009  1.0000
  H   H1737     1.0  0.70408  0.89382  0.83504  1.0000
  C   C1749     1.0  0.74287  0.73297  0.89066  1.0000
  H   H1738     1.0  0.65267  0.67406  0.72676  1.0000
  Fe  Fe294     1.0  0.63662  0.97904  0.79353  1.0000
  H   H1739     1.0  0.70486  0.67506  0.58035  1.0000
  H   H1740     1.0  0.73254  0.78052  0.86171  1.0000
  H   H1741     1.0  0.73655  0.67176  0.53563  1.0000
  C   C1750     1.0  0.51454  0.67547  0.51547  1.0000
  N   N148      1.0  0.50856  0.87809  0.96240  1.0000
  C   C1751     1.0  0.49943  0.68058  0.50790  1.0000
  H   H1742     1.0  0.69578  0.68842  0.67881  1.0000
  H   H1743     1.0  0.74580  0.71983  0.89888  1.0000
  H   H1744     1.0  0.73761  0.81051  0.74375  1.0000
  S   S585      1.0  0.60441  0.67027  0.52740  1.0000
  H   H1745     1.0  0.69518  0.67513  0.61268  1.0000
  H   H1746     1.0  0.63472  0.72176  0.59571  1.0000
  H   H1747     1.0  0.65450  0.70859  0.57220  1.0000
  N   N149      1.0  0.72970  0.88802  0.81769  1.0000
  S   S586      1.0  0.67368  0.98555  0.96865  1.0000
  C   C1752     1.0  0.73236  0.75679  0.57790  1.0000
  S   S587      1.0  0.53184  0.66663  0.57682  1.0000
  C   C1753     1.0  0.66568  0.67155  0.67680  1.0000
  Fe  Fe295     1.0  0.66448  0.99157  0.90746  1.0000
  H   H1748     1.0  0.62103  0.98696  0.91218  1.0000
  C   C1754     1.0  0.50496  0.86887  0.95058  1.0000
  C   C1755     1.0  0.51780  0.98967  0.84900  1.0000
  H   H1749     1.0  0.59418  0.99450  0.87055  1.0000
  H   H1750     1.0  0.69649  0.98891  0.82775  1.0000
  Fe  Fe296     1.0  0.57741  0.66939  0.54515  1.0000
  H   H1751     1.0  0.54584  0.70800  0.50314  1.0000
  H   H1752     1.0  0.50611  0.85446  0.95694  1.0000
  H   H1753     1.0  0.73122  0.88484  0.84473  1.0000
  H   H1754     1.0  0.71823  0.66323  0.51985  1.0000
  H   H1755     1.0  0.68064  0.99064  0.77990  1.0000
  H   H1756     1.0  0.74474  0.84681  0.79274  1.0000
  C   C1756     1.0  0.50080  0.88662  0.99062  1.0000
  H   H1757     1.0  0.73720  0.74054  0.55880  1.0000
  H   H1758     1.0  0.59249  0.66625  0.49669  1.0000
  C   C1757     1.0  0.71490  0.97438  0.99078  1.0000
  C   C1758     1.0  0.61459  0.99571  0.90171  1.0000
  C   C1759     1.0  0.68888  0.99578  0.81754  1.0000
  S   S588      1.0  0.96309  0.18184  0.41371  1.0000
  H   H1759     1.0  0.75866  0.28889  0.40061  1.0000
  H   H1760     1.0  0.90299  0.21276  0.14572  1.0000
  C   C1760     1.0  0.90159  0.14942  0.46033  1.0000
  H   H1761     1.0  0.95720  0.00816  0.45101  1.0000
  S   S589      1.0  0.78023  0.21174  0.05494  1.0000
  H   H1762     1.0  0.80043  0.26881  0.35963  1.0000
  S   S590      1.0  0.90769  0.31823  0.13645  1.0000
  H   H1763     1.0  0.89622  0.13035  0.44917  1.0000
  C   C1761     1.0  0.78705  0.24932  0.37896  1.0000
  S   S591      1.0  0.76811  0.16844  0.04931  1.0000
  Fe  Fe297     1.0  0.92357  0.25865  0.17601  1.0000
  S   S592      1.0  0.93571  0.28266  0.16827  1.0000
  S   S593      1.0  0.90714  0.25040  0.20346  1.0000
  Fe  Fe298     1.0  0.93314  0.25311  0.13827  1.0000
  S   S594      1.0  0.94575  0.27685  0.12685  1.0000
  S   S595      1.0  0.93296  0.23357  0.12282  1.0000
  Fe  Fe299     1.0  0.95800  0.26708  0.15087  1.0000
  Fe  Fe300     1.0  0.92270  0.29046  0.14497  1.0000
  S   S596      1.0  0.80349  0.30312  0.10345  1.0000
  S   S597      1.0  0.94722  0.24210  0.16101  1.0000
  S   S598      1.0  0.90865  0.26780  0.15391  1.0000
  Fe  Fe301     1.0  0.82559  0.29127  0.11847  1.0000
  S   S599      1.0  0.84781  0.29366  0.09441  1.0000
  C   C1762     1.0  0.82698  0.24377  0.38961  1.0000
  Fe  Fe302     1.0  0.80551  0.27502  0.10076  1.0000
  S   S600      1.0  0.82607  0.27691  0.07536  1.0000
  S   S601      1.0  0.78277  0.26114  0.10490  1.0000
  Fe  Fe303     1.0  0.84565  0.26667  0.09315  1.0000
  S   S602      1.0  0.86746  0.24298  0.08857  1.0000
  H   H1764     1.0  0.75673  0.12794  0.00292  1.0000
  S   S603      1.0  0.82525  0.26320  0.11847  1.0000
  H   H1765     1.0  0.97065  0.22926  0.23841  1.0000
  C   C1763     1.0  0.95765  0.23818  0.24014  1.0000
  Fe  Fe304     1.0  0.93953  0.17814  0.32591  1.0000
  S   S604      1.0  0.93825  0.20382  0.30531  1.0000
  S   S605      1.0  0.96232  0.16545  0.34025  1.0000
  Fe  Fe305     1.0  0.90664  0.17064  0.31922  1.0000
  S   S606      1.0  0.90273  0.19535  0.29820  1.0000
  S   S607      1.0  0.88682  0.15290  0.32846  1.0000
  Fe  Fe306     1.0  0.93225  0.18868  0.28845  1.0000
  S   S608      1.0  0.94576  0.19130  0.25944  1.0000
  Fe  Fe307     1.0  0.90881  0.20838  0.31673  1.0000
  S   S609      1.0  0.89005  0.23459  0.31898  1.0000
  S   S610      1.0  0.93585  0.16249  0.30800  1.0000
  S   S611      1.0  0.91047  0.18412  0.33883  1.0000
  H   H1766     1.0  0.75679  0.29702  0.09371  1.0000
  C   C1764     1.0  0.96841  0.31612  0.12463  1.0000
  H   H1767     1.0  0.81333  0.22720  0.11104  1.0000
  H   H1768     1.0  0.82068  0.18469  0.27767  1.0000
  S   S612      1.0  0.97262  0.13658  0.44295  1.0000
  H   H1769     1.0  0.88469  0.05323  0.40746  1.0000
  S   S613      1.0  0.78099  0.14505  0.38596  1.0000
  C   C1765     1.0  0.78005  0.28079  0.37938  1.0000
  Fe  Fe308     1.0  0.97835  0.13884  0.46795  1.0000
  H   H1770     1.0  0.75992  0.21639  0.09052  1.0000
  C   C1766     1.0  0.92361  0.25938  0.24474  1.0000
  H   H1771     1.0  0.81429  0.25077  0.39623  1.0000
  Fe  Fe309     1.0  0.83124  0.12684  0.27880  1.0000
  S   S614      1.0  0.82537  0.11128  0.30672  1.0000
  S   S615      1.0  0.84781  0.14782  0.27125  1.0000
  Fe  Fe310     1.0  0.81358  0.10478  0.26505  1.0000
  S   S616      1.0  0.80760  0.08684  0.29201  1.0000
  S   S617      1.0  0.80490  0.10523  0.23994  1.0000
  Fe  Fe311     1.0  0.79894  0.11239  0.30172  1.0000
  S   S618      1.0  0.77397  0.11648  0.32255  1.0000
  Fe  Fe312     1.0  0.83496  0.08751  0.29441  1.0000
  S   S619      1.0  0.85480  0.06569  0.30787  1.0000
  S   S620      1.0  0.80352  0.13042  0.27483  1.0000
  S   S621      1.0  0.84201  0.10292  0.26643  1.0000
  Fe  Fe313     1.0  0.94597  0.04850  0.37086  1.0000
  S   S622      1.0  0.92622  0.07464  0.37053  1.0000
  S   S623      1.0  0.94344  0.02351  0.39163  1.0000
  Fe  Fe314     1.0  0.97403  0.06387  0.34152  1.0000
  S   S624      1.0  0.95684  0.09135  0.33865  1.0000
  Fe  Fe315     1.0  0.95000  0.08561  0.36845  1.0000
  S   S625      1.0  0.94815  0.10656  0.38330  1.0000
  Fe  Fe316     1.0  0.93460  0.07801  0.34087  1.0000
  S   S626      1.0  0.91566  0.09329  0.32279  1.0000
  S   S627      1.0  0.96902  0.05929  0.37110  1.0000
  S   S628      1.0  0.95243  0.05079  0.34126  1.0000
  S   S629      1.0  0.94911  0.04216  0.46123  1.0000
  Fe  Fe317     1.0  0.82550  0.17691  0.38854  1.0000
  H   H1772     1.0  0.80498  0.18838  0.08085  1.0000
  Fe  Fe318     1.0  0.81097  0.19703  0.35546  1.0000
  S   S630      1.0  0.81576  0.21547  0.32885  1.0000
  S   S631      1.0  0.81681  0.20587  0.37708  1.0000
  S   S632      1.0  0.82266  0.16804  0.36517  1.0000
  C   C1767     1.0  0.93052  0.15115  0.43184  1.0000
  S   S633      1.0  0.78500  0.30195  0.37058  1.0000
  C   C1768     1.0  0.79022  0.26652  0.37156  1.0000
  Fe  Fe319     1.0  0.92176  0.05921  0.46570  1.0000
  C   C1769     1.0  0.97962  0.08806  0.49071  1.0000
  C   C1770     1.0  0.90493  0.13930  0.44748  1.0000
  C   C1771     1.0  0.83927  0.21742  0.07266  1.0000
  C   C1772     1.0  0.85012  0.13356  0.40280  1.0000
  C   C1773     1.0  0.85528  0.14553  0.40942  1.0000
  H   H1773     1.0  0.85317  0.10592  0.40235  1.0000
  H   H1774     1.0  0.84131  0.13853  0.39354  1.0000
  C   C1774     1.0  0.94590  0.02821  0.41093  1.0000
  C   C1775     1.0  0.94257  0.04596  0.41230  1.0000
  C   C1776     1.0  0.94434  0.05011  0.42753  1.0000
  C   C1777     1.0  0.94985  0.03654  0.44136  1.0000
  C   C1778     1.0  0.95345  0.01870  0.44004  1.0000
  C   C1779     1.0  0.95131  0.01452  0.42483  1.0000
  H   H1775     1.0  0.93815  0.05662  0.40184  1.0000
  H   H1776     1.0  0.94122  0.06391  0.42861  1.0000
  H   H1777     1.0  0.91110  0.16772  0.46918  1.0000
  H   H1778     1.0  0.75504  0.12881  0.11130  1.0000
  H   H1779     1.0  0.81338  0.16460  0.30601  1.0000
  C   C1780     1.0  0.83026  0.18816  0.28285  1.0000
  C   C1781     1.0  0.92304  0.12904  0.42048  1.0000
  H   H1780     1.0  0.99021  0.30400  0.14739  1.0000
  C   C1782     1.0  0.78986  0.14261  0.35075  1.0000
  C   C1783     1.0  0.78859  0.13581  0.33670  1.0000
  C   C1784     1.0  0.77533  0.12632  0.33916  1.0000
  H   H1781     1.0  0.85305  0.25942  0.14428  1.0000
  H   H1782     1.0  0.80026  0.14961  0.34905  1.0000
  H   H1783     1.0  0.79779  0.13790  0.32402  1.0000
  C   C1785     1.0  0.87090  0.07344  0.31347  1.0000
  C   C1786     1.0  0.88322  0.06151  0.32312  1.0000
  C   C1787     1.0  0.89670  0.06747  0.32679  1.0000
  C   C1788     1.0  0.89785  0.08539  0.32080  1.0000
  C   C1789     1.0  0.88522  0.09733  0.31163  1.0000
  C   C1790     1.0  0.87190  0.09139  0.30786  1.0000
  H   H1784     1.0  0.88254  0.04758  0.32747  1.0000
  H   H1785     1.0  0.90646  0.05812  0.33379  1.0000
  H   H1786     1.0  0.88619  0.11115  0.30678  1.0000
  H   H1787     1.0  0.86286  0.10067  0.30002  1.0000
  C   C1791     1.0  0.85942  0.22623  0.37252  1.0000
  C   C1792     1.0  0.82653  0.22532  0.10169  1.0000
  H   H1788     1.0  0.82904  0.23884  0.09518  1.0000
  H   H1789     1.0  0.98414  0.12973  0.40851  1.0000
  C   C1793     1.0  0.91724  0.24525  0.27655  1.0000
  C   C1794     1.0  0.97657  0.08754  0.39885  1.0000
  C   C1795     1.0  0.96559  0.10415  0.39383  1.0000
  C   C1796     1.0  0.96840  0.11932  0.39736  1.0000
  H   H1790     1.0  0.96494  0.30491  0.13577  1.0000
  H   H1791     1.0  0.96033  0.13229  0.39306  1.0000
  C   C1797     1.0  0.97723  0.16563  0.38497  1.0000
  C   C1798     1.0  0.87704  0.15059  0.31221  1.0000
  C   C1799     1.0  0.88269  0.15787  0.29416  1.0000
  C   C1800     1.0  0.87373  0.15683  0.28164  1.0000
  C   C1801     1.0  0.85942  0.14814  0.28707  1.0000
  C   C1802     1.0  0.85402  0.14069  0.30510  1.0000
  C   C1803     1.0  0.86275  0.14194  0.31764  1.0000
  H   H1792     1.0  0.89372  0.16456  0.28988  1.0000
  H   H1793     1.0  0.87783  0.16292  0.26777  1.0000
  H   H1794     1.0  0.84268  0.13460  0.30960  1.0000
  H   H1795     1.0  0.85824  0.13646  0.33160  1.0000
  C   C1804     1.0  0.96238  0.17056  0.36047  1.0000
  C   C1805     1.0  0.97698  0.16238  0.36860  1.0000
  S   S634      1.0  0.87148  0.08033  0.47646  1.0000
  C   C1806     1.0  0.96298  0.17730  0.39326  1.0000
  C   C1807     1.0  0.94840  0.18560  0.38510  1.0000
  C   C1808     1.0  0.94804  0.18218  0.36880  1.0000
  H   H1796     1.0  0.92595  0.32383  0.07980  1.0000
  H   H1797     1.0  0.97496  0.01956  0.36336  1.0000
  H   H1798     1.0  0.93006  0.27015  0.21643  1.0000
  H   H1799     1.0  0.93677  0.18866  0.36262  1.0000
  C   C1809     1.0  0.86886  0.23014  0.32250  1.0000
  C   C1810     1.0  0.86526  0.21399  0.33334  1.0000
  C   C1811     1.0  0.84868  0.20988  0.33579  1.0000
  C   C1812     1.0  0.83588  0.22155  0.32674  1.0000
  C   C1813     1.0  0.83945  0.23769  0.31576  1.0000
  C   C1814     1.0  0.85585  0.24214  0.31389  1.0000
  H   H1800     1.0  0.87520  0.20464  0.34001  1.0000
  H   H1801     1.0  0.84608  0.19734  0.34425  1.0000
  H   H1802     1.0  0.82955  0.24674  0.30875  1.0000
  H   H1803     1.0  0.85864  0.25459  0.30537  1.0000
  H   H1804     1.0  0.87987  0.10553  0.25676  1.0000
  H   H1805     1.0  0.88669  0.13430  0.25532  1.0000
  S   S635      1.0  0.78282  0.19554  0.36905  1.0000
  C   C1815     1.0  0.91740  0.23258  0.21835  1.0000
  C   C1816     1.0  0.90815  0.22824  0.23599  1.0000
  C   C1817     1.0  0.91655  0.21515  0.24858  1.0000
  C   C1818     1.0  0.93420  0.20626  0.24357  1.0000
  C   C1819     1.0  0.94320  0.21010  0.22575  1.0000
  C   C1820     1.0  0.93485  0.22330  0.21316  1.0000
  H   H1806     1.0  0.89462  0.23534  0.24004  1.0000
  H   H1807     1.0  0.90942  0.21215  0.26217  1.0000
  H   H1808     1.0  0.95685  0.20321  0.22178  1.0000
  H   H1809     1.0  0.94209  0.22653  0.19959  1.0000
  C   C1821     1.0  0.75789  0.13613  0.16930  1.0000
  C   C1822     1.0  0.76557  0.30361  0.08242  1.0000
  S   S636      1.0  0.78516  0.12277  0.08162  1.0000
  N   N150      1.0  0.83374  0.22638  0.39668  1.0000
  H   H1810     1.0  0.91010  0.26728  0.24622  1.0000
  H   H1811     1.0  0.78747  0.25686  0.32429  1.0000
  S   S637      1.0  0.76648  0.17117  0.09025  1.0000
  Fe  Fe320     1.0  0.76790  0.15001  0.07614  1.0000
  H   H1812     1.0  0.80917  0.22082  0.41338  1.0000
  H   H1813     1.0  0.87069  0.14822  0.42657  1.0000
  C   C1823     1.0  0.88582  0.24137  0.09750  1.0000
  C   C1824     1.0  0.88662  0.25454  0.10570  1.0000
  C   C1825     1.0  0.90130  0.25258  0.11320  1.0000
  C   C1826     1.0  0.91503  0.23736  0.11258  1.0000
  C   C1827     1.0  0.91420  0.22432  0.10430  1.0000
  C   C1828     1.0  0.89966  0.22632  0.09677  1.0000
  H   H1814     1.0  0.87592  0.26612  0.10641  1.0000
  H   H1815     1.0  0.90192  0.26267  0.11959  1.0000
  H   H1816     1.0  0.92483  0.21256  0.10378  1.0000
  H   H1817     1.0  0.89914  0.21613  0.09042  1.0000
  C   C1829     1.0  0.91458  0.09023  0.27701  1.0000
  C   C1830     1.0  0.87525  0.23817  0.15094  1.0000
  C   C1831     1.0  0.78467  0.07908  0.25187  1.0000
  C   C1832     1.0  0.78929  0.09366  0.23867  1.0000
  C   C1833     1.0  0.78139  0.09931  0.22379  1.0000
  C   C1834     1.0  0.84254  0.19786  0.27110  1.0000
  H   H1818     1.0  0.75089  0.13615  0.18298  1.0000
  H   H1819     1.0  0.79082  0.07445  0.26329  1.0000
  H   H1820     1.0  0.78493  0.11053  0.21349  1.0000
  H   H1821     1.0  0.92432  0.24378  0.28727  1.0000
  C   C1835     1.0  0.78038  0.22567  0.06887  1.0000
  C   C1836     1.0  0.76931  0.22511  0.08584  1.0000
  C   C1837     1.0  0.77018  0.23604  0.09669  1.0000
  C   C1838     1.0  0.78235  0.24737  0.09089  1.0000
  C   C1839     1.0  0.79357  0.24778  0.07401  1.0000
  C   C1840     1.0  0.79242  0.23715  0.06300  1.0000
  Fe  Fe321     1.0  0.88903  0.07789  0.44970  1.0000
  C   C1841     1.0  0.94064  0.11903  0.48070  1.0000
  H   H1822     1.0  0.80295  0.25645  0.06929  1.0000
  H   H1823     1.0  0.80106  0.23764  0.04992  1.0000
  C   C1842     1.0  0.92767  0.16127  0.44459  1.0000
  C   C1843     1.0  0.81489  0.20516  0.09148  1.0000
  H   H1824     1.0  0.93294  0.11666  0.42423  1.0000
  H   H1825     1.0  0.79457  0.23859  0.37245  1.0000
  C   C1844     1.0  0.90863  0.12235  0.26866  1.0000
  H   H1826     1.0  0.92861  0.13604  0.40689  1.0000
  N   N151      1.0  0.91919  0.14035  0.43339  1.0000
  H   H1827     1.0  0.75167  0.15072  0.02070  1.0000
  H   H1828     1.0  0.83710  0.21803  0.10925  1.0000
  S   S638      1.0  0.75037  0.06890  0.14728  1.0000
  H   H1829     1.0  0.84920  0.21040  0.04691  1.0000
  H   H1830     1.0  0.77029  0.28644  0.33060  1.0000
  H   H1831     1.0  0.85540  0.20394  0.39419  1.0000
  H   H1832     1.0  0.80490  0.08700  0.33796  1.0000
  H   H1833     1.0  0.87669  0.23262  0.13950  1.0000
  H   H1834     1.0  0.91086  0.12526  0.41977  1.0000
  H   H1835     1.0  0.85658  0.03298  0.46671  1.0000
  N   N152      1.0  0.90154  0.12663  0.36252  1.0000
  C   C1845     1.0  0.91771  0.12622  0.35090  1.0000
  C   C1846     1.0  0.89680  0.13635  0.37541  1.0000
  C   C1847     1.0  0.92960  0.13568  0.35214  1.0000
  C   C1848     1.0  0.90830  0.14601  0.37700  1.0000
  C   C1849     1.0  0.92490  0.14546  0.36540  1.0000
  C   C1850     1.0  0.88923  0.11637  0.36156  1.0000
  H   H1836     1.0  0.92131  0.11879  0.34045  1.0000
  H   H1837     1.0  0.88398  0.13679  0.38441  1.0000
  H   H1838     1.0  0.94249  0.13525  0.34309  1.0000
  H   H1839     1.0  0.85982  0.31220  0.11748  1.0000
  H   H1840     1.0  0.93413  0.15255  0.36671  1.0000
  H   H1841     1.0  0.88993  0.10397  0.37206  1.0000
  H   H1842     1.0  0.87543  0.12451  0.36329  1.0000
  H   H1843     1.0  0.89240  0.11292  0.34830  1.0000
  C   C1851     1.0  0.76480  0.13025  0.36958  1.0000
  C   C1852     1.0  0.88456  0.23755  0.17698  1.0000
  S   S639      1.0  0.87739  0.08568  0.42519  1.0000
  H   H1844     1.0  0.90321  0.06798  0.25901  1.0000
  S   S640      1.0  0.75432  0.32301  0.33861  1.0000
  Fe  Fe322     1.0  0.76115  0.32290  0.36409  1.0000
  C   C1853     1.0  0.89614  0.07305  0.27127  1.0000
  C   C1854     1.0  0.83609  0.25270  0.37357  1.0000
  H   H1845     1.0  0.82592  0.22087  0.42487  1.0000
  Fe  Fe323     1.0  0.76380  0.19025  0.06430  1.0000
  C   C1855     1.0  0.87303  0.12059  0.42672  1.0000
  C   C1856     1.0  0.76418  0.07607  0.23533  1.0000
  H   H1846     1.0  0.89047  0.14823  0.47168  1.0000
  H   H1847     1.0  0.84340  0.18220  0.32099  1.0000
  Fe  Fe324     1.0  0.88575  0.05233  0.48608  1.0000
  C   C1857     1.0  0.77201  0.12184  0.16563  1.0000
  H   H1848     1.0  0.86471  0.20965  0.26873  1.0000
  C   C1858     1.0  0.78207  0.08992  0.10220  1.0000
  H   H1849     1.0  0.92925  0.10652  0.28261  1.0000
  C   C1859     1.0  0.87421  0.03848  0.44094  1.0000
  C   C1860     1.0  0.89635  0.00642  0.45268  1.0000
  H   H1850     1.0  0.82685  0.19185  0.05214  1.0000
  Fe  Fe325     1.0  0.82595  0.30375  0.07931  1.0000
  C   C1861     1.0  0.99254  0.10128  0.41165  1.0000
  H   H1851     1.0  0.94200  0.15186  0.42083  1.0000
  Fe  Fe326     1.0  0.78925  0.20290  0.39133  1.0000
  H   H1852     1.0  0.79341  0.08487  0.09253  1.0000
  C   C1862     1.0  0.81494  0.19618  0.07864  1.0000
  N   N153      1.0  0.92934  0.24746  0.25902  1.0000
  C   C1863     1.0  0.90125  0.01706  0.43583  1.0000
  C   C1864     1.0  0.76874  0.09074  0.22225  1.0000
  H   H1853     1.0  0.98866  0.15942  0.39097  1.0000
  C   C1865     1.0  0.86839  0.10865  0.41966  1.0000
  S   S641      1.0  0.91141  0.08775  0.45337  1.0000
  C   C1866     1.0  0.98939  0.31801  0.14121  1.0000
  H   H1854     1.0  0.87922  0.29460  0.11551  1.0000
  C   C1867     1.0  0.93487  0.26114  0.22784  1.0000
  C   C1868     1.0  0.76648  0.27429  0.33894  1.0000
  Fe  Fe327     1.0  0.89462  0.08833  0.48087  1.0000
  C   C1869     1.0  0.99085  0.00723  0.39071  1.0000
  H   H1855     1.0  0.96065  0.25126  0.21240  1.0000
  H   H1856     1.0  0.75637  0.15959  0.12782  1.0000
  C   C1870     1.0  0.87443  0.30873  0.11677  1.0000
  N   N154      1.0  0.81519  0.09284  0.35722  1.0000
  C   C1871     1.0  0.83259  0.09136  0.34824  1.0000
  C   C1872     1.0  0.80885  0.10202  0.37065  1.0000
  C   C1873     1.0  0.84387  0.09998  0.35197  1.0000
  C   C1874     1.0  0.81976  0.11076  0.37478  1.0000
  C   C1875     1.0  0.83731  0.10987  0.36525  1.0000
  C   C1876     1.0  0.80356  0.08409  0.35264  1.0000
  H   H1857     1.0  0.83773  0.08365  0.33793  1.0000
  H   H1858     1.0  0.79515  0.10299  0.37803  1.0000
  H   H1859     1.0  0.85755  0.09906  0.34453  1.0000
  H   H1860     1.0  0.81446  0.11842  0.38515  1.0000
  H   H1861     1.0  0.84577  0.11682  0.36820  1.0000
  H   H1862     1.0  0.80711  0.06945  0.35758  1.0000
  H   H1863     1.0  0.78925  0.08904  0.35832  1.0000
  C   C1877     1.0  0.89087  0.10563  0.26225  1.0000
  H   H1864     1.0  0.75319  0.23131  0.36955  1.0000
  C   C1878     1.0  0.76652  0.27788  0.39449  1.0000
  C   C1879     1.0  0.90123  0.21547  0.15912  1.0000
  H   H1865     1.0  0.91408  0.21821  0.15949  1.0000
  H   H1866     1.0  0.93683  0.16963  0.44346  1.0000
  S   S642      1.0  0.90136  0.04928  0.45894  1.0000
  C   C1880     1.0  0.91317  0.16030  0.45896  1.0000
  H   H1867     1.0  0.95617  0.07671  0.45006  1.0000
  H   H1868     1.0  0.77842  0.22939  0.34347  1.0000
  C   C1881     1.0  0.84303  0.18660  0.30698  1.0000
  C   C1882     1.0  0.85690  0.11514  0.40771  1.0000
  N   N155      1.0  0.88666  0.23078  0.16235  1.0000
  C   C1883     1.0  0.86182  0.25327  0.15359  1.0000
  H   H1869     1.0  0.89869  0.20337  0.16936  1.0000
  C   C1884     1.0  0.89473  0.12198  0.26134  1.0000
  C   C1885     1.0  0.77519  0.10826  0.10015  1.0000
  H   H1870     1.0  0.89358  0.23164  0.18606  1.0000
  H   H1871     1.0  0.93739  0.19478  0.39138  1.0000
  H   H1872     1.0  0.88152  0.07462  0.27286  1.0000
  H   H1873     1.0  0.84891  0.22565  0.07030  1.0000
  H   H1874     1.0  0.89980  0.06292  0.28308  1.0000
  C   C1886     1.0  0.81736  0.17296  0.31277  1.0000
  C   C1887     1.0  0.85992  0.26059  0.16819  1.0000
  C   C1888     1.0  0.91872  0.10638  0.27644  1.0000
  N   N156      1.0  0.90055  0.09004  0.27029  1.0000
  H   H1875     1.0  0.78155  0.13471  0.12053  1.0000
  C   C1889     1.0  0.77236  0.07018  0.25006  1.0000
  H   H1876     1.0  0.92507  0.10748  0.47045  1.0000
  C   C1890     1.0  0.77514  0.13512  0.13432  1.0000
  H   H1877     1.0  0.80544  0.18264  0.31795  1.0000
  C   C1891     1.0  0.87126  0.25262  0.18007  1.0000
  C   C1892     1.0  0.83958  0.20876  0.05945  1.0000
  C   C1893     1.0  0.98757  0.12011  0.35026  1.0000
  H   H1878     1.0  0.76133  0.23572  0.10966  1.0000
  H   H1879     1.0  0.97430  0.07572  0.39647  1.0000
  N   N157      1.0  0.96769  0.08028  0.46994  1.0000
  H   H1880     1.0  0.77603  0.11105  0.17637  1.0000
  N   N158      1.0  0.82679  0.21582  0.08826  1.0000
  C   C1894     1.0  0.99012  0.08612  0.40767  1.0000
  C   C1895     1.0  0.82721  0.19821  0.06244  1.0000
  H   H1881     1.0  0.80486  0.20406  0.10375  1.0000
  H   H1882     1.0  0.91142  0.13498  0.26855  1.0000
  C   C1896     1.0  0.85525  0.19658  0.29569  1.0000
  C   C1897     1.0  0.85507  0.20216  0.27763  1.0000
  H   H1883     1.0  0.82276  0.16385  0.32422  1.0000
  S   S643      1.0  0.84911  0.16864  0.40152  1.0000
  H   H1884     1.0  0.92215  0.07793  0.28360  1.0000
  H   H1885     1.0  0.90904  0.01884  0.48438  1.0000
  H   H1886     1.0  0.90417  0.05288  0.41488  1.0000
  C   C1898     1.0  0.86674  0.13901  0.42139  1.0000
  H   H1887     1.0  0.84973  0.27249  0.17019  1.0000
  H   H1888     1.0  0.77959  0.06382  0.11808  1.0000
  H   H1889     1.0  0.76773  0.09938  0.03333  1.0000
  H   H1890     1.0  0.76253  0.09555  0.21096  1.0000
  H   H1891     1.0  0.87015  0.25829  0.19135  1.0000
  H   H1892     1.0  0.95224  0.11677  0.47031  1.0000
  C   C1899     1.0  0.77425  0.07801  0.11667  1.0000
  Fe  Fe328     1.0  0.79475  0.16749  0.38101  1.0000
  H   H1893     1.0  0.79857  0.32595  0.04351  1.0000
  H   H1894     1.0  0.79120  0.11006  0.14493  1.0000
  C   C1900     1.0  0.96819  0.08023  0.45149  1.0000
  N   N159      1.0  0.83070  0.18257  0.30053  1.0000
  H   H1895     1.0  0.86482  0.19984  0.30102  1.0000
  C   C1901     1.0  0.82371  0.21721  0.41330  1.0000
  H   H1896     1.0  0.98008  0.07045  0.44642  1.0000
  H   H1897     1.0  0.90946  0.30406  0.10449  1.0000
  H   H1898     1.0  0.75555  0.07952  0.02289  1.0000
  C   C1902     1.0  0.78058  0.12131  0.14801  1.0000
  H   H1899     1.0  0.95571  0.32452  0.12118  1.0000
  C   C1903     1.0  0.77810  0.13954  0.36728  1.0000
  C   C1904     1.0  0.77104  0.24226  0.34623  1.0000
  S   S644      1.0  0.79832  0.17458  0.40500  1.0000
  C   C1905     1.0  0.77404  0.24621  0.39449  1.0000
  C   C1906     1.0  0.76047  0.11467  0.11276  1.0000
  C   C1907     1.0  0.86891  0.02819  0.45788  1.0000
  S   S645      1.0  0.83010  0.29740  0.14276  1.0000
  H   H1900     1.0  0.85950  0.25041  0.35232  1.0000
  H   H1901     1.0  0.84242  0.20184  0.25703  1.0000
  C   C1908     1.0  0.94605  0.23678  0.25685  1.0000
  H   H1902     1.0  0.90445  0.03638  0.40305  1.0000
  C   C1909     1.0  0.84992  0.21769  0.38853  1.0000
  C   C1910     1.0  0.78905  0.31990  0.05438  1.0000
  C   C1911     1.0  0.76366  0.26056  0.40216  1.0000
  C   C1912     1.0  0.76328  0.12386  0.35550  1.0000
  C   C1913     1.0  0.98693  0.11851  0.33351  1.0000
  S   S646      1.0  0.98601  0.26903  0.14935  1.0000
  C   C1914     1.0  0.91150  0.32720  0.08332  1.0000
  H   H1903     1.0  0.86579  0.05135  0.43677  1.0000
  H   H1904     1.0  0.91177  0.23316  0.27912  1.0000
  H   H1905     1.0  0.88164  0.11556  0.43614  1.0000
  H   H1906     1.0  0.98484  0.02129  0.39187  1.0000
  N   N160      1.0  0.89017  0.03280  0.43013  1.0000
  H   H1907     1.0  0.97673  0.31041  0.11303  1.0000
  C   C1915     1.0  0.95201  0.25048  0.22556  1.0000
  C   C1916     1.0  0.76096  0.14917  0.13848  1.0000
  C   C1917     1.0  0.75980  0.08437  0.12947  1.0000
  S   S647      1.0  0.98479  0.16587  0.45664  1.0000
  H   H1908     1.0  0.95030  0.22667  0.26794  1.0000
  C   C1918     1.0  0.89615  0.04434  0.41301  1.0000
  Fe  Fe329     1.0  0.98155  0.16225  0.43065  1.0000
  C   C1919     1.0  0.98189  0.11790  0.40614  1.0000
  H   H1909     1.0  0.99112  0.09089  0.46273  1.0000
  C   C1920     1.0  0.75295  0.10274  0.12759  1.0000
  C   C1921     1.0  0.85236  0.24378  0.36491  1.0000
  C   C1922     1.0  0.78604  0.30351  0.05402  1.0000
  H   H1910     1.0  0.82777  0.20246  0.41484  1.0000
  H   H1911     1.0  0.83900  0.31440  0.16573  1.0000
  C   C1923     1.0  0.75582  0.09483  0.04138  1.0000
  H   H1912     1.0  0.90431  0.15389  0.38710  1.0000
  H   H1913     1.0  0.96879  0.09371  0.44304  1.0000
  H   H1914     1.0  0.90587  0.25686  0.27765  1.0000
  C   C1924     1.0  0.90793  0.32640  0.16757  1.0000
  S   S648      1.0  0.77032  0.22462  0.40433  1.0000
  C   C1925     1.0  0.77607  0.25775  0.33537  1.0000
  H   H1915     1.0  0.87209  0.21923  0.36589  1.0000
  H   H1916     1.0  0.92218  0.32140  0.16463  1.0000
  C   C1926     1.0  0.99311  0.27063  0.11327  1.0000
  H   H1917     1.0  0.83047  0.26640  0.36785  1.0000
  H   H1918     1.0  0.76909  0.05874  0.26019  1.0000
  H   H1919     1.0  0.98253  0.26360  0.11595  1.0000
  C   C1927     1.0  0.82527  0.31995  0.14434  1.0000
  C   C1928     1.0  0.77415  0.29540  0.06811  1.0000
  H   H1920     1.0  0.97781  0.13016  0.35661  1.0000
  H   H1921     1.0  0.75534  0.13367  0.24356  1.0000
  N   N161      1.0  0.78042  0.32797  0.06840  1.0000
  C   C1929     1.0  0.92528  0.11355  0.48091  1.0000
  H   H1922     1.0  0.77178  0.28261  0.06814  1.0000
  S   S649      1.0  0.82835  0.32713  0.05635  1.0000
  C   C1930     1.0  0.95431  0.07467  0.48341  1.0000
  H   H1923     1.0  0.87668  0.30996  0.12949  1.0000
  C   C1931     1.0  0.88005  0.01204  0.46371  1.0000
  H   H1924     1.0  0.98853  0.01963  0.33157  1.0000
  H   H1925     1.0  0.76243  0.32613  0.09371  1.0000
  C   C1932     1.0  0.90210  0.31604  0.09718  1.0000
  H   H1926     1.0  0.75349  0.25826  0.41413  1.0000
  H   H1927     1.0  0.75299  0.11659  0.35743  1.0000
  H   H1928     1.0  0.75574  0.12781  0.38237  1.0000
  H   H1929     1.0  0.98827  0.15363  0.36215  1.0000
  C   C1933     1.0  0.75670  0.24347  0.36085  1.0000
  N   N162      1.0  0.88388  0.32031  0.10174  1.0000
  H   H1930     1.0  0.97687  0.12761  0.32664  1.0000
  H   H1931     1.0  0.79310  0.29702  0.04303  1.0000
  C   C1934     1.0  0.76886  0.32001  0.08235  1.0000
  N   N163      1.0  0.75272  0.14968  0.15578  1.0000
  C   C1935     1.0  0.98896  0.01352  0.35953  1.0000
  C   C1936     1.0  0.89765  0.32643  0.15583  1.0000
  H   H1932     1.0  0.75433  0.10730  0.26823  1.0000
  C   C1937     1.0  0.98049  0.08651  0.47344  1.0000
  H   H1933     1.0  0.94420  0.06970  0.48064  1.0000
  C   C1938     1.0  0.75206  0.27505  0.35354  1.0000
  C   C1939     1.0  0.74903  0.08355  0.03543  1.0000
  C   C1940     1.0  0.83135  0.32461  0.15706  1.0000
  H   H1934     1.0  0.74886  0.12658  0.05661  1.0000
  H   H1935     1.0  0.76919  0.11009  0.05871  1.0000
  C   C1941     1.0  0.99829  0.27378  0.12735  1.0000
  H   H1936     1.0  0.91412  0.01283  0.42747  1.0000
  N   N164      1.0  0.97835  0.32640  0.12959  1.0000
  H   H1937     1.0  0.95375  0.00074  0.42391  1.0000
  H   H1938     1.0  0.87625  0.00415  0.47699  1.0000
  H   H1939     1.0  0.98009  0.99956  0.39563  1.0000
  C   C1942     1.0  0.75438  0.11258  0.06265  1.0000
  H   H1940     1.0  0.99750  0.27422  0.08476  1.0000
  C   C1943     1.0  0.99649  0.01336  0.34158  1.0000
  H   H1941     1.0  0.75096  0.11085  0.07738  1.0000
  H   H1942     1.0  0.99827  0.07320  0.41198  1.0000
  S   S650      1.0  0.90698  0.06062  0.49345  1.0000
  H   H1943     1.0  0.98926  0.09386  0.49331  1.0000
  C   C1944     1.0  0.91043  0.12455  0.50775  1.0000
  C   C1945     1.0  0.90518  0.00744  0.49401  1.0000
  H   H1944     1.0  0.94197  0.07230  0.51134  1.0000
  H   H1945     1.0  0.91185  0.02591  0.52410  1.0000
  H   H1946     1.0  0.96446  0.08477  0.51773  1.0000
  C   C1946     1.0  0.92605  0.12935  0.50792  1.0000
  H   H1947     1.0  0.92634  0.13532  0.51848  1.0000
  S   S651      1.0  0.87337  0.02986  0.50424  1.0000
  H   H1948     1.0  0.89867  0.12690  0.51814  1.0000
  C   C1947     1.0  0.92272  0.01432  0.52338  1.0000
  C   C1948     1.0  0.96569  0.08294  0.50444  1.0000
  C   C1949     1.0  0.92173  0.99856  0.53628  1.0000
  C   C1950     1.0  0.95304  0.07601  0.50084  1.0000
  C   C1951     1.0  0.88852  0.00916  0.50565  1.0000
  C   C1952     1.0  0.93744  0.01476  0.50918  1.0000
  C   C1953     1.0  0.95097  0.99954  0.50806  1.0000
  H   H1949     1.0  0.96228  0.99968  0.49686  1.0000
  H   H1950     1.0  0.93816  0.02672  0.49882  1.0000
  S   S652      1.0  0.96066  0.13256  0.49486  1.0000
  H   H1951     1.0  0.91011  0.99825  0.54711  1.0000
  C   C1954     1.0  0.94114  0.12673  0.49430  1.0000
  S   S653      1.0  0.89033  0.11104  0.49406  1.0000
  C   C1955     1.0  0.91010  0.11647  0.49436  1.0000
  H   H1952     1.0  0.77690  0.46069  0.18262  1.0000
  C   C1956     1.0  0.81128  0.35107  0.13509  1.0000
  S   S654      1.0  0.97566  0.42274  0.13206  1.0000
  C   C1957     1.0  0.75876  0.63979  0.49223  1.0000
  S   S655      1.0  0.75904  0.36923  0.30704  1.0000
  C   C1958     1.0  0.88262  0.50939  0.00596  1.0000
  H   H1953     1.0  0.90045  0.37324  0.12018  1.0000
  C   C1959     1.0  0.82744  0.34246  0.15873  1.0000
  C   C1960     1.0  0.87430  0.47598  0.01125  1.0000
  N   N165      1.0  0.75300  0.45471  0.20014  1.0000
  C   C1961     1.0  0.75453  0.40115  0.21355  1.0000
  Fe  Fe330     1.0  0.90440  0.39771  0.04358  1.0000
  S   S656      1.0  0.89149  0.39416  0.07245  1.0000
  S   S657      1.0  0.92821  0.37627  0.03706  1.0000
  Fe  Fe331     1.0  0.87924  0.43277  0.03395  1.0000
  S   S658      1.0  0.86454  0.43229  0.06226  1.0000
  H   H1954     1.0  0.79214  0.35083  0.05620  1.0000
  Fe  Fe332     1.0  0.89176  0.42288  0.06848  1.0000
  S   S659      1.0  0.89874  0.43069  0.09029  1.0000
  Fe  Fe333     1.0  0.86580  0.40359  0.06331  1.0000
  S   S660      1.0  0.84349  0.39027  0.07994  1.0000
  S   S661      1.0  0.90644  0.42605  0.04002  1.0000
  S   S662      1.0  0.87862  0.40454  0.03452  1.0000
  S   S663      1.0  0.98307  0.37593  0.08098  1.0000
  Fe  Fe334     1.0  0.85051  0.37387  0.19270  1.0000
  S   S664      1.0  0.85419  0.38310  0.16312  1.0000
  Fe  Fe335     1.0  0.81773  0.40233  0.19966  1.0000
  S   S665      1.0  0.81890  0.41433  0.17060  1.0000
  S   S666      1.0  0.79732  0.41361  0.22167  1.0000
  Fe  Fe336     1.0  0.82477  0.38580  0.16791  1.0000
  S   S667      1.0  0.81241  0.37827  0.14943  1.0000
  Fe  Fe337     1.0  0.84840  0.41040  0.16852  1.0000
  S   S668      1.0  0.86578  0.42902  0.14998  1.0000
  S   S669      1.0  0.82147  0.37409  0.19721  1.0000
  S   S670      1.0  0.84666  0.40096  0.19786  1.0000
  Fe  Fe338     1.0  0.95995  0.44334  0.14796  1.0000
  S   S671      1.0  0.96134  0.46682  0.12480  1.0000
  S   S672      1.0  0.93573  0.43646  0.16897  1.0000
  H   H1955     1.0  0.88784  0.38018  0.17629  1.0000
  S   S673      1.0  0.97438  0.44589  0.08242  1.0000
  C   C1962     1.0  0.93567  0.38491  0.17823  1.0000
  H   H1956     1.0  0.89929  0.36883  0.15835  1.0000
  H   H1957     1.0  0.84274  0.42289  0.10565  1.0000
  H   H1958     1.0  0.84206  0.42116  0.12895  1.0000
  H   H1959     1.0  0.87114  0.33267  0.15087  1.0000
  C   C1963     1.0  0.74875  0.46555  0.38955  1.0000
  C   C1964     1.0  0.85889  0.36980  0.12028  1.0000
  H   H1960     1.0  0.85124  0.36013  0.12109  1.0000
  H   H1961     1.0  0.86019  0.33901  0.09638  1.0000
  C   C1965     1.0  0.78711  0.36479  0.26217  1.0000
  N   N166      1.0  0.79528  0.37832  0.26071  1.0000
  C   C1966     1.0  0.98780  0.35374  0.12535  1.0000
  S   S674      1.0  0.98399  0.44624  0.15586  1.0000
  S   S675      1.0  0.75999  0.35242  0.35831  1.0000
  H   H1962     1.0  0.79161  0.34263  0.07947  1.0000
  H   H1963     1.0  0.94586  0.40577  0.13480  1.0000
  C   C1967     1.0  0.87698  0.36454  0.12062  1.0000
  H   H1964     1.0  0.89579  0.46559  0.02520  1.0000
  C   C1968     1.0  0.88640  0.37723  0.11989  1.0000
  C   C1969     1.0  0.77574  0.41069  0.22381  1.0000
  C   C1970     1.0  0.76183  0.41771  0.23666  1.0000
  H   H1965     1.0  0.82019  0.33989  0.23640  1.0000
  C   C1971     1.0  0.89220  0.49412  0.01560  1.0000
  S   S676      1.0  0.88860  0.53006  0.00176  1.0000
  C   C1972     1.0  0.77212  0.40224  0.21235  1.0000
  H   H1966     1.0  0.76455  0.42429  0.24554  1.0000
  H   H1967     1.0  0.85699  0.34504  0.17781  1.0000
  C   C1973     1.0  0.87461  0.33559  0.09277  1.0000
  H   H1968     1.0  0.78280  0.39682  0.20234  1.0000
  C   C1974     1.0  0.88465  0.43164  0.15590  1.0000
  C   C1975     1.0  0.89639  0.44137  0.14314  1.0000
  C   C1976     1.0  0.91216  0.44285  0.14688  1.0000
  C   C1977     1.0  0.91599  0.43510  0.16371  1.0000
  C   C1978     1.0  0.90393  0.42587  0.17671  1.0000
  C   C1979     1.0  0.88844  0.42394  0.17277  1.0000
  H   H1969     1.0  0.89338  0.44746  0.13016  1.0000
  H   H1970     1.0  0.92132  0.45006  0.13682  1.0000
  H   H1971     1.0  0.90668  0.42001  0.18984  1.0000
  H   H1972     1.0  0.87941  0.41660  0.18284  1.0000
  H   H1973     1.0  0.99459  0.52969  0.15114  1.0000
  H   H1974     1.0  0.96111  0.35170  0.04272  1.0000
  C   C1980     1.0  0.81739  0.35574  0.14776  1.0000
  C   C1981     1.0  0.92275  0.39432  0.14728  1.0000
  H   H1975     1.0  0.77371  0.36480  0.27014  1.0000
  H   H1976     1.0  0.83658  0.39184  0.11813  1.0000
  C   C1982     1.0  0.85058  0.38781  0.11875  1.0000
  C   C1983     1.0  0.92092  0.43226  0.08762  1.0000
  C   C1984     1.0  0.92677  0.43188  0.10272  1.0000
  C   C1985     1.0  0.94332  0.43568  0.10115  1.0000
  C   C1986     1.0  0.95439  0.43948  0.08442  1.0000
  C   C1987     1.0  0.94899  0.43901  0.06924  1.0000
  C   C1988     1.0  0.93220  0.43545  0.07083  1.0000
  H   H1977     1.0  0.91830  0.42897  0.11565  1.0000
  H   H1978     1.0  0.94724  0.43619  0.11289  1.0000
  H   H1979     1.0  0.95754  0.44192  0.05623  1.0000
  H   H1980     1.0  0.92784  0.43571  0.05908  1.0000
  C   C1989     1.0  0.83930  0.37308  0.07282  1.0000
  C   C1990     1.0  0.83061  0.36050  0.08546  1.0000
  C   C1991     1.0  0.82771  0.34610  0.08052  1.0000
  C   C1992     1.0  0.83282  0.34466  0.06270  1.0000
  C   C1993     1.0  0.84123  0.35743  0.04993  1.0000
  C   C1994     1.0  0.84474  0.37148  0.05503  1.0000
  H   H1981     1.0  0.82643  0.36173  0.09919  1.0000
  H   H1982     1.0  0.98604  0.41382  0.06279  1.0000
  H   H1983     1.0  0.84522  0.35634  0.03613  1.0000
  H   H1984     1.0  0.85136  0.38122  0.04517  1.0000
  C   C1995     1.0  0.94301  0.37520  0.05023  1.0000
  C   C1996     1.0  0.95843  0.36172  0.05047  1.0000
  C   C1997     1.0  0.93948  0.38796  0.06051  1.0000
  C   C1998     1.0  0.97048  0.36131  0.06062  1.0000
  H   H1985     1.0  0.92767  0.39839  0.06052  1.0000
  H   H1986     1.0  0.77132  0.35475  0.07189  1.0000
  C   C1999     1.0  0.88145  0.34041  0.18635  1.0000
  H   H1987     1.0  0.75245  0.43557  0.37902  1.0000
  H   H1988     1.0  0.99442  0.65025  0.01069  1.0000
  H   H1989     1.0  0.83189  0.34591  0.16873  1.0000
  H   H1990     1.0  0.98232  0.35086  0.06082  1.0000
  C   C2000     1.0  0.87120  0.33996  0.17487  1.0000
  C   C2001     1.0  0.82160  0.36421  0.24230  1.0000
  H   H1991     1.0  0.83507  0.36418  0.23446  1.0000
  C   C2002     1.0  0.87925  0.33304  0.15959  1.0000
  H   H1992     1.0  0.81046  0.32981  0.12353  1.0000
  H   H1993     1.0  0.76274  0.46117  0.38262  1.0000
  C   C2003     1.0  0.78397  0.34490  0.06900  1.0000
  H   H1994     1.0  0.78927  0.34022  0.25444  1.0000
  C   C2004     1.0  0.86451  0.49129  0.00201  1.0000
  H   H1995     1.0  0.86049  0.42795  0.11200  1.0000
  C   C2005     1.0  0.78601  0.39267  0.27026  1.0000
  H   H1996     1.0  0.85379  0.49027  0.99670  1.0000
  H   H1997     1.0  0.77716  0.43721  0.19027  1.0000
  S   S677      1.0  0.87026  0.45516  0.01212  1.0000
  N   N167      1.0  0.91338  0.38575  0.16275  1.0000
  H   H1998     1.0  0.88369  0.35066  0.12152  1.0000
  H   H1999     1.0  0.75173  0.39489  0.20443  1.0000
  H   H2000     1.0  0.94038  0.38161  0.19050  1.0000
  C   C2006     1.0  0.89981  0.33337  0.18290  1.0000
  C   C2007     1.0  0.94517  0.39388  0.16259  1.0000
  C   C2008     1.0  0.81534  0.33326  0.13325  1.0000
  H   H2001     1.0  0.75361  0.47468  0.21302  1.0000
  Fe  Fe339     1.0  0.98715  0.46764  0.13113  1.0000
  H   H2002     1.0  0.79045  0.40529  0.26320  1.0000
  H   H2003     1.0  0.99257  0.40402  0.02026  1.0000
  H   H2004     1.0  0.75283  0.39976  0.40612  1.0000
  H   H2005     1.0  0.79183  0.62908  0.00191  1.0000
  H   H2006     1.0  0.99371  0.38413  0.03778  1.0000
  S   S678      1.0  0.99720  0.49262  0.12852  1.0000
  H   H2007     1.0  0.77906  0.44937  0.20514  1.0000
  H   H2008     1.0  0.95718  0.39775  0.16274  1.0000
  C   C2009     1.0  0.99152  0.39889  0.03480  1.0000
  H   H2009     1.0  0.94889  0.39776  0.07813  1.0000
  C   C2010     1.0  0.88358  0.34705  0.07883  1.0000
  H   H2010     1.0  0.80334  0.36128  0.12668  1.0000
  C   C2011     1.0  0.81323  0.35057  0.24339  1.0000
  H   H2011     1.0  0.77084  0.59960  0.48804  1.0000
  H   H2012     1.0  0.90305  0.49520  0.02070  1.0000
  C   C2012     1.0  0.87757  0.39513  0.11860  1.0000
  H   H2013     1.0  0.91232  0.37389  0.19028  1.0000
  N   N168      1.0  0.85998  0.40024  0.11762  1.0000
  N   N169      1.0  0.90118  0.47572  0.07508  1.0000
  C   C2013     1.0  0.91732  0.47931  0.06552  1.0000
  C   C2014     1.0  0.89666  0.47449  0.09311  1.0000
  C   C2015     1.0  0.92958  0.48145  0.07404  1.0000
  C   C2016     1.0  0.90851  0.47681  0.10202  1.0000
  C   C2017     1.0  0.92512  0.48016  0.09241  1.0000
  C   C2018     1.0  0.88881  0.47317  0.06576  1.0000
  H   H2014     1.0  0.92097  0.48006  0.05127  1.0000
  H   H2015     1.0  0.88404  0.47124  0.10080  1.0000
  H   H2016     1.0  0.94268  0.48355  0.06658  1.0000
  H   H2017     1.0  0.90499  0.47562  0.11633  1.0000
  H   H2018     1.0  0.93468  0.48138  0.09922  1.0000
  H   H2019     1.0  0.87708  0.46850  0.07518  1.0000
  H   H2020     1.0  0.88400  0.48584  0.05673  1.0000
  H   H2021     1.0  0.89558  0.46273  0.05791  1.0000
  H   H2022     1.0  0.88911  0.39244  0.15390  1.0000
  C   C2019     1.0  0.85086  0.41901  0.11597  1.0000
  C   C2020     1.0  0.93878  0.39849  0.14696  1.0000
  H   H2023     1.0  0.97863  0.64071  0.02919  1.0000
  H   H2024     1.0  0.91761  0.39838  0.13520  1.0000
  C   C2021     1.0  0.97751  0.34402  0.12162  1.0000
  C   C2022     1.0  0.89663  0.38153  0.16277  1.0000
  C   C2023     1.0  0.79589  0.35080  0.25342  1.0000
  H   H2025     1.0  0.88485  0.40494  0.11828  1.0000
  C   C2024     1.0  0.91976  0.38075  0.17804  1.0000
  H   H2026     1.0  0.82127  0.33629  0.09045  1.0000
  C   C2025     1.0  0.95151  0.38759  0.07056  1.0000
  C   C2026     1.0  0.96719  0.37452  0.07031  1.0000
  C   C2027     1.0  0.86870  0.50791  0.99932  1.0000
  H   H2027     1.0  0.77139  0.39539  0.27124  1.0000
  H   H2028     1.0  0.97767  0.40413  0.04159  1.0000
  C   C2028     1.0  0.81238  0.37805  0.25112  1.0000
  C   C2029     1.0  0.88804  0.47741  0.01826  1.0000
  Fe  Fe340     1.0  0.97830  0.44625  0.10928  1.0000
  S   S679      1.0  0.87147  0.35191  0.20355  1.0000
  H   H2029     1.0  0.96926  0.35054  0.11191  1.0000
  H   H2030     1.0  0.78846  0.38874  0.28398  1.0000
  Fe  Fe341     1.0  0.75094  0.35251  0.33406  1.0000
  H   H2031     1.0  0.98747  0.36758  0.11862  1.0000
  H   H2032     1.0  0.90778  0.33378  0.19174  1.0000
  H   H2033     1.0  0.90926  0.35156  0.06328  1.0000
  C   C2030     1.0  0.90215  0.34279  0.07409  1.0000
  C   C2031     1.0  0.77245  0.45034  0.19420  1.0000
  H   H2034     1.0  0.81884  0.38881  0.24992  1.0000
  H   H2035     1.0  0.87622  0.35916  0.07173  1.0000
  C   C2032     1.0  0.99292  0.64123  0.02410  1.0000
  H   H2036     1.0  0.74863  0.61311  0.48844  1.0000
  H   H2037     1.0  0.74859  0.64313  0.48448  1.0000
  H   H2038     1.0  0.74858  0.43567  0.18831  1.0000
  S   S680      1.0  0.90936  0.64585  0.80453  1.0000
  N   N170      1.0  0.84985  0.64423  0.96190  1.0000
  C   C2033     1.0  0.78402  0.60599  0.93064  1.0000
  Fe  Fe342     1.0  0.95533  0.56786  0.86874  1.0000
  S   S681      1.0  0.96804  0.53870  0.87409  1.0000
  S   S682      1.0  0.95416  0.59023  0.88126  1.0000
  Fe  Fe343     1.0  0.93936  0.56587  0.83900  1.0000
  S   S683      1.0  0.95091  0.53674  0.84097  1.0000
  S   S684      1.0  0.92017  0.58496  0.82312  1.0000
  Fe  Fe344     1.0  0.94244  0.53486  0.87045  1.0000
  S   S685      1.0  0.92719  0.51379  0.88633  1.0000
  Fe  Fe345     1.0  0.97567  0.54292  0.84421  1.0000
  S   S686      1.0  0.92896  0.56362  0.86814  1.0000
  S   S687      1.0  0.96488  0.57239  0.83922  1.0000
  Fe  Fe346     1.0  0.82322  0.62821  0.79415  1.0000
  S   S688      1.0  0.82404  0.60593  0.81827  1.0000
  C   C2034     1.0  0.98890  0.65248  0.88682  1.0000
  Fe  Fe347     1.0  0.80746  0.60874  0.77546  1.0000
  S   S689      1.0  0.80824  0.58460  0.79767  1.0000
  S   S690      1.0  0.79490  0.61287  0.75179  1.0000
  Fe  Fe348     1.0  0.79740  0.60428  0.81542  1.0000
  S   S691      1.0  0.77325  0.59965  0.83669  1.0000
  Fe  Fe349     1.0  0.83502  0.58842  0.79829  1.0000
  S   S692      1.0  0.85911  0.56571  0.80049  1.0000
  S   S693      1.0  0.79521  0.62834  0.79326  1.0000
  S   S694      1.0  0.83550  0.61088  0.77414  1.0000
  Fe  Fe350     1.0  0.84340  0.58385  0.97651  1.0000
  C   C2035     1.0  0.80020  0.58756  0.71150  1.0000
  S   S695      1.0  0.85379  0.54856  0.93015  1.0000
  H   H2039     1.0  0.86455  0.52959  0.83488  1.0000
  H   H2040     1.0  0.98845  0.61622  0.90521  1.0000
  C   C2036     1.0  0.87392  0.53179  0.84132  1.0000
  C   C2037     1.0  0.92830  0.60920  0.77926  1.0000
  H   H2041     1.0  0.88969  0.62061  0.80642  1.0000
  H   H2042     1.0  0.75662  0.63117  0.93792  1.0000
  H   H2043     1.0  0.85632  0.55496  0.84973  1.0000
  H   H2044     1.0  0.88316  0.52057  0.95046  1.0000
  Fe  Fe351     1.0  0.85997  0.56064  0.94949  1.0000
  C   C2038     1.0  0.85779  0.64440  0.94439  1.0000
  N   N171      1.0  0.77850  0.61122  0.94659  1.0000
  C   C2039     1.0  0.80977  0.62098  0.97860  1.0000
  H   H2045     1.0  0.76917  0.63804  0.94958  1.0000
  C   C2040     1.0  0.93016  0.62794  0.95119  1.0000
  C   C2041     1.0  0.86792  0.50089  0.95386  1.0000
  H   H2046     1.0  0.93914  0.61951  0.85119  1.0000
  H   H2047     1.0  0.96618  0.61722  0.88845  1.0000
  C   C2042     1.0  0.78699  0.60243  0.96027  1.0000
  H   H2048     1.0  0.98780  0.61388  0.85383  1.0000
  C   C2043     1.0  0.81556  0.62590  0.96016  1.0000
  H   H2049     1.0  0.75401  0.62340  0.96155  1.0000
  H   H2050     1.0  0.82573  0.61693  0.95303  1.0000
  C   C2044     1.0  0.77628  0.64944  0.50676  1.0000
  C   C2045     1.0  0.77866  0.60136  0.75208  1.0000
  C   C2046     1.0  0.76716  0.60887  0.74016  1.0000
  C   C2047     1.0  0.94315  0.65127  0.90308  1.0000
  C   C2048     1.0  0.89078  0.52059  0.84088  1.0000
  Fe  Fe352     1.0  0.88039  0.58520  0.95453  1.0000
  C   C2049     1.0  0.77748  0.58465  0.76320  1.0000
  H   H2051     1.0  0.76803  0.62175  0.73143  1.0000
  H   H2052     1.0  0.93592  0.64270  0.88309  1.0000
  H   H2053     1.0  0.78637  0.57862  0.77233  1.0000
  H   H2054     1.0  0.92093  0.61404  0.88057  1.0000
  C   C2050     1.0  0.86718  0.48292  0.95990  1.0000
  S   S696      1.0  0.85413  0.59006  0.94710  1.0000
  C   C2051     1.0  0.76838  0.61063  0.85428  1.0000
  C   C2052     1.0  0.77993  0.62038  0.85579  1.0000
  C   C2053     1.0  0.77556  0.62898  0.87011  1.0000
  H   H2055     1.0  0.89452  0.50941  0.83438  1.0000
  H   H2056     1.0  0.92101  0.62878  0.92784  1.0000
  H   H2057     1.0  0.79226  0.62112  0.84606  1.0000
  C   C2054     1.0  0.79639  0.63282  0.98763  1.0000
  C   C2055     1.0  0.90303  0.57719  0.81975  1.0000
  C   C2056     1.0  0.90669  0.56266  0.81171  1.0000
  C   C2057     1.0  0.89308  0.55896  0.80603  1.0000
  C   C2058     1.0  0.87588  0.56979  0.80839  1.0000
  C   C2059     1.0  0.87219  0.58370  0.81719  1.0000
  C   C2060     1.0  0.88566  0.58728  0.82297  1.0000
  H   H2058     1.0  0.92014  0.55482  0.80912  1.0000
  H   H2059     1.0  0.89598  0.54803  0.79937  1.0000
  H   H2060     1.0  0.85899  0.59183  0.81948  1.0000
  H   H2061     1.0  0.88263  0.59818  0.82968  1.0000
  C   C2061     1.0  0.90682  0.52343  0.89855  1.0000
  C   C2062     1.0  0.90532  0.53870  0.90471  1.0000
  C   C2063     1.0  0.88882  0.54687  0.91378  1.0000
  C   C2064     1.0  0.87384  0.53965  0.91692  1.0000
  C   C2065     1.0  0.87521  0.52462  0.91039  1.0000
  C   C2066     1.0  0.89176  0.51638  0.90136  1.0000
  H   H2062     1.0  0.91698  0.54400  0.90283  1.0000
  H   H2063     1.0  0.88770  0.55883  0.91826  1.0000
  H   H2064     1.0  0.86361  0.51906  0.91270  1.0000
  H   H2065     1.0  0.89288  0.50465  0.89645  1.0000
  Fe  Fe353     1.0  0.98972  0.65188  0.93124  1.0000
  Fe  Fe354     1.0  0.87405  0.55213  0.98303  1.0000
  C   C2067     1.0  0.78328  0.63165  0.51365  1.0000
  H   H2066     1.0  0.89999  0.59418  0.97575  1.0000
  H   H2067     1.0  0.86123  0.51950  0.99194  1.0000
  H   H2068     1.0  0.86478  0.65685  0.84505  1.0000
  H   H2069     1.0  0.92056  0.45944  0.96600  1.0000
  H   H2070     1.0  0.81275  0.64628  0.93659  1.0000
  C   C2068     1.0  0.88102  0.47094  0.96729  1.0000
  H   H2071     1.0  0.92352  0.56949  0.93193  1.0000
  C   C2069     1.0  0.88691  0.64864  0.80334  1.0000
  S   S697      1.0  0.83556  0.64953  0.87398  1.0000
  C   C2070     1.0  0.96010  0.58410  0.95785  1.0000
  S   S698      1.0  0.99401  0.60911  0.96769  1.0000
  C   C2071     1.0  0.86371  0.63480  0.80170  1.0000
  C   C2072     1.0  0.88078  0.63344  0.80436  1.0000
  H   H2072     1.0  0.86455  0.62049  0.88666  1.0000
  H   H2073     1.0  0.85936  0.62294  0.80215  1.0000
  H   H2074     1.0  0.93270  0.59444  0.78221  1.0000
  H   H2075     1.0  0.75336  0.57141  0.68494  1.0000
  H   H2076     1.0  0.94684  0.56432  0.92114  1.0000
  H   H2077     1.0  0.79115  0.60271  0.68028  1.0000
  H   H2078     1.0  0.79742  0.60214  0.71082  1.0000
  H   H2079     1.0  0.85715  0.51041  0.94836  1.0000
  C   C2073     1.0  0.80724  0.58270  0.94192  1.0000
  H   H2080     1.0  0.91448  0.47037  0.98466  1.0000
  H   H2081     1.0  0.86893  0.63383  0.94071  1.0000
  H   H2082     1.0  0.81853  0.57164  0.94007  1.0000
  C   C2074     1.0  0.85157  0.65812  0.93094  1.0000
  S   S699      1.0  0.98168  0.65284  0.96046  1.0000
  H   H2083     1.0  0.83816  0.65990  0.83485  1.0000
  H   H2084     1.0  0.90723  0.49896  0.96376  1.0000
  H   H2085     1.0  0.95711  0.57532  0.98622  1.0000
  H   H2086     1.0  0.98830  0.60061  0.82896  1.0000
  S   S700      1.0  0.97523  0.63048  0.93441  1.0000
  H   H2087     1.0  0.77845  0.65858  0.98527  1.0000
  C   C2075     1.0  0.86938  0.54623  0.84965  1.0000
  N   N172      1.0  0.91175  0.61509  0.77265  1.0000
  C   C2076     1.0  0.90155  0.60316  0.77435  1.0000
  C   C2077     1.0  0.90611  0.63279  0.76570  1.0000
  C   C2078     1.0  0.88526  0.60882  0.76895  1.0000
  H   H2088     1.0  0.85581  0.47833  0.95919  1.0000
  C   C2079     1.0  0.87945  0.62685  0.76175  1.0000
  S   S701      1.0  0.79361  0.64765  0.91170  1.0000
  H   H2089     1.0  0.90579  0.58920  0.78021  1.0000
  C   C2080     1.0  0.94038  0.56483  0.97612  1.0000
  H   H2090     1.0  0.87704  0.59933  0.77076  1.0000
  Fe  Fe355     1.0  0.77049  0.65783  0.89842  1.0000
  C   C2081     1.0  0.75456  0.59984  0.73938  1.0000
  H   H2091     1.0  0.91717  0.60301  0.99227  1.0000
  H   H2092     1.0  0.76247  0.60981  0.80309  1.0000
  H   H2093     1.0  0.80820  0.58123  0.96903  1.0000
  C   C2082     1.0  0.90935  0.61089  0.95066  1.0000
  H   H2094     1.0  0.87221  0.55980  0.88051  1.0000
  N   N173      1.0  0.88145  0.54964  0.85698  1.0000
  C   C2083     1.0  0.89796  0.53869  0.85665  1.0000
  C   C2084     1.0  0.90286  0.52398  0.84870  1.0000
  C   C2085     1.0  0.87653  0.56463  0.86593  1.0000
  H   H2095     1.0  0.90747  0.54130  0.86254  1.0000
  H   H2096     1.0  0.91599  0.51534  0.84864  1.0000
  H   H2097     1.0  0.86555  0.57510  0.86096  1.0000
  H   H2098     1.0  0.88806  0.57098  0.86338  1.0000
  H   H2099     1.0  0.75843  0.55553  0.71520  1.0000
  C   C2086     1.0  0.98180  0.57243  0.89838  1.0000
  H   H2100     1.0  0.76440  0.56243  0.77067  1.0000
  H   H2101     1.0  0.93920  0.61487  0.76938  1.0000
  C   C2087     1.0  0.90811  0.60380  0.96887  1.0000
  H   H2102     1.0  0.92963  0.62415  0.83204  1.0000
  H   H2103     1.0  0.92512  0.55701  0.96223  1.0000
  H   H2104     1.0  0.86658  0.63155  0.75802  1.0000
  H   H2105     1.0  0.85649  0.63453  0.98742  1.0000
  C   C2088     1.0  0.76287  0.57467  0.69041  1.0000
  C   C2089     1.0  0.89257  0.61699  0.88576  1.0000
  C   C2090     1.0  0.79847  0.59169  0.92806  1.0000
  H   H2106     1.0  0.93514  0.60155  0.84407  1.0000
  H   H2107     1.0  0.86910  0.62214  0.85429  1.0000
  S   S702      1.0  0.96920  0.65140  0.84535  1.0000
  C   C2091     1.0  0.91792  0.60876  0.97823  1.0000
  C   C2092     1.0  0.88045  0.62018  0.86019  1.0000
  C   C2093     1.0  0.87790  0.61929  0.87837  1.0000
  H   H2108     1.0  0.91378  0.64236  0.76519  1.0000
  C   C2094     1.0  0.89767  0.61896  0.84959  1.0000
  H   H2109     1.0  0.89962  0.61950  0.83549  1.0000
  C   C2095     1.0  0.92021  0.62313  0.94187  1.0000
  H   H2110     1.0  0.78277  0.60669  0.97286  1.0000
  C   C2096     1.0  0.76506  0.57546  0.76218  1.0000
  C   C2097     1.0  0.89609  0.49431  0.96258  1.0000
  S   S703      1.0  0.88749  0.55615  0.95417  1.0000
  C   C2098     1.0  0.76386  0.62670  0.94902  1.0000
  S   S704      1.0  0.83195  0.65359  0.79230  1.0000
  N   N174      1.0  0.94184  0.57416  0.94460  1.0000
  S   S705      1.0  0.81852  0.59996  0.99058  1.0000
  C   C2099     1.0  0.92986  0.61553  0.84552  1.0000
  H   H2111     1.0  0.89081  0.61603  0.89993  1.0000
  C   C2100     1.0  0.80784  0.64243  0.95075  1.0000
  H   H2112     1.0  0.99130  0.63391  0.87069  1.0000
  C   C2101     1.0  0.97384  0.60454  0.89413  1.0000
  N   N175      1.0  0.91192  0.61716  0.85685  1.0000
  H   H2113     1.0  0.93828  0.63760  0.94446  1.0000
  H   H2114     1.0  0.90465  0.45236  0.98597  1.0000
  C   C2102     1.0  0.90960  0.61590  0.87473  1.0000
  C   C2103     1.0  0.93646  0.57364  0.92861  1.0000
  H   H2115     1.0  0.79981  0.58088  0.72573  1.0000
  C   C2104     1.0  0.93448  0.65367  0.88933  1.0000
  C   C2105     1.0  0.76584  0.56565  0.70727  1.0000
  C   C2106     1.0  0.79436  0.65419  0.95975  1.0000
  S   S706      1.0  0.84684  0.55460  0.97837  1.0000
  C   C2107     1.0  0.77210  0.58799  0.68062  1.0000
  H   H2116     1.0  0.76981  0.59506  0.66749  1.0000
  C   C2108     1.0  0.85275  0.65154  0.79745  1.0000
  H   H2117     1.0  0.78469  0.63608  0.87150  1.0000
  H   H2118     1.0  0.78663  0.65864  0.81796  1.0000
  H   H2119     1.0  0.80286  0.58768  0.91535  1.0000
  H   H2120     1.0  0.95951  0.59144  0.93017  1.0000
  H   H2121     1.0  0.95126  0.63841  0.90774  1.0000
  H   H2122     1.0  0.88013  0.45707  0.97240  1.0000
  C   C2109     1.0  0.78416  0.59220  0.68792  1.0000
  S   S707      1.0  0.86935  0.58099  0.98392  1.0000
  C   C2110     1.0  0.97136  0.58878  0.89165  1.0000
  C   C2111     1.0  0.75118  0.64927  0.64011  1.0000
  S   S708      1.0  0.76514  0.65018  0.55355  1.0000
  C   C2112     1.0  0.77823  0.56996  0.71403  1.0000
  H   H2123     1.0  0.92618  0.61370  0.79184  1.0000
  C   C2113     1.0  0.76402  0.65358  0.49590  1.0000
  H   H2124     1.0  0.84707  0.61999  0.98043  1.0000
  Fe  Fe356     1.0  0.96940  0.62970  0.96342  1.0000
  S   S709      1.0  0.89776  0.60444  0.93846  1.0000
  N   N176      1.0  0.78709  0.58321  0.70443  1.0000
  C   C2114     1.0  0.75258  0.60948  0.86706  1.0000
  C   C2115     1.0  0.98625  0.60402  0.90382  1.0000
  C   C2116     1.0  0.92932  0.62049  0.96930  1.0000
  C   C2117     1.0  0.88251  0.50662  0.95508  1.0000
  C   C2118     1.0  0.98559  0.64729  0.87274  1.0000
  H   H2125     1.0  0.82866  0.65675  0.98031  1.0000
  C   C2119     1.0  0.93500  0.56461  0.96088  1.0000
  N   N177      1.0  0.89509  0.47678  0.96882  1.0000
  H   H2126     1.0  0.76241  0.63118  0.77427  1.0000
  H   H2127     1.0  0.93463  0.58711  0.91975  1.0000
  H   H2128     1.0  0.78039  0.56285  0.72718  1.0000
  C   C2120     1.0  0.88992  0.63893  0.76009  1.0000
  H   H2129     1.0  0.99718  0.64318  0.89547  1.0000
  C   C2121     1.0  0.95425  0.58377  0.94298  1.0000
  C   C2122     1.0  0.78881  0.64947  0.97824  1.0000
  C   C2123     1.0  0.75961  0.60794  0.49584  1.0000
  H   H2130     1.0  0.77980  0.65996  0.51050  1.0000
  C   C2124     1.0  0.75347  0.58304  0.75032  1.0000
  H   H2131     1.0  0.78286  0.60440  0.51551  1.0000
  H   H2132     1.0  0.81375  0.64970  0.82989  1.0000
  C   C2125     1.0  0.80144  0.58804  0.95816  1.0000
  C   C2126     1.0  0.75954  0.62806  0.88272  1.0000
  H   H2133     1.0  0.77737  0.61295  0.91973  1.0000
  C   C2127     1.0  0.77780  0.61819  0.50965  1.0000
  H   H2134     1.0  0.98002  0.56018  0.89639  1.0000
  H   H2135     1.0  0.81386  0.58333  0.70376  1.0000
  H   H2136     1.0  0.79222  0.62839  0.52273  1.0000
  N   N178      1.0  0.76558  0.62236  0.49919  1.0000
  H   H2137     1.0  0.75205  0.64462  0.61450  1.0000
  C   C2128     1.0  0.99586  0.58775  0.91163  1.0000
  C   C2129     1.0  0.99401  0.57192  0.90848  1.0000
  C   C2130     1.0  0.90947  0.46410  0.97667  1.0000
  H   H2138     1.0  0.93460  0.55762  0.98907  1.0000
  H   H2139     1.0  0.88518  0.65306  0.75520  1.0000
  H   H2140     1.0  0.96988  0.59185  0.95644  1.0000
  S   S710      1.0  0.75337  0.63898  0.90054  1.0000
  C   C2131     1.0  0.83547  0.65732  0.96649  1.0000
  C   C2132     1.0  0.85614  0.62950  0.97585  1.0000
  H   H2141     1.0  0.75422  0.59951  0.50869  1.0000
  H   H2142     1.0  0.75695  0.58031  0.82004  1.0000
  C   C2133     1.0  0.95301  0.57468  0.97454  1.0000
  H   H2143     1.0  0.74959  0.64982  0.66730  1.0000
  H   H2144     1.0  0.75769  0.61642  0.55499  1.0000
  C   C2134     1.0  0.75009  0.58748  0.80931  1.0000
  C   C2135     1.0  0.75318  0.60422  0.79966  1.0000
  S   S711      1.0  0.94298  0.62499  0.98077  1.0000
  H   H2145     1.0  0.86986  0.62217  0.97101  1.0000
  H   H2146     1.0  0.85787  0.65812  0.91708  1.0000
  C   C2136     1.0  0.74889  0.63981  0.62876  1.0000
  C   C2137     1.0  0.97466  0.65918  0.86158  1.0000
  H   H2147     1.0  0.77415  0.66200  0.83980  1.0000
  C   C2138     1.0  0.99832  0.60259  0.85065  1.0000
  S   S712      1.0  0.92086  0.66197  0.84045  1.0000
  C   C2139     1.0  0.74867  0.62668  0.54777  1.0000
  Fe  Fe357     1.0  0.80844  0.66266  0.88698  1.0000
  H   H2148     1.0  0.90529  0.99412  0.45735  1.0000
  H   H2149     1.0  0.93000  0.98972  0.48584  1.0000
  H   H2150     1.0  0.75804  0.66737  0.49098  1.0000
  Fe  Fe358     1.0  0.91041  0.69142  0.83685  1.0000
  H   H2151     1.0  0.94492  0.82865  0.54044  1.0000
  S   S713      1.0  0.88906  0.69971  0.85964  1.0000
  Fe  Fe359     1.0  0.93522  0.69893  0.80114  1.0000
  C   C2140     1.0  0.95198  0.90185  0.64942  1.0000
  S   S714      1.0  0.94512  0.72019  0.77839  1.0000
  N   N179      1.0  0.80814  0.86847  0.63899  1.0000
  H   H2152     1.0  0.77499  0.78639  0.53576  1.0000
  H   H2153     1.0  0.87268  0.84233  0.71829  1.0000
  S   S715      1.0  0.90692  0.69538  0.80895  1.0000
  S   S716      1.0  0.93742  0.69800  0.82895  1.0000
  C   C2141     1.0  0.83704  0.67164  0.93550  1.0000
  C   C2142     1.0  0.75715  0.88032  0.82781  1.0000
  C   C2143     1.0  0.78347  0.83241  0.81777  1.0000
  H   H2154     1.0  0.85023  0.67988  0.79354  1.0000
  C   C2144     1.0  0.75769  0.88359  0.79676  1.0000
  S   S717      1.0  0.77214  0.72168  0.86552  1.0000
  C   C2145     1.0  0.77883  0.77505  0.54660  1.0000
  C   C2146     1.0  0.98161  0.66973  0.88970  1.0000
  H   H2155     1.0  0.95490  0.83588  0.65296  1.0000
  H   H2156     1.0  0.97911  0.80954  0.61813  1.0000
  Fe  Fe360     1.0  0.78508  0.67374  0.92024  1.0000
  S   S718      1.0  0.78600  0.67072  0.87275  1.0000
  C   C2147     1.0  0.99368  0.72992  0.73618  1.0000
  H   H2157     1.0  0.84629  0.93369  0.58855  1.0000
  S   S719      1.0  0.80192  0.68817  0.89644  1.0000
  C   C2148     1.0  0.76677  0.87982  0.81048  1.0000
  H   H2158     1.0  0.76477  0.75064  0.54123  1.0000
  H   H2159     1.0  0.80965  0.85289  0.73457  1.0000
  H   H2160     1.0  0.91018  0.93226  0.61029  1.0000
  H   H2161     1.0  0.83175  0.68215  0.92522  1.0000
  S   S720      1.0  0.98930  0.80932  0.57727  1.0000
  H   H2162     1.0  0.80676  0.88601  0.61391  1.0000
  Fe  Fe361     1.0  0.84288  0.80066  0.62298  1.0000
  S   S721      1.0  0.86975  0.79607  0.60484  1.0000
  S   S722      1.0  0.83997  0.81006  0.64807  1.0000
  Fe  Fe362     1.0  0.82507  0.78794  0.60033  1.0000
  S   S723      1.0  0.85047  0.78327  0.58006  1.0000
  S   S724      1.0  0.79976  0.77963  0.60067  1.0000
  Fe  Fe363     1.0  0.86320  0.77093  0.60353  1.0000
  S   S725      1.0  0.88012  0.74339  0.60453  1.0000
  Fe  Fe364     1.0  0.85448  0.80908  0.58324  1.0000
  S   S726      1.0  0.86761  0.82793  0.56013  1.0000
  S   S727      1.0  0.83767  0.77414  0.62380  1.0000
  S   S728      1.0  0.82771  0.81521  0.60148  1.0000
  Fe  Fe365     1.0  0.92214  0.93230  0.53047  1.0000
  S   S729      1.0  0.90687  0.93334  0.55843  1.0000
  C   C2149     1.0  0.98143  0.89982  0.65345  1.0000
  Fe  Fe366     1.0  0.93158  0.89200  0.53829  1.0000
  S   S730      1.0  0.91813  0.88980  0.56698  1.0000
  S   S731      1.0  0.94118  0.86639  0.52893  1.0000
  Fe  Fe367     1.0  0.89620  0.91061  0.55651  1.0000
  S   S732      1.0  0.86888  0.90457  0.56841  1.0000
  Fe  Fe368     1.0  0.93032  0.91236  0.56600  1.0000
  S   S733      1.0  0.94126  0.91256  0.58916  1.0000
  S   S734      1.0  0.90908  0.91181  0.52770  1.0000
  S   S735      1.0  0.94622  0.91240  0.53826  1.0000
  Fe  Fe369     1.0  0.93903  0.74517  0.68174  1.0000
  S   S736      1.0  0.94955  0.76921  0.67930  1.0000
  S   S737      1.0  0.92125  0.73201  0.70597  1.0000
  Fe  Fe370     1.0  0.95517  0.74313  0.64305  1.0000
  S   S738      1.0  0.96751  0.76677  0.63709  1.0000
  S   S739      1.0  0.95590  0.72842  0.62255  1.0000
  C   C2150     1.0  0.99322  0.73376  0.71818  1.0000
  Fe  Fe371     1.0  0.94153  0.77897  0.65288  1.0000
  S   S740      1.0  0.92731  0.80635  0.64142  1.0000
  S   S741      1.0  0.96488  0.73001  0.66834  1.0000
  S   S742      1.0  0.92857  0.75624  0.65679  1.0000
  Fe  Fe372     1.0  0.88827  0.88212  0.68269  1.0000
  S   S743      1.0  0.89542  0.89263  0.65331  1.0000
  S   S744      1.0  0.90519  0.85728  0.69525  1.0000
  Fe  Fe373     1.0  0.85456  0.91004  0.68770  1.0000
  S   S745      1.0  0.85846  0.92279  0.65859  1.0000
  S   S746      1.0  0.83135  0.91831  0.70907  1.0000
  Fe  Fe374     1.0  0.86654  0.89463  0.65456  1.0000
  S   S747      1.0  0.85902  0.88526  0.63391  1.0000
  Fe  Fe375     1.0  0.88692  0.91944  0.66041  1.0000
  S   S748      1.0  0.90263  0.94041  0.64482  1.0000
  S   S749      1.0  0.86002  0.88228  0.68349  1.0000
  S   S750      1.0  0.88240  0.90866  0.68989  1.0000
  C   C2151     1.0  0.76375  0.78603  0.88087  1.0000
  C   C2152     1.0  0.77816  0.75009  0.89136  1.0000
  S   S751      1.0  0.77820  0.84178  0.76704  1.0000
  H   H2163     1.0  0.91749  0.67252  0.87273  1.0000
  H   H2164     1.0  0.93764  0.90419  0.65434  1.0000
  S   S752      1.0  0.96891  0.94826  0.66928  1.0000
  C   C2153     1.0  0.80664  0.69831  0.83405  1.0000
  H   H2165     1.0  0.95982  0.68612  0.85531  1.0000
  H   H2166     1.0  0.90710  0.90449  0.60391  1.0000
  H   H2167     1.0  0.78881  0.76431  0.54066  1.0000
  Fe  Fe376     1.0  0.77454  0.70510  0.57035  1.0000
  S   S753      1.0  0.79566  0.72207  0.56064  1.0000
  H   H2168     1.0  0.92914  0.71034  0.90162  1.0000
  C   C2154     1.0  0.92029  0.94321  0.65242  1.0000
  C   C2155     1.0  0.93258  0.95280  0.64046  1.0000
  C   C2156     1.0  0.94739  0.95451  0.64568  1.0000
  C   C2157     1.0  0.94976  0.94706  0.66304  1.0000
  C   C2158     1.0  0.93704  0.93813  0.67530  1.0000
  C   C2159     1.0  0.92247  0.93594  0.66993  1.0000
  H   H2169     1.0  0.93079  0.95877  0.62701  1.0000
  H   H2170     1.0  0.95689  0.96182  0.63633  1.0000
  H   H2171     1.0  0.93869  0.93257  0.68885  1.0000
  H   H2172     1.0  0.91288  0.92880  0.67935  1.0000
  C   C2160     1.0  0.92065  0.81996  0.65691  1.0000
  C   C2161     1.0  0.90667  0.83483  0.65510  1.0000
  C   C2162     1.0  0.90141  0.84590  0.66736  1.0000
  C   C2163     1.0  0.91042  0.84239  0.68115  1.0000
  C   C2164     1.0  0.92425  0.82741  0.68308  1.0000
  C   C2165     1.0  0.92935  0.81621  0.67095  1.0000
  H   H2173     1.0  0.89983  0.83779  0.64429  1.0000
  H   H2174     1.0  0.89038  0.85715  0.66604  1.0000
  H   H2175     1.0  0.93133  0.82472  0.69365  1.0000
  H   H2176     1.0  0.94058  0.80523  0.67201  1.0000
  C   C2166     1.0  0.95403  0.92865  0.58561  1.0000
  C   C2167     1.0  0.96515  0.93374  0.56912  1.0000
  C   C2168     1.0  0.97637  0.94541  0.56725  1.0000
  C   C2169     1.0  0.97673  0.95172  0.58193  1.0000
  C   C2170     1.0  0.96534  0.94686  0.59822  1.0000
  C   C2171     1.0  0.95392  0.93555  0.60001  1.0000
  H   H2177     1.0  0.96554  0.92831  0.55796  1.0000
  H   H2178     1.0  0.81725  0.68141  0.95702  1.0000
  H   H2179     1.0  0.96518  0.95207  0.60941  1.0000
  H   H2180     1.0  0.94495  0.93221  0.61264  1.0000
  C   C2172     1.0  0.95417  0.85073  0.54281  1.0000
  H   H2181     1.0  0.99623  0.88388  0.60632  1.0000
  C   C2173     1.0  0.96523  0.85610  0.55036  1.0000
  H   H2182     1.0  0.88384  0.95705  0.61370  1.0000
  H   H2183     1.0  0.96578  0.87002  0.54756  1.0000
  C   C2174     1.0  0.79955  0.76292  0.58997  1.0000
  C   C2175     1.0  0.81294  0.75849  0.57544  1.0000
  C   C2176     1.0  0.81169  0.74580  0.56671  1.0000
  C   C2177     1.0  0.79723  0.73720  0.57260  1.0000
  C   C2178     1.0  0.78409  0.74138  0.58736  1.0000
  C   C2179     1.0  0.78515  0.75430  0.59585  1.0000
  H   H2184     1.0  0.82402  0.76515  0.57066  1.0000
  H   H2185     1.0  0.82191  0.74275  0.55525  1.0000
  H   H2186     1.0  0.77289  0.73497  0.59206  1.0000
  H   H2187     1.0  0.77473  0.75762  0.60708  1.0000
  C   C2180     1.0  0.90135  0.73996  0.60888  1.0000
  C   C2181     1.0  0.91311  0.72353  0.60788  1.0000
  C   C2182     1.0  0.93000  0.72021  0.61171  1.0000
  C   C2183     1.0  0.93508  0.73320  0.61688  1.0000
  C   C2184     1.0  0.92340  0.74976  0.61764  1.0000
  C   C2185     1.0  0.90657  0.75318  0.61356  1.0000
  H   H2188     1.0  0.90917  0.71329  0.60420  1.0000
  H   H2189     1.0  0.93902  0.70744  0.61102  1.0000
  H   H2190     1.0  0.92750  0.76004  0.62104  1.0000
  H   H2191     1.0  0.89765  0.76594  0.61421  1.0000
  C   C2186     1.0  0.86751  0.84923  0.56276  1.0000
  C   C2187     1.0  0.85517  0.85703  0.57616  1.0000
  C   C2188     1.0  0.85535  0.87423  0.57756  1.0000
  C   C2189     1.0  0.86828  0.88336  0.56607  1.0000
  C   C2190     1.0  0.88077  0.87538  0.55292  1.0000
  C   C2191     1.0  0.88016  0.85856  0.55105  1.0000
  H   H2192     1.0  0.84529  0.84998  0.58517  1.0000
  H   H2193     1.0  0.84565  0.88042  0.58767  1.0000
  H   H2194     1.0  0.89074  0.88228  0.54390  1.0000
  H   H2195     1.0  0.88964  0.85273  0.54053  1.0000
  C   C2192     1.0  0.84768  0.82973  0.64442  1.0000
  C   C2193     1.0  0.84566  0.83759  0.65879  1.0000
  C   C2194     1.0  0.85000  0.85427  0.65586  1.0000
  C   C2195     1.0  0.85642  0.86310  0.63854  1.0000
  C   C2196     1.0  0.85911  0.85488  0.62430  1.0000
  C   C2197     1.0  0.85472  0.83827  0.62720  1.0000
  H   H2196     1.0  0.84015  0.83107  0.67213  1.0000
  H   H2197     1.0  0.84765  0.86059  0.66689  1.0000
  H   H2198     1.0  0.86423  0.86159  0.61092  1.0000
  H   H2199     1.0  0.85634  0.83235  0.61601  1.0000
  C   C2198     1.0  0.84781  0.92670  0.60230  1.0000
  C   C2199     1.0  0.84862  0.67387  0.88243  1.0000
  C   C2200     1.0  0.89747  0.93110  0.60869  1.0000
  H   H2200     1.0  0.83364  0.69105  0.83802  1.0000
  C   C2201     1.0  0.85866  0.66685  0.79679  1.0000
  C   C2202     1.0  0.78022  0.90860  0.70189  1.0000
  C   C2203     1.0  0.79497  0.90930  0.68763  1.0000
  C   C2204     1.0  0.81081  0.91206  0.68984  1.0000
  C   C2205     1.0  0.81168  0.91483  0.70611  1.0000
  C   C2206     1.0  0.79684  0.91448  0.72028  1.0000
  C   C2207     1.0  0.78120  0.91113  0.71824  1.0000
  H   H2201     1.0  0.79416  0.90772  0.67488  1.0000
  H   H2202     1.0  0.82222  0.91245  0.67883  1.0000
  H   H2203     1.0  0.79741  0.91688  0.73279  1.0000
  H   H2204     1.0  0.76970  0.91116  0.72910  1.0000
  H   H2205     1.0  0.87824  0.90208  0.60032  1.0000
  H   H2206     1.0  0.95751  0.90439  0.67352  1.0000
  C   C2208     1.0  0.89578  0.91552  0.60515  1.0000
  C   C2209     1.0  0.88267  0.94509  0.61046  1.0000
  C   C2210     1.0  0.97760  0.70670  0.74138  1.0000
  H   H2207     1.0  0.80296  0.87348  0.74174  1.0000
  C   C2211     1.0  0.82557  0.66915  0.83372  1.0000
  H   H2208     1.0  0.89251  0.96618  0.52940  1.0000
  C   C2212     1.0  0.97619  0.84333  0.56088  1.0000
  S   S754      1.0  0.75260  0.71001  0.59381  1.0000
  H   H2209     1.0  0.82604  0.88477  0.62247  1.0000
  H   H2210     1.0  0.85490  0.95426  0.60988  1.0000
  H   H2211     1.0  0.84717  0.91256  0.60394  1.0000
  Fe  Fe377     1.0  0.75513  0.85783  0.75474  1.0000
  C   C2213     1.0  0.96388  0.82007  0.55746  1.0000
  C   C2214     1.0  0.92682  0.72971  0.72645  1.0000
  C   C2215     1.0  0.92102  0.71671  0.74109  1.0000
  C   C2216     1.0  0.92624  0.71393  0.75726  1.0000
  C   C2217     1.0  0.93695  0.72442  0.75894  1.0000
  C   C2218     1.0  0.94229  0.73777  0.74446  1.0000
  C   C2219     1.0  0.93743  0.74026  0.72818  1.0000
  H   H2212     1.0  0.91279  0.70852  0.73981  1.0000
  H   H2213     1.0  0.92212  0.70356  0.76834  1.0000
  H   H2214     1.0  0.95055  0.74594  0.74572  1.0000
  H   H2215     1.0  0.94190  0.75037  0.71702  1.0000
  C   C2220     1.0  0.85977  0.72705  0.58024  1.0000
  C   C2221     1.0  0.78717  0.83407  0.79929  1.0000
  C   C2222     1.0  0.96310  0.90205  0.66016  1.0000
  H   H2216     1.0  0.84302  0.74192  0.60795  1.0000
  S   S755      1.0  0.92872  0.95605  0.50923  1.0000
  H   H2217     1.0  0.79450  0.75269  0.86505  1.0000
  C   C2223     1.0  0.94185  0.66577  0.91039  1.0000
  N   N180      1.0  0.84312  0.72375  0.59263  1.0000
  H   H2218     1.0  0.85599  0.89068  0.73785  1.0000
  H   H2219     1.0  0.78361  0.84678  0.68529  1.0000
  H   H2220     1.0  0.81472  0.73711  0.62881  1.0000
  C   C2224     1.0  0.87364  0.68635  0.86358  1.0000
  C   C2225     1.0  0.86037  0.68525  0.87917  1.0000
  N   N181      1.0  0.93265  0.68233  0.90379  1.0000
  N   N182      1.0  0.97744  0.89728  0.62552  1.0000
  C   C2226     1.0  0.78431  0.75970  0.87433  1.0000
  Fe  Fe378     1.0  0.76070  0.67381  0.56634  1.0000
  H   H2221     1.0  0.85928  0.69312  0.88869  1.0000
  H   H2222     1.0  0.99010  0.90069  0.66145  1.0000
  C   C2227     1.0  0.87936  0.91426  0.60312  1.0000
  H   H2223     1.0  0.83654  0.93246  0.61218  1.0000
  N   N183      1.0  0.88285  0.76681  0.66510  1.0000
  C   C2228     1.0  0.88141  0.78416  0.65598  1.0000
  C   C2229     1.0  0.88804  0.76160  0.68107  1.0000
  C   C2230     1.0  0.88506  0.79684  0.66287  1.0000
  C   C2231     1.0  0.89203  0.77390  0.68824  1.0000
  C   C2232     1.0  0.89053  0.79162  0.67904  1.0000
  C   C2233     1.0  0.88001  0.75339  0.65729  1.0000
  H   H2224     1.0  0.87749  0.78833  0.64324  1.0000
  H   H2225     1.0  0.88983  0.74773  0.68803  1.0000
  H   H2226     1.0  0.88403  0.81053  0.65549  1.0000
  H   H2227     1.0  0.89674  0.76952  0.70060  1.0000
  H   H2228     1.0  0.89392  0.80125  0.68423  1.0000
  H   H2229     1.0  0.87193  0.74449  0.66746  1.0000
  H   H2230     1.0  0.87284  0.75960  0.64622  1.0000
  H   H2231     1.0  0.89309  0.74522  0.65195  1.0000
  H   H2232     1.0  0.88027  0.67728  0.79895  1.0000
  Fe  Fe379     1.0  0.77795  0.69507  0.88434  1.0000
  H   H2233     1.0  0.94567  0.69657  0.91356  1.0000
  C   C2234     1.0  0.75185  0.84071  0.81821  1.0000
  H   H2234     1.0  0.97111  0.69649  0.75071  1.0000
  C   C2235     1.0  0.81229  0.86653  0.73139  1.0000
  C   C2236     1.0  0.81887  0.70843  0.60250  1.0000
  C   C2237     1.0  0.97441  0.81601  0.62980  1.0000
  C   C2238     1.0  0.95943  0.89942  0.63204  1.0000
  H   H2235     1.0  0.88025  0.86644  0.72712  1.0000
  C   C2239     1.0  0.95059  0.85861  0.60468  1.0000
  C   C2240     1.0  0.83476  0.71167  0.59072  1.0000
  H   H2236     1.0  0.80085  0.83147  0.79202  1.0000
  S   S756      1.0  0.76143  0.83385  0.85028  1.0000
  C   C2241     1.0  0.76438  0.75867  0.90315  1.0000
  C   C2242     1.0  0.75713  0.77677  0.89793  1.0000
  N   N184      1.0  0.77701  0.77743  0.86927  1.0000
  C   C2243     1.0  0.80704  0.85098  0.64246  1.0000
  C   C2244     1.0  0.85025  0.66354  0.87020  1.0000
  H   H2237     1.0  0.75949  0.81034  0.78732  1.0000
  H   H2238     1.0  0.95767  0.69496  0.72808  1.0000
  C   C2245     1.0  0.98512  0.89572  0.60699  1.0000
  H   H2239     1.0  0.81315  0.84305  0.63240  1.0000
  H   H2240     1.0  0.87097  0.99544  0.52732  1.0000
  C   C2246     1.0  0.75725  0.75617  0.55275  1.0000
  Fe  Fe380     1.0  0.99131  0.95380  0.64563  1.0000
  H   H2241     1.0  0.80426  0.71181  0.83590  1.0000
  H   H2242     1.0  0.78909  0.79829  0.85204  1.0000
  H   H2243     1.0  0.75896  0.75118  0.91611  1.0000
  C   C2247     1.0  0.98590  0.71626  0.74787  1.0000
  C   C2248     1.0  0.79309  0.69225  0.83086  1.0000
  H   H2244     1.0  0.80126  0.89225  0.64897  1.0000
  H   H2245     1.0  0.82464  0.89014  0.74032  1.0000
  H   H2246     1.0  0.91994  0.96644  0.55507  1.0000
  C   C2249     1.0  0.77325  0.83935  0.79020  1.0000
  C   C2250     1.0  0.94956  0.98400  0.52121  1.0000
  H   H2247     1.0  0.94036  0.95531  0.54322  1.0000
  C   C2251     1.0  0.75032  0.81080  0.76415  1.0000
  H   H2248     1.0  0.97759  0.69049  0.71102  1.0000
  C   C2252     1.0  0.87501  0.67618  0.85129  1.0000
  C   C2253     1.0  0.82041  0.72961  0.61836  1.0000
  N   N185      1.0  0.83091  0.86594  0.73113  1.0000
  C   C2254     1.0  0.97163  0.68202  0.87786  1.0000
  H   H2249     1.0  0.79808  0.82883  0.66197  1.0000
  S   S757      1.0  0.99343  0.97922  0.62511  1.0000
  N   N186      1.0  0.91701  0.82539  0.58099  1.0000
  C   C2255     1.0  0.91269  0.81670  0.57065  1.0000
  C   C2256     1.0  0.92686  0.81608  0.59351  1.0000
  C   C2257     1.0  0.91857  0.79825  0.57244  1.0000
  C   C2258     1.0  0.93308  0.79763  0.59556  1.0000
  C   C2259     1.0  0.92898  0.78870  0.58486  1.0000
  C   C2260     1.0  0.91064  0.84474  0.57873  1.0000
  H   H2250     1.0  0.90471  0.82406  0.56088  1.0000
  H   H2251     1.0  0.93004  0.82285  0.60198  1.0000
  H   H2252     1.0  0.91503  0.79144  0.56424  1.0000
  H   H2253     1.0  0.94103  0.79033  0.60539  1.0000
  H   H2254     1.0  0.93383  0.77441  0.58621  1.0000
  H   H2255     1.0  0.89591  0.84802  0.58339  1.0000
  H   H2256     1.0  0.91675  0.85048  0.58623  1.0000
  H   H2257     1.0  0.91411  0.85133  0.56442  1.0000
  N   N187      1.0  0.86486  0.92800  0.60493  1.0000
  C   C2261     1.0  0.86636  0.94334  0.60846  1.0000
  C   C2262     1.0  0.83505  0.87927  0.73600  1.0000
  S   S758      1.0  0.75635  0.70320  0.55380  1.0000
  H   H2258     1.0  0.96022  0.71018  0.70715  1.0000
  H   H2259     1.0  0.79907  0.71551  0.62527  1.0000
  S   S759      1.0  0.78113  0.67535  0.58049  1.0000
  C   C2263     1.0  0.79053  0.85284  0.67230  1.0000
  C   C2264     1.0  0.86638  0.86613  0.72854  1.0000
  C   C2265     1.0  0.75557  0.84267  0.79966  1.0000
  C   C2266     1.0  0.79844  0.84284  0.65921  1.0000
  H   H2260     1.0  0.92232  0.69747  0.92383  1.0000
  H   H2261     1.0  0.78522  0.87865  0.67862  1.0000
  H   H2262     1.0  0.79319  0.77888  0.84282  1.0000
  H   H2263     1.0  0.98629  0.81711  0.63383  1.0000
  H   H2264     1.0  0.75831  0.78488  0.57629  1.0000
  Fe  Fe381     1.0  0.75782  0.68035  0.60291  1.0000
  C   C2267     1.0  0.76582  0.83569  0.82724  1.0000
  H   H2265     1.0  0.84006  0.70481  0.57977  1.0000
  S   S760      1.0  0.78468  0.67492  0.94807  1.0000
  H   H2266     1.0  0.93441  0.86517  0.64696  1.0000
  H   H2267     1.0  0.82511  0.86698  0.61334  1.0000
  H   H2268     1.0  0.94084  0.96728  0.55935  1.0000
  H   H2269     1.0  0.97520  0.89431  0.60028  1.0000
  H   H2270     1.0  0.76505  0.88280  0.78332  1.0000
  H   H2271     1.0  0.87133  0.71920  0.58625  1.0000
  C   C2268     1.0  0.80048  0.87836  0.65176  1.0000
  H   H2272     1.0  0.94976  0.86505  0.59098  1.0000
  H   H2273     1.0  0.78344  0.73586  0.89505  1.0000
  C   C2269     1.0  0.95351  0.83274  0.54631  1.0000
  H   H2274     1.0  0.95997  0.97210  0.52015  1.0000
  H   H2275     1.0  0.94902  0.66392  0.92076  1.0000
  C   C2270     1.0  0.97543  0.82534  0.56448  1.0000
  S   S761      1.0  0.98348  0.67554  0.90889  1.0000
  Fe  Fe382     1.0  0.97476  0.75509  0.66377  1.0000
  H   H2276     1.0  0.91604  0.69775  0.88555  1.0000
  N   N188      1.0  0.96285  0.83367  0.62580  1.0000
  C   C2271     1.0  0.83632  0.73245  0.60639  1.0000
  H   H2277     1.0  0.86023  0.74140  0.57735  1.0000
  C   C2272     1.0  0.86352  0.66463  0.85469  1.0000
  C   C2273     1.0  0.82897  0.67131  0.95338  1.0000
  C   C2274     1.0  0.79149  0.87073  0.66857  1.0000
  C   C2275     1.0  0.85280  0.87963  0.73470  1.0000
  H   H2278     1.0  0.80915  0.87380  0.71824  1.0000
  H   H2279     1.0  0.77164  0.79371  0.84469  1.0000
  H   H2280     1.0  0.78022  0.70125  0.83041  1.0000
  C   C2276     1.0  0.96162  0.84177  0.60861  1.0000
  C   C2277     1.0  0.92361  0.68471  0.89070  1.0000
  N   N189      1.0  0.93499  0.98364  0.53499  1.0000
  S   S762      1.0  0.75677  0.85895  0.72615  1.0000
  H   H2281     1.0  0.79430  0.82860  0.82472  1.0000
  H   H2282     1.0  0.93188  0.88003  0.61570  1.0000
  C   C2278     1.0  0.91269  0.97606  0.50778  1.0000
  S   S763      1.0  0.99128  0.96575  0.57985  1.0000
  C   C2279     1.0  0.95364  0.84216  0.63937  1.0000
  N   N190      1.0  0.97674  0.71091  0.72379  1.0000
  H   H2283     1.0  0.81192  0.69935  0.60055  1.0000
  H   H2284     1.0  0.78557  0.77949  0.55465  1.0000
  C   C2280     1.0  0.94219  0.85883  0.63601  1.0000
  H   H2285     1.0  0.78121  0.87606  0.80776  1.0000
  C   C2281     1.0  0.86209  0.85256  0.72361  1.0000
  C   C2282     1.0  0.92438  0.67042  0.88332  1.0000
  H   H2286     1.0  0.96624  0.69552  0.87977  1.0000
  H   H2287     1.0  0.96335  0.80615  0.56020  1.0000
  C   C2283     1.0  0.84418  0.85276  0.72484  1.0000
  H   H2288     1.0  0.84098  0.84248  0.72046  1.0000
  C   C2284     1.0  0.89604  0.97766  0.51951  1.0000
  S   S764      1.0  0.76031  0.68279  0.90916  1.0000
  C   C2285     1.0  0.81164  0.71754  0.61635  1.0000
  S   S765      1.0  0.94766  0.66990  0.80210  1.0000
  Fe  Fe383     1.0  0.91934  0.66626  0.81199  1.0000
  N   N191      1.0  0.79582  0.67504  0.82910  1.0000
  C   C2286     1.0  0.96794  0.67670  0.86401  1.0000
  C   C2287     1.0  0.93399  0.96739  0.54889  1.0000
  C   C2288     1.0  0.98841  0.89731  0.63604  1.0000
  C   C2289     1.0  0.93231  0.69745  0.91110  1.0000
  C   C2290     1.0  0.81689  0.87698  0.62130  1.0000
  H   H2289     1.0  0.95064  0.89987  0.62362  1.0000
  H   H2290     1.0  0.86117  0.72354  0.56731  1.0000
  C   C2291     1.0  0.82302  0.68666  0.83539  1.0000
  H   H2291     1.0  0.75728  0.75755  0.84980  1.0000
  S   S766      1.0  0.76076  0.90439  0.69913  1.0000
  C   C2292     1.0  0.94067  0.86708  0.61853  1.0000
  C   C2293     1.0  0.75367  0.77521  0.57234  1.0000
  C   C2294     1.0  0.96769  0.70106  0.71720  1.0000
  H   H2292     1.0  0.76406  0.87690  0.83867  1.0000
  H   H2293     1.0  0.83853  0.67282  0.89454  1.0000
  H   H2294     1.0  0.96919  0.83519  0.59787  1.0000
  C   C2295     1.0  0.88390  0.99420  0.51834  1.0000
  C   C2296     1.0  0.98469  0.72402  0.71217  1.0000
  H   H2295     1.0  0.98521  0.94907  0.55459  1.0000
  Fe  Fe384     1.0  0.94776  0.66868  0.83060  1.0000
  H   H2296     1.0  0.88481  0.67729  0.83899  1.0000
  N   N192      1.0  0.76302  0.76846  0.55765  1.0000
  H   H2297     1.0  0.98570  0.71344  0.76200  1.0000
  C   C2297     1.0  0.78312  0.78748  0.85130  1.0000
  H   H2298     1.0  0.99025  0.90787  0.59931  1.0000
  H   H2299     1.0  0.96703  0.80700  0.64073  1.0000
  C   C2298     1.0  0.75327  0.73712  0.87356  1.0000
  S   S767      1.0  0.75850  0.66935  0.63172  1.0000
  H   H2300     1.0  0.98430  0.72719  0.69816  1.0000
  H   H2301     1.0  0.98517  0.84746  0.56621  1.0000
  H   H2302     1.0  0.75799  0.80005  0.87678  1.0000
  C   C2299     1.0  0.78130  0.66851  0.82667  1.0000
  H   H2303     1.0  0.76199  0.81482  0.75485  1.0000
  H   H2304     1.0  0.77165  0.67952  0.82023  1.0000
  C   C2300     1.0  0.91711  0.99091  0.49491  1.0000
  S   S768      1.0  0.99679  0.93731  0.62549  1.0000
  C   C2301     1.0  0.87565  0.66541  0.79991  1.0000
  C   C2302     1.0  0.74932  0.75427  0.86306  1.0000
  C   C2303     1.0  0.81168  0.66345  0.83086  1.0000
  C   C2304     1.0  0.74887  0.80839  0.78241  1.0000
