data_image0
_chemical_formula_structural       C2HNHS2H2CFeS2FeS2FeSFeS3CFeHSHCH2C4SCSC7H6C4FeH3SH2C7H4C2H3C6H4SH2CH2SH2NH11SCHCHC2H2CH2CHC2H2CHNHNC6HC2SNCHSHCH2SC2H3CHCSH2FeHC2H3CH2SCFeSFeCHFeSFeS3FeS2FeS2FeSFeS3FeS2CSHSHCFeSH2C2HC2HFeC2HC3HC7H4C6H4NCH2SHCHC6H4FeH2C3NH3NC6H9C2NSH2SCHSHSH2CHFeHCH2CH2SHC2NC3SC2H3CH4C3HC4HCHFeC2HCHNC3H3CHFeC2HNC3HCHCSC2FeC3HCHFeCHCFeS2FeS2FeSFeS6CS2C2SFeSC2H4SHCHFeCHFeC7H4C6H4C2H6C7H5NC3HC2HSHC2H4CHC4SH5CHNHC2S2CH4CHCN2FeH2CH2SHCHC3H3FeCFeCHSCHCHNH2Fe2CFeS2HCFeS3FeS2FeS2FeHFeS3HSHC3FeSCSHSCSFeHFeS2HSH3CFeSCHC2NC6H4C6H4CH2CHC3H2C2H2C2H2NC6H5CNC6H10C2H3CH5C2NC2HC3H7C2H2C3NHC2H2CSNC4SCHCS2H2CH3CHCHCH2SC3H2CH4FeHCFeCHC3NH2CSCH2CFeSCFeS2FeS2FeSFeS3C2HSC2H4C7HCH2C4NCH2CHC4H2CNCHC6H4CH2NCH2C2HCHC3H4CHC2HC3H2NCH3SCH2C2H3NC2HCSH2CHC2HCH3NCH3FeCH5CSCNHSFeSCHCH3CHNCH2SHSHS2FeS2FeS2FeSFeS2FeS2FeS2FeSFeS2FeS2Fe2SNHCSCHSCFeSH2SCFeHCSH2C3HCSC7H4C6H4C7H4C3H2CH2C2H2CH2C3H5CFeCHFeC2SCH3CHC3H5C2HC2HC4H2C3NC6H11CH3NFeC3NCHC3HNH2CFeH2C4HCSHSH2CHC2HSH5SH2CH2C2H3SFe2S2FeS2FeSFeS3HNC6H4C3HC3H3C6H4C6H7C4NHCHCH2CHC2SHC2NH2NCH2SCH3CHC3NH2CHC2HCSC2HCNSH5CH3CHC3SCHCH3CFeS2FeS2FeSFeS3FeSHCSCFeSFeS2H3S2CHCSCSFeS2HCHFeHNSFeC2HCH7C2HCH2FeCHCHC5H3CSHFeHC3H3SC8H4C6H4C6H4CSNHCHFeHC2HCHCH3NC6H8NC5H2FeH3CHC4HSNSC2FeHCHC2FeCH4FeCSHCHC5HSC2SHCSCHFeH2CH5FeCH2CS2H2S2C2SCSHCH3C3HSHFeS2FeS2FeSFeS3H2NHCNHFeS2H2C7H4C3H3C7H4C6H5NC6H10CHCHCHNCHC2HCHSH2CHCHCNFeHFeH3C4H2SCH2C2SHNC2SHCHS2H2FeC3FeCH2C2SFeS2HSFeSHFeS2FeSFeS2HFeS2FeS2FeSFeS3HFeSH2C2FeHCHCHC6H4CSC3HSH4C6H4CHCSH2CNHC3FeHCHC6H5CHCH2SCHCHC3HFeHCHC2H3NCHNH2C2H3FeH5CHC2HNCHC2H2C2NC2HC2SHC2H5C2SCHC2H2CSH2NHCNC3HC3HCSCH3FeSC2SHC2SCHCH5SHFeS2FeS2FeSFeS3NHS2NCSHCHCH3CHC7H4C6H4C5H3C6H4C2HCNC2HCHC2H3CH3NC3HCH3CH2NHCSCSCH2CH3CH4NSHCHCHCFeHCHC4H6CHCH2CHSFeCH2C4FeSCSFe2CHFeS2C3HS2FeS2FeS2Fe2S3FeS2FeSFeS2FeS2CFeSCFeH2S4HC2HC2H2CNSCH2CH4FeNH2FeC7H4C6H4CH5C3H2C2SC3H3C6H4CHCSHC5HC3H2CFeHFeNC6H8SHCSCSHNCH2CH2C2H2NHCHCNC6H8NC6H6SCHCH3CH2FeHCNCSH2C2SHFeS2FeS2FeSFeS3C3H2C6H5C4H2C6H4C6H8CH2SC4HCHC2HC3HCH2NS2CHC2NHCH3CH2NH2CHCH2C6H2NC3H4C2H4NCHCSHCSC2SHFeS3FeHFeS2HFeC2S2FeS2FeS2FeSFeCS2FeS2FeC3S2CH2CHC6H4CSHCFeHCHCFeHSC7H4C3H4C3FeHC7H5C2H5CSC2HC3SHSCHNCFeSH4CHNHNFeSH2CNS2HCH4C2H2C2HC5HFeH3FeCHCHFeH4SC3H3CHFeCH2CNCHSHC2HSH5SC2HSCH3C2HC3HSFeHSC2FeS2FeS2FeSFeS3C3NCHC7H5C7H4C6H3CSCHC2HCH9CHN2CH3C3HC2H2CH3NC6H8NC3SCH2SH2C2SH2SHC2FeHFeS2FeS2FeSHFeCFeSCSHFeSFeS2FeSFeS3FeS3HFeSFeS3HCH3SC3HC4HC2HCHC6H5CH2CHC2HSHSC6H4C2HC2H2C6H4CH2FeC3H2S2H2NHCNC6H2CH6CH3CHSCH3NC6H8CNCFeCSCHNFeHC4NC4HFeCHSCFeSFeHCH2C3HCHSHCH3SHCH2CHCSCHC2H3
_chemical_formula_sum              "C1152 H1152 N96 S384 Fe192"
_cell_length_a       58.4229
_cell_length_b       58.9559
_cell_length_c       59.1886
_cell_angle_alpha    81.0569
_cell_angle_beta     81.3808
_cell_angle_gamma    81.0357

_space_group_name_H-M_alt    "P 1"
_space_group_IT_number       1

loop_
  _space_group_symop_operation_xyz
  'x, y, z'

loop_
  _atom_site_type_symbol
  _atom_site_label
  _atom_site_symmetry_multiplicity
  _atom_site_fract_x
  _atom_site_fract_y
  _atom_site_fract_z
  _atom_site_occupancy
  C   C1        1.0  0.29510  0.19282  0.08399  1.0000
  C   C2        1.0  0.33456  0.19868  0.06535  1.0000
  H   H1        1.0  0.50128  0.29018  0.23255  1.0000
  N   N1        1.0  0.22346  0.21245  0.20590  1.0000
  H   H2        1.0  0.16713  0.14973  0.22910  1.0000
  S   S1        1.0  0.27004  0.09008  0.24054  1.0000
  S   S2        1.0  0.15673  0.23254  0.19550  1.0000
  H   H3        1.0  0.32305  0.01230  0.20682  1.0000
  H   H4        1.0  0.31326  0.20594  0.02757  1.0000
  C   C3        1.0  0.34229  0.35101  0.16941  1.0000
  Fe  Fe1       1.0  0.28279  0.22566  0.13221  1.0000
  S   S3        1.0  0.27725  0.25307  0.15532  1.0000
  S   S4        1.0  0.27499  0.18941  0.14415  1.0000
  Fe  Fe2       1.0  0.29545  0.25829  0.08898  1.0000
  S   S5        1.0  0.29122  0.28898  0.10831  1.0000
  S   S6        1.0  0.30815  0.25903  0.05077  1.0000
  Fe  Fe3       1.0  0.30980  0.26473  0.13492  1.0000
  S   S7        1.0  0.33305  0.27979  0.15404  1.0000
  Fe  Fe4       1.0  0.25912  0.27512  0.12732  1.0000
  S   S8        1.0  0.22724  0.29820  0.14018  1.0000
  S   S9        1.0  0.31724  0.23507  0.11403  1.0000
  S   S10       1.0  0.26150  0.24653  0.10579  1.0000
  C   C4        1.0  0.04168  0.23920  0.19904  1.0000
  Fe  Fe5       1.0  0.14279  0.24067  0.23106  1.0000
  H   H5        1.0  0.32615  0.36216  0.16623  1.0000
  S   S11       1.0  0.19630  0.37868  0.24614  1.0000
  H   H6        1.0  0.37957  0.16584  0.22300  1.0000
  C   C5        1.0  0.21779  0.16657  0.20551  1.0000
  H   H7        1.0  0.29825  0.29086  0.21515  1.0000
  H   H8        1.0  0.09142  0.28308  0.18146  1.0000
  C   C6        1.0  0.07670  0.21164  0.19517  1.0000
  C   C7        1.0  0.09000  0.22948  0.19501  1.0000
  C   C8        1.0  0.09321  0.27022  0.19713  1.0000
  C   C9        1.0  0.05549  0.25654  0.19921  1.0000
  S   S12       1.0  0.40050  0.21199  0.21592  1.0000
  C   C10       1.0  0.21536  0.17547  0.22635  1.0000
  S   S13       1.0  0.49965  0.23847  0.24266  1.0000
  C   C11       1.0  0.27608  0.49773  0.24884  1.0000
  C   C12       1.0  0.34958  0.25993  0.17267  1.0000
  C   C13       1.0  0.35795  0.26791  0.19056  1.0000
  C   C14       1.0  0.37338  0.25314  0.20406  1.0000
  C   C15       1.0  0.38020  0.23023  0.19996  1.0000
  C   C16       1.0  0.37097  0.22189  0.18280  1.0000
  C   C17       1.0  0.35563  0.23674  0.16914  1.0000
  H   H9        1.0  0.35259  0.28555  0.19392  1.0000
  H   H10       1.0  0.38022  0.25947  0.21749  1.0000
  H   H11       1.0  0.37614  0.20410  0.17967  1.0000
  H   H12       1.0  0.34914  0.23043  0.15544  1.0000
  H   H13       1.0  0.22554  0.17399  0.16855  1.0000
  H   H14       1.0  0.34121  0.32978  0.14308  1.0000
  C   C18       1.0  0.05238  0.21659  0.19720  1.0000
  C   C19       1.0  0.28786  0.25771  0.03192  1.0000
  C   C20       1.0  0.26397  0.25883  0.03967  1.0000
  C   C21       1.0  0.24834  0.25619  0.02471  1.0000
  Fe  Fe6       1.0  0.41577  0.22933  0.24044  1.0000
  H   H15       1.0  0.26393  0.31080  0.16570  1.0000
  H   H16       1.0  0.25748  0.26172  0.05720  1.0000
  H   H17       1.0  0.22986  0.25705  0.03087  1.0000
  S   S14       1.0  0.25774  0.39605  0.22883  1.0000
  H   H18       1.0  0.27147  0.20510  0.02522  1.0000
  H   H19       1.0  0.33681  0.21702  0.06563  1.0000
  C   C22       1.0  0.40308  0.30496  0.18508  1.0000
  C   C23       1.0  0.17513  0.25174  0.17972  1.0000
  C   C24       1.0  0.17689  0.27262  0.18738  1.0000
  C   C25       1.0  0.19232  0.28738  0.17472  1.0000
  C   C26       1.0  0.20638  0.28095  0.15478  1.0000
  C   C27       1.0  0.20456  0.26008  0.14721  1.0000
  C   C28       1.0  0.18869  0.24568  0.15946  1.0000
  H   H20       1.0  0.16645  0.27740  0.20302  1.0000
  H   H21       1.0  0.19369  0.30350  0.18067  1.0000
  H   H22       1.0  0.21514  0.25519  0.13169  1.0000
  H   H23       1.0  0.18722  0.22961  0.15344  1.0000
  C   C29       1.0  0.36554  0.30313  0.24557  1.0000
  C   C30       1.0  0.17134  0.34236  0.24900  1.0000
  H   H24       1.0  0.16489  0.35118  0.23330  1.0000
  H   H25       1.0  0.21577  0.14860  0.20539  1.0000
  H   H26       1.0  0.26874  0.31376  0.23631  1.0000
  C   C31       1.0  0.29664  0.15701  0.21428  1.0000
  C   C32       1.0  0.28331  0.14592  0.20282  1.0000
  C   C33       1.0  0.27728  0.15577  0.18108  1.0000
  C   C34       1.0  0.28394  0.17718  0.17092  1.0000
  C   C35       1.0  0.29711  0.18856  0.18238  1.0000
  C   C36       1.0  0.30364  0.17835  0.20399  1.0000
  H   H27       1.0  0.27790  0.12952  0.21048  1.0000
  H   H28       1.0  0.26725  0.14683  0.17224  1.0000
  H   H29       1.0  0.30249  0.20504  0.17453  1.0000
  H   H30       1.0  0.31393  0.18708  0.21277  1.0000
  S   S15       1.0  0.27261  0.45479  0.23871  1.0000
  H   H31       1.0  0.29247  0.28274  0.18881  1.0000
  H   H32       1.0  0.30155  0.18979  0.10060  1.0000
  C   C37       1.0  0.30170  0.20151  0.04323  1.0000
  H   H33       1.0  0.41916  0.31243  0.17708  1.0000
  H   H34       1.0  0.22972  0.33657  0.24043  1.0000
  S   S16       1.0  0.12690  0.27530  0.24144  1.0000
  H   H35       1.0  0.22758  0.48611  0.22202  1.0000
  H   H36       1.0  0.22893  0.24636  0.18886  1.0000
  N   N2        1.0  0.30996  0.19720  0.06414  1.0000
  H   H37       1.0  0.34598  0.19231  0.05025  1.0000
  H   H38       1.0  0.29687  0.02196  0.22495  1.0000
  H   H39       1.0  0.37703  0.30374  0.15173  1.0000
  H   H40       1.0  0.25962  0.18933  0.09910  1.0000
  H   H41       1.0  0.34790  0.36834  0.19717  1.0000
  H   H42       1.0  0.30456  0.30925  0.18851  1.0000
  H   H43       1.0  0.04174  0.20288  0.19786  1.0000
  H   H44       1.0  0.40310  0.30135  0.20411  1.0000
  H   H45       1.0  0.40347  0.28794  0.17900  1.0000
  H   H46       1.0  0.23106  0.21446  0.16926  1.0000
  H   H47       1.0  0.21600  0.20546  0.24250  1.0000
  S   S17       1.0  0.30637  0.34206  0.22747  1.0000
  C   C38       1.0  0.22622  0.20376  0.18538  1.0000
  H   H48       1.0  0.11211  0.26363  0.19727  1.0000
  C   C39       1.0  0.26278  0.19681  0.06197  1.0000
  H   H49       1.0  0.04702  0.27392  0.20151  1.0000
  C   C40       1.0  0.27806  0.20117  0.04180  1.0000
  C   C41       1.0  0.35070  0.33289  0.15649  1.0000
  H   H50       1.0  0.08718  0.27905  0.21270  1.0000
  H   H51       1.0  0.08522  0.19408  0.19395  1.0000
  C   C42       1.0  0.37467  0.33928  0.19152  1.0000
  H   H52       1.0  0.28454  0.50087  0.23131  1.0000
  H   H53       1.0  0.38372  0.34174  0.20551  1.0000
  C   C43       1.0  0.27134  0.19249  0.08322  1.0000
  H   H54       1.0  0.33551  0.29826  0.23070  1.0000
  C   C44       1.0  0.21809  0.19863  0.22623  1.0000
  C   C45       1.0  0.22312  0.18082  0.18486  1.0000
  H   H55       1.0  0.24430  0.19717  0.06114  1.0000
  H   H56       1.0  0.35445  0.18748  0.22580  1.0000
  C   C46       1.0  0.22279  0.50043  0.23211  1.0000
  H   H57       1.0  0.10891  0.22547  0.19342  1.0000
  N   N3        1.0  0.07931  0.25155  0.19721  1.0000
  H   H58       1.0  0.35120  0.15697  0.23179  1.0000
  N   N4        1.0  0.26851  0.31067  0.20086  1.0000
  C   C47       1.0  0.25646  0.31638  0.18220  1.0000
  C   C48       1.0  0.25908  0.31781  0.22158  1.0000
  C   C49       1.0  0.23431  0.32956  0.18407  1.0000
  C   C50       1.0  0.23700  0.33087  0.22404  1.0000
  C   C51       1.0  0.22456  0.33686  0.20516  1.0000
  C   C52       1.0  0.29206  0.29771  0.19824  1.0000
  H   H59       1.0  0.34059  0.18813  0.08116  1.0000
  C   C53       1.0  0.37103  0.31816  0.16150  1.0000
  C   C54       1.0  0.35453  0.35448  0.18680  1.0000
  S   S18       1.0  0.20258  0.11190  0.24079  1.0000
  N   N5        1.0  0.38234  0.32107  0.17930  1.0000
  C   C55       1.0  0.29597  0.25433  0.00895  1.0000
  H   H60       1.0  0.22479  0.33407  0.16923  1.0000
  S   S19       1.0  0.43615  0.25946  0.23078  1.0000
  H   H61       1.0  0.21164  0.24550  0.21653  1.0000
  C   C56       1.0  0.33273  0.33298  0.23892  1.0000
  H   H62       1.0  0.20749  0.34728  0.20692  1.0000
  H   H63       1.0  0.24303  0.23662  0.21432  1.0000
  S   S20       1.0  0.30461  0.14420  0.24137  1.0000
  C   C57       1.0  0.22699  0.23642  0.20644  1.0000
  C   C58       1.0  0.36237  0.17013  0.23338  1.0000
  H   H64       1.0  0.21142  0.16443  0.24248  1.0000
  H   H65       1.0  0.40134  0.17291  0.25100  1.0000
  H   H66       1.0  0.33531  0.36621  0.24844  1.0000
  C   C59       1.0  0.34379  0.31032  0.23768  1.0000
  H   H67       1.0  0.14222  0.17761  0.25268  1.0000
  C   C60       1.0  0.49606  0.29598  0.24933  1.0000
  S   S21       1.0  0.11287  0.22217  0.24809  1.0000
  H   H68       1.0  0.45915  0.29893  0.24729  1.0000
  H   H69       1.0  0.02275  0.24307  0.20118  1.0000
  Fe  Fe7       1.0  0.28242  0.36857  0.24650  1.0000
  H   H70       1.0  0.37394  0.28563  0.24464  1.0000
  C   C61       1.0  0.30993  0.00665  0.22136  1.0000
  C   C62       1.0  0.34353  0.34852  0.24794  1.0000
  H   H71       1.0  0.26511  0.00742  0.21542  1.0000
  H   H72       1.0  0.03907  0.19537  0.25234  1.0000
  H   H73       1.0  0.15356  0.31259  0.25028  1.0000
  C   C63       1.0  0.16735  0.14747  0.24756  1.0000
  H   H74       1.0  0.31446  0.25342  0.00286  1.0000
  H   H75       1.0  0.37774  0.27686  0.31049  1.0000
  S   S22       1.0  0.28951  0.09212  0.28960  1.0000
  C   C64       1.0  0.20958  0.26982  0.42758  1.0000
  Fe  Fe8       1.0  0.14510  0.26337  0.27292  1.0000
  S   S23       1.0  0.24617  0.13059  0.27304  1.0000
  Fe  Fe9       1.0  0.13201  0.21509  0.27892  1.0000
  C   C65       1.0  0.27585  0.04933  0.34155  1.0000
  H   H76       1.0  0.20687  0.29606  0.39827  1.0000
  Fe  Fe10      1.0  0.25242  0.10392  0.30343  1.0000
  S   S24       1.0  0.23945  0.11321  0.33902  1.0000
  Fe  Fe11      1.0  0.41612  0.27207  0.26279  1.0000
  S   S25       1.0  0.23748  0.07649  0.29023  1.0000
  S   S26       1.0  0.13716  0.18103  0.30137  1.0000
  S   S27       1.0  0.11487  0.24718  0.29359  1.0000
  Fe  Fe12      1.0  0.31073  0.24402  0.40141  1.0000
  S   S28       1.0  0.29692  0.23554  0.37103  1.0000
  S   S29       1.0  0.34339  0.26072  0.39512  1.0000
  Fe  Fe13      1.0  0.27244  0.22491  0.43547  1.0000
  S   S30       1.0  0.25514  0.21400  0.40800  1.0000
  S   S31       1.0  0.25886  0.21916  0.47338  1.0000
  Fe  Fe14      1.0  0.29165  0.20169  0.39262  1.0000
  S   S32       1.0  0.30624  0.17144  0.37358  1.0000
  Fe  Fe15      1.0  0.26196  0.24855  0.38846  1.0000
  S   S33       1.0  0.23650  0.27005  0.36637  1.0000
  S   S34       1.0  0.30834  0.20908  0.42198  1.0000
  S   S35       1.0  0.27611  0.26062  0.41704  1.0000
  Fe  Fe16      1.0  0.42152  0.22485  0.29088  1.0000
  S   S36       1.0  0.44230  0.25447  0.28612  1.0000
  S   S37       1.0  0.41050  0.20333  0.32413  1.0000
  C   C66       1.0  0.23264  0.30011  0.44432  1.0000
  S   S38       1.0  0.23489  0.40922  0.28042  1.0000
  H   H77       1.0  0.37049  0.25698  0.43590  1.0000
  S   S39       1.0  0.25453  0.35473  0.27266  1.0000
  H   H78       1.0  0.44756  0.31018  0.28647  1.0000
  C   C67       1.0  0.25378  0.48985  0.29390  1.0000
  Fe  Fe17      1.0  0.26159  0.38050  0.29390  1.0000
  S   S40       1.0  0.26718  0.36880  0.33089  1.0000
  H   H79       1.0  0.01153  0.27894  0.25488  1.0000
  H   H80       1.0  0.47813  0.31266  0.31060  1.0000
  C   C68       1.0  0.34704  0.17152  0.29693  1.0000
  C   C69       1.0  0.34190  0.22842  0.45963  1.0000
  H   H81       1.0  0.24489  0.48681  0.31127  1.0000
  C   C70       1.0  0.04852  0.22834  0.25610  1.0000
  C   C71       1.0  0.04651  0.23319  0.31344  1.0000
  H   H82       1.0  0.37388  0.35351  0.26235  1.0000
  Fe  Fe18      1.0  0.09819  0.25585  0.26098  1.0000
  C   C72       1.0  0.04095  0.25195  0.25663  1.0000
  C   C73       1.0  0.35888  0.26462  0.45030  1.0000
  H   H83       1.0  0.20578  0.34913  0.28829  1.0000
  C   C74       1.0  0.37642  0.31866  0.25446  1.0000
  C   C75       1.0  0.34540  0.17014  0.27381  1.0000
  C   C76       1.0  0.18247  0.12943  0.25794  1.0000
  H   H84       1.0  0.07197  0.20249  0.31286  1.0000
  C   C77       1.0  0.46594  0.30687  0.27977  1.0000
  C   C78       1.0  0.24532  0.29731  0.35622  1.0000
  C   C79       1.0  0.26469  0.30372  0.36373  1.0000
  C   C80       1.0  0.27097  0.32594  0.35637  1.0000
  C   C81       1.0  0.25841  0.34151  0.34080  1.0000
  C   C82       1.0  0.23926  0.33500  0.33303  1.0000
  C   C83       1.0  0.23256  0.31301  0.34096  1.0000
  H   H85       1.0  0.27486  0.29163  0.37524  1.0000
  H   H86       1.0  0.28584  0.33091  0.36237  1.0000
  H   H87       1.0  0.22927  0.34711  0.32130  1.0000
  H   H88       1.0  0.21746  0.30818  0.33528  1.0000
  C   C84       1.0  0.36291  0.24484  0.37590  1.0000
  C   C85       1.0  0.38105  0.25489  0.36160  1.0000
  C   C86       1.0  0.39576  0.24229  0.34546  1.0000
  C   C87       1.0  0.39266  0.21947  0.34413  1.0000
  C   C88       1.0  0.37487  0.20935  0.35879  1.0000
  C   C89       1.0  0.35983  0.22211  0.37437  1.0000
  H   H89       1.0  0.38348  0.27248  0.36273  1.0000
  H   H90       1.0  0.40971  0.25004  0.33432  1.0000
  H   H91       1.0  0.37248  0.19168  0.35796  1.0000
  H   H92       1.0  0.34599  0.21412  0.38531  1.0000
  N   N6        1.0  0.22497  0.30600  0.42316  1.0000
  C   C90       1.0  0.18636  0.35259  0.25953  1.0000
  H   H93       1.0  0.35179  0.26282  0.49641  1.0000
  H   H94       1.0  0.20102  0.25792  0.42054  1.0000
  S   S41       1.0  0.40367  0.30987  0.26424  1.0000
  H   H95       1.0  0.28972  0.04696  0.32668  1.0000
  C   C91       1.0  0.25706  0.02030  0.32835  1.0000
  H   H96       1.0  0.34370  0.22735  0.44128  1.0000
  C   C92       1.0  0.25764  0.12991  0.34849  1.0000
  C   C93       1.0  0.24896  0.14343  0.36621  1.0000
  C   C94       1.0  0.26352  0.15683  0.37377  1.0000
  C   C95       1.0  0.28693  0.15614  0.36399  1.0000
  C   C96       1.0  0.29552  0.14255  0.34639  1.0000
  C   C97       1.0  0.28084  0.12978  0.33841  1.0000
  H   H97       1.0  0.23102  0.14352  0.37415  1.0000
  H   H98       1.0  0.25688  0.16709  0.38757  1.0000
  H   H99       1.0  0.31369  0.14170  0.33904  1.0000
  H   H100      1.0  0.28775  0.11938  0.32488  1.0000
  Fe  Fe19      1.0  0.27412  0.06662  0.27380  1.0000
  H   H101      1.0  0.28604  0.25757  0.46393  1.0000
  H   H102      1.0  0.22010  0.34283  0.41823  1.0000
  C   C98       1.0  0.15364  0.16056  0.28478  1.0000
  C   C99       1.0  0.16807  0.14196  0.29528  1.0000
  C   C100      1.0  0.18286  0.12671  0.28180  1.0000
  N   N7        1.0  0.36476  0.17051  0.25762  1.0000
  H   H103      1.0  0.16833  0.13973  0.31374  1.0000
  H   H104      1.0  0.19452  0.11281  0.28991  1.0000
  H   H105      1.0  0.33169  0.17130  0.30977  1.0000
  N   N8        1.0  0.20953  0.19165  0.32327  1.0000
  C   C101      1.0  0.22705  0.19874  0.33231  1.0000
  C   C102      1.0  0.18928  0.20625  0.32025  1.0000
  C   C103      1.0  0.22484  0.22131  0.33780  1.0000
  C   C104      1.0  0.18649  0.22890  0.32558  1.0000
  C   C105      1.0  0.20449  0.23653  0.33420  1.0000
  C   C106      1.0  0.21196  0.16793  0.31777  1.0000
  H   H106      1.0  0.24289  0.18697  0.33527  1.0000
  H   H107      1.0  0.17514  0.20046  0.31363  1.0000
  H   H108      1.0  0.23878  0.22699  0.34487  1.0000
  H   H109      1.0  0.17047  0.24050  0.32297  1.0000
  H   H110      1.0  0.20263  0.25418  0.33814  1.0000
  H   H111      1.0  0.20321  0.16732  0.30249  1.0000
  H   H112      1.0  0.23062  0.16074  0.31365  1.0000
  H   H113      1.0  0.20407  0.15651  0.33269  1.0000
  H   H114      1.0  0.30695  0.26165  0.32374  1.0000
  C   C107      1.0  0.19458  0.34116  0.27984  1.0000
  C   C108      1.0  0.22893  0.27888  0.45763  1.0000
  N   N9        1.0  0.34939  0.24640  0.46723  1.0000
  S   S42       1.0  0.16635  0.28154  0.29125  1.0000
  H   H115      1.0  0.19450  0.31069  0.30515  1.0000
  H   H116      1.0  0.49069  0.24070  0.29188  1.0000
  S   S43       1.0  0.29110  0.02940  0.27602  1.0000
  C   C109      1.0  0.15332  0.16332  0.26091  1.0000
  H   H117      1.0  0.32496  0.19756  0.46923  1.0000
  S   S44       1.0  0.29189  0.39195  0.26902  1.0000
  H   H118      1.0  0.37029  0.17445  0.32119  1.0000
  S   S45       1.0  0.06028  0.27084  0.26011  1.0000
  H   H119      1.0  0.34974  0.24801  0.32087  1.0000
  H   H120      1.0  0.21935  0.00781  0.25686  1.0000
  C   C110      1.0  0.34678  0.24810  0.49032  1.0000
  H   H121      1.0  0.05918  0.24457  0.31435  1.0000
  Fe  Fe20      1.0  0.28201  0.11678  0.25779  1.0000
  H   H122      1.0  0.36932  0.27484  0.45809  1.0000
  C   C111      1.0  0.32888  0.21299  0.49886  1.0000
  H   H123      1.0  0.23528  0.27404  0.47428  1.0000
  H   H124      1.0  0.22389  0.33008  0.39196  1.0000
  C   C112      1.0  0.34333  0.26638  0.31758  1.0000
  H   H125      1.0  0.25360  0.45494  0.28704  1.0000
  H   H126      1.0  0.06623  0.22126  0.25842  1.0000
  S   S46       1.0  0.39341  0.24374  0.27049  1.0000
  H   H127      1.0  0.30000  0.28007  0.48987  1.0000
  C   C113      1.0  0.47243  0.30063  0.25769  1.0000
  C   C114      1.0  0.21756  0.26356  0.44905  1.0000
  N   N10       1.0  0.32708  0.31349  0.30996  1.0000
  C   C115      1.0  0.35059  0.30617  0.30852  1.0000
  C   C116      1.0  0.31149  0.29779  0.31537  1.0000
  C   C117      1.0  0.35906  0.28254  0.31197  1.0000
  S   S47       1.0  0.16355  0.23033  0.26071  1.0000
  C   C118      1.0  0.21315  0.29138  0.41495  1.0000
  C   C119      1.0  0.31843  0.33832  0.30711  1.0000
  H   H128      1.0  0.36300  0.31858  0.30458  1.0000
  H   H129      1.0  0.32855  0.16876  0.26885  1.0000
  H   H130      1.0  0.27218  0.06828  0.34262  1.0000
  C   C120      1.0  0.36867  0.17324  0.30337  1.0000
  H   H131      1.0  0.01775  0.26065  0.31257  1.0000
  H   H132      1.0  0.33149  0.34864  0.29646  1.0000
  H   H133      1.0  0.30241  0.34195  0.29838  1.0000
  H   H134      1.0  0.31416  0.34448  0.32425  1.0000
  C   C121      1.0  0.05369  0.20961  0.31246  1.0000
  C   C122      1.0  0.25870  0.47178  0.28021  1.0000
  C   C123      1.0  0.28200  0.25342  0.48236  1.0000
  H   H135      1.0  0.24860  0.32930  0.40669  1.0000
  C   C124      1.0  0.03732  0.19536  0.31044  1.0000
  C   C125      1.0  0.33148  0.21147  0.47531  1.0000
  C   C126      1.0  0.26909  0.23530  0.49155  1.0000
  C   C127      1.0  0.28991  0.26615  0.49710  1.0000
  H   H136      1.0  0.23138  0.06644  0.35404  1.0000
  C   C128      1.0  0.22954  0.32815  0.40939  1.0000
  H   H137      1.0  0.04278  0.17708  0.30931  1.0000
  Fe  Fe21      1.0  0.23025  0.38418  0.25691  1.0000
  C   C129      1.0  0.26941  0.47584  0.25747  1.0000
  C   C130      1.0  0.27301  0.00969  0.27172  1.0000
  H   H138      1.0  0.40520  0.17482  0.29157  1.0000
  C   C131      1.0  0.48328  0.30822  0.29328  1.0000
  H   H139      1.0  0.24199  0.31168  0.45088  1.0000
  N   N11       1.0  0.25484  0.04012  0.33830  1.0000
  C   C132      1.0  0.17345  0.30901  0.27877  1.0000
  C   C133      1.0  0.31937  0.27402  0.31925  1.0000
  C   C134      1.0  0.18811  0.31945  0.28943  1.0000
  H   H140      1.0  0.21527  0.24673  0.45892  1.0000
  H   H141      1.0  0.34433  0.27647  0.44284  1.0000
  H   H142      1.0  0.20797  0.47936  0.26212  1.0000
  C   C135      1.0  0.38830  0.17350  0.28675  1.0000
  H   H143      1.0  0.29283  0.30363  0.31687  1.0000
  Fe  Fe22      1.0  0.23463  0.10219  0.25840  1.0000
  C   C136      1.0  0.16499  0.32049  0.25853  1.0000
  C   C137      1.0  0.38600  0.17229  0.26382  1.0000
  H   H144      1.0  0.24431  0.03587  0.26341  1.0000
  N   N12       1.0  0.50642  0.30371  0.28491  1.0000
  C   C138      1.0  0.50889  0.24207  0.28614  1.0000
  C   C139      1.0  0.02302  0.24221  0.31231  1.0000
  C   C140      1.0  0.23317  0.05095  0.34578  1.0000
  H   H145      1.0  0.19588  0.05175  0.34749  1.0000
  C   C141      1.0  0.25069  0.01754  0.26552  1.0000
  H   H146      1.0  0.28253  0.04031  0.35765  1.0000
  C   C142      1.0  0.01398  0.20499  0.30924  1.0000
  S   S48       1.0  0.44233  0.20798  0.26148  1.0000
  C   C143      1.0  0.36544  0.34139  0.25559  1.0000
  C   C144      1.0  0.21300  0.04266  0.34220  1.0000
  Fe  Fe23      1.0  0.46095  0.23941  0.25470  1.0000
  C   C145      1.0  0.21182  0.49660  0.25470  1.0000
  C   C146      1.0  0.01753  0.26067  0.25445  1.0000
  C   C147      1.0  0.21513  0.02291  0.33132  1.0000
  H   H147      1.0  0.27424  0.01148  0.32277  1.0000
  C   C148      1.0  0.23728  0.01149  0.32455  1.0000
  H   H148      1.0  0.19967  0.01649  0.32804  1.0000
  Fe  Fe24      1.0  0.26470  0.41871  0.25360  1.0000
  C   C149      1.0  0.03299  0.21360  0.25292  1.0000
  H   H149      1.0  0.20775  0.21798  0.71337  1.0000
  C   C150      1.0  0.28851  0.47998  0.74667  1.0000
  Fe  Fe25      1.0  0.25483  0.26753  0.62091  1.0000
  S   S49       1.0  0.26659  0.29723  0.59562  1.0000
  S   S50       1.0  0.21681  0.26768  0.63513  1.0000
  Fe  Fe26      1.0  0.30391  0.24227  0.62248  1.0000
  S   S51       1.0  0.31996  0.27013  0.59785  1.0000
  S   S52       1.0  0.32268  0.21370  0.64531  1.0000
  Fe  Fe27      1.0  0.29498  0.29496  0.61773  1.0000
  S   S53       1.0  0.30554  0.32647  0.62842  1.0000
  Fe  Fe28      1.0  0.29024  0.26977  0.57769  1.0000
  S   S54       1.0  0.29849  0.27499  0.53871  1.0000
  S   S55       1.0  0.28176  0.26710  0.64403  1.0000
  S   S56       1.0  0.27583  0.23991  0.60113  1.0000
  S   S57       1.0  0.49793  0.23644  0.72242  1.0000
  S   S58       1.0  0.25747  0.35481  0.72484  1.0000
  S   S59       1.0  0.30981  0.39143  0.72675  1.0000
  C   C151      1.0  0.22798  0.37237  0.67152  1.0000
  S   S60       1.0  0.44558  0.21224  0.70658  1.0000
  S   S61       1.0  0.43237  0.25853  0.73215  1.0000
  C   C152      1.0  0.20265  0.33650  0.67094  1.0000
  C   C153      1.0  0.33572  0.32762  0.70632  1.0000
  S   S62       1.0  0.18254  0.28652  0.73793  1.0000
  Fe  Fe29      1.0  0.41534  0.24037  0.71009  1.0000
  S   S63       1.0  0.39937  0.26013  0.67939  1.0000
  C   C154      1.0  0.22105  0.21560  0.69872  1.0000
  C   C155      1.0  0.22325  0.32895  0.63312  1.0000
  H   H150      1.0  0.22655  0.21227  0.64199  1.0000
  H   H151      1.0  0.20720  0.32248  0.63011  1.0000
  H   H152      1.0  0.23650  0.31373  0.63706  1.0000
  H   H153      1.0  0.36778  0.50219  0.74972  1.0000
  S   S64       1.0  0.13549  0.24736  0.73134  1.0000
  H   H154      1.0  0.39215  0.12142  0.74176  1.0000
  C   C156      1.0  0.19396  0.17162  0.72748  1.0000
  H   H155      1.0  0.38644  0.27354  0.74549  1.0000
  Fe  Fe30      1.0  0.29530  0.41951  0.74875  1.0000
  C   C157      1.0  0.33077  0.15268  0.69936  1.0000
  H   H156      1.0  0.26856  0.20678  0.64689  1.0000
  Fe  Fe31      1.0  0.46088  0.22849  0.73173  1.0000
  C   C158      1.0  0.34255  0.15595  0.71718  1.0000
  C   C159      1.0  0.34416  0.22609  0.65505  1.0000
  C   C160      1.0  0.35867  0.23947  0.63931  1.0000
  C   C161      1.0  0.37565  0.24971  0.64695  1.0000
  C   C162      1.0  0.37826  0.24662  0.67038  1.0000
  C   C163      1.0  0.36358  0.23341  0.68623  1.0000
  C   C164      1.0  0.34652  0.22315  0.67856  1.0000
  H   H157      1.0  0.35712  0.24158  0.62111  1.0000
  H   H158      1.0  0.38699  0.25984  0.63461  1.0000
  H   H159      1.0  0.36504  0.23149  0.70440  1.0000
  H   H160      1.0  0.33500  0.21319  0.69084  1.0000
  C   C165      1.0  0.29206  0.33414  0.65527  1.0000
  C   C166      1.0  0.29846  0.35302  0.66339  1.0000
  C   C167      1.0  0.28818  0.35927  0.68492  1.0000
  C   C168      1.0  0.27147  0.34664  0.69841  1.0000
  C   C169      1.0  0.26491  0.32788  0.69023  1.0000
  C   C170      1.0  0.27513  0.32170  0.66868  1.0000
  H   H161      1.0  0.31134  0.36289  0.65297  1.0000
  H   H162      1.0  0.29286  0.37415  0.69080  1.0000
  H   H163      1.0  0.25167  0.31831  0.70043  1.0000
  H   H164      1.0  0.26957  0.30759  0.66238  1.0000
  C   C171      1.0  0.28554  0.26047  0.52112  1.0000
  C   C172      1.0  0.27244  0.24250  0.53036  1.0000
  H   H165      1.0  0.47646  0.28558  0.71087  1.0000
  H   H166      1.0  0.40970  0.16543  0.68421  1.0000
  H   H167      1.0  0.18660  0.22780  0.65769  1.0000
  H   H168      1.0  0.39747  0.19082  0.69748  1.0000
  H   H169      1.0  0.26898  0.23800  0.54886  1.0000
  H   H170      1.0  0.25401  0.21610  0.52279  1.0000
  C   C173      1.0  0.32076  0.31129  0.71549  1.0000
  C   C174      1.0  0.19213  0.28237  0.70915  1.0000
  C   C175      1.0  0.17617  0.27967  0.69470  1.0000
  C   C176      1.0  0.18395  0.27543  0.67197  1.0000
  C   C177      1.0  0.20776  0.27377  0.66355  1.0000
  C   C178      1.0  0.22365  0.27698  0.67790  1.0000
  C   C179      1.0  0.21586  0.28137  0.70062  1.0000
  H   H171      1.0  0.15771  0.28134  0.70085  1.0000
  H   H172      1.0  0.17144  0.27338  0.66091  1.0000
  H   H173      1.0  0.24192  0.27598  0.67173  1.0000
  H   H174      1.0  0.22828  0.28357  0.71168  1.0000
  H   H175      1.0  0.19277  0.32241  0.67094  1.0000
  N   N13       1.0  0.34594  0.30937  0.67191  1.0000
  C   C180      1.0  0.33162  0.29301  0.68093  1.0000
  C   C181      1.0  0.34839  0.32629  0.68444  1.0000
  C   C182      1.0  0.31875  0.29377  0.70280  1.0000
  H   H176      1.0  0.34285  0.47047  0.74432  1.0000
  C   C183      1.0  0.24057  0.15060  0.72813  1.0000
  C   C184      1.0  0.35921  0.30862  0.64892  1.0000
  H   H177      1.0  0.32982  0.27950  0.67104  1.0000
  S   S65       1.0  0.26958  0.13721  0.72819  1.0000
  H   H178      1.0  0.37630  0.31441  0.72968  1.0000
  C   C185      1.0  0.26183  0.20924  0.68324  1.0000
  C   C186      1.0  0.24463  0.21242  0.70200  1.0000
  H   H179      1.0  0.35201  0.29758  0.63883  1.0000
  H   H180      1.0  0.35806  0.32622  0.63885  1.0000
  H   H181      1.0  0.37777  0.30157  0.65047  1.0000
  H   H182      1.0  0.35995  0.33908  0.67740  1.0000
  C   C187      1.0  0.36133  0.16793  0.67178  1.0000
  H   H183      1.0  0.22992  0.33931  0.61680  1.0000
  C   C188      1.0  0.19931  0.34795  0.69042  1.0000
  C   C189      1.0  0.25528  0.20918  0.66155  1.0000
  C   C190      1.0  0.21207  0.36601  0.69066  1.0000
  C   C191      1.0  0.19004  0.21739  0.67449  1.0000
  S   S66       1.0  0.42169  0.15693  0.73722  1.0000
  H   H184      1.0  0.28022  0.20675  0.68541  1.0000
  H   H185      1.0  0.18726  0.34245  0.70539  1.0000
  H   H186      1.0  0.19566  0.15693  0.69605  1.0000
  H   H187      1.0  0.21025  0.37460  0.70591  1.0000
  H   H188      1.0  0.23861  0.38581  0.67195  1.0000
  C   C192      1.0  0.34010  0.15884  0.67650  1.0000
  H   H189      1.0  0.17861  0.22616  0.68826  1.0000
  N   N14       1.0  0.37267  0.17127  0.68937  1.0000
  H   H190      1.0  0.30705  0.28109  0.70966  1.0000
  C   C193      1.0  0.36353  0.16547  0.71182  1.0000
  C   C194      1.0  0.23153  0.21218  0.65894  1.0000
  S   S67       1.0  0.16461  0.18402  0.72668  1.0000
  S   S68       1.0  0.39515  0.22045  0.73955  1.0000
  C   C195      1.0  0.39526  0.18014  0.68425  1.0000
  H   H191      1.0  0.33085  0.15684  0.66249  1.0000
  H   H192      1.0  0.37248  0.16826  0.72568  1.0000
  H   H193      1.0  0.31059  0.31243  0.73230  1.0000
  H   H194      1.0  0.24462  0.36436  0.63829  1.0000
  C   C196      1.0  0.22845  0.14884  0.70995  1.0000
  H   H195      1.0  0.36832  0.17285  0.65395  1.0000
  C   C197      1.0  0.33679  0.23126  0.50648  1.0000
  N   N15       1.0  0.21852  0.34261  0.65239  1.0000
  N   N16       1.0  0.21479  0.21542  0.67740  1.0000
  Fe  Fe32      1.0  0.42679  0.19364  0.73808  1.0000
  H   H196      1.0  0.18495  0.19986  0.67534  1.0000
  H   H197      1.0  0.39676  0.19143  0.66734  1.0000
  C   C198      1.0  0.23126  0.36019  0.65253  1.0000
  H   H198      1.0  0.49893  0.28781  0.72783  1.0000
  H   H199      1.0  0.33742  0.34130  0.71606  1.0000
  S   S69       1.0  0.29972  0.45603  0.73204  1.0000
  H   H200      1.0  0.24949  0.21214  0.71901  1.0000
  C   C199      1.0  0.37369  0.30924  0.74813  1.0000
  H   H201      1.0  0.23695  0.13912  0.69621  1.0000
  C   C200      1.0  0.20509  0.15894  0.70986  1.0000
  C   C201      1.0  0.44568  0.31694  0.74024  1.0000
  C   C202      1.0  0.48201  0.29652  0.72222  1.0000
  H   H202      1.0  0.32013  0.20042  0.51114  1.0000
  H   H203      1.0  0.30632  0.50348  0.72095  1.0000
  H   H204      1.0  0.48523  0.31348  0.71209  1.0000
  Fe  Fe33      1.0  0.15036  0.21256  0.74818  1.0000
  C   C203      1.0  0.26409  0.23005  0.51558  1.0000
  Fe  Fe34      1.0  0.27812  0.37478  0.74212  1.0000
  C   C204      1.0  0.29508  0.50170  0.73723  1.0000
  H   H205      1.0  0.31443  0.14538  0.70324  1.0000
  S   S70       1.0  0.36200  0.35512  0.75148  1.0000
  C   C205      1.0  0.22952  0.16324  0.74582  1.0000
  H   H206      1.0  0.33410  0.23308  0.52471  1.0000
  C   C206      1.0  0.20634  0.17404  0.74530  1.0000
  H   H207      1.0  0.50671  0.18569  0.74222  1.0000
  N   N17       1.0  0.46400  0.29947  0.74204  1.0000
  H   H208      1.0  0.33553  0.15104  0.73502  1.0000
  H   H209      1.0  0.44457  0.32886  0.72440  1.0000
  Fe  Fe35      1.0  0.15731  0.26120  0.75272  1.0000
  Fe  Fe36      1.0  0.28965  0.07287  0.79183  1.0000
  C   C207      1.0  0.38007  0.28615  0.75711  1.0000
  Fe  Fe37      1.0  0.25974  0.11273  0.81403  1.0000
  S   S71       1.0  0.27845  0.13968  0.79110  1.0000
  S   S72       1.0  0.23337  0.12553  0.84255  1.0000
  H   H210      1.0  0.21133  0.30999  0.76328  1.0000
  C   C208      1.0  0.38738  0.13063  0.75659  1.0000
  Fe  Fe38      1.0  0.31080  0.11551  0.79833  1.0000
  S   S73       1.0  0.33731  0.13210  0.81175  1.0000
  S   S74       1.0  0.25511  0.09381  0.78515  1.0000
  S   S75       1.0  0.29205  0.08957  0.82287  1.0000
  Fe  Fe39      1.0  0.26396  0.21820  0.90706  1.0000
  S   S76       1.0  0.22821  0.22650  0.92641  1.0000
  S   S77       1.0  0.28261  0.18470  0.89602  1.0000
  Fe  Fe40      1.0  0.27513  0.26709  0.90232  1.0000
  S   S78       1.0  0.24070  0.27988  0.92131  1.0000
  S   S79       1.0  0.30303  0.28897  0.88644  1.0000
  Fe  Fe41      1.0  0.24634  0.24708  0.94577  1.0000
  H   H211      1.0  0.26597  0.13085  0.91752  1.0000
  Fe  Fe42      1.0  0.22576  0.25863  0.90038  1.0000
  S   S80       1.0  0.19624  0.27646  0.88108  1.0000
  S   S81       1.0  0.28233  0.23602  0.92851  1.0000
  S   S82       1.0  0.25985  0.24847  0.87940  1.0000
  H   H212      1.0  0.41493  0.30547  0.79322  1.0000
  S   S83       1.0  0.12918  0.26426  0.78278  1.0000
  H   H213      1.0  0.36815  0.29089  0.81432  1.0000
  C   C209      1.0  0.05488  0.22055  0.76691  1.0000
  C   C210      1.0  0.26605  0.49727  0.77919  1.0000
  C   C211      1.0  0.19323  0.12463  0.77792  1.0000
  Fe  Fe43      1.0  0.14346  0.22777  0.79532  1.0000
  S   S84       1.0  0.14837  0.21237  0.83156  1.0000
  C   C212      1.0  0.23487  0.32858  0.80504  1.0000
  S   S85       1.0  0.12090  0.21100  0.77728  1.0000
  H   H214      1.0  0.40353  0.17364  0.78050  1.0000
  S   S86       1.0  0.17388  0.22637  0.76754  1.0000
  C   C213      1.0  0.42794  0.31957  0.75872  1.0000
  S   S87       1.0  0.29499  0.35406  0.77167  1.0000
  Fe  Fe44      1.0  0.10836  0.24744  0.76258  1.0000
  H   H215      1.0  0.04188  0.18756  0.77268  1.0000
  Fe  Fe45      1.0  0.28136  0.38494  0.78984  1.0000
  S   S88       1.0  0.26179  0.37918  0.82532  1.0000
  S   S89       1.0  0.31362  0.40238  0.77903  1.0000
  H   H216      1.0  0.08705  0.19887  0.83006  1.0000
  S   S90       1.0  0.29838  0.03374  0.79552  1.0000
  H   H217      1.0  0.27266  0.09969  0.92465  1.0000
  H   H218      1.0  0.28674  0.24852  0.97647  1.0000
  H   H219      1.0  0.32955  0.09284  0.85195  1.0000
  C   C214      1.0  0.25604  0.30904  0.96200  1.0000
  Fe  Fe46      1.0  0.27727  0.11891  0.76302  1.0000
  S   S91       1.0  0.39351  0.25258  0.79160  1.0000
  C   C215      1.0  0.04089  0.23989  0.82286  1.0000
  H   H220      1.0  0.07892  0.25271  0.84094  1.0000
  C   C216      1.0  0.39989  0.14831  0.75915  1.0000
  C   C217      1.0  0.33253  0.12969  0.88983  1.0000
  N   N18       1.0  0.29570  0.11479  0.89728  1.0000
  C   C218      1.0  0.29159  0.31321  0.86829  1.0000
  C   C219      1.0  0.26759  0.32092  0.87094  1.0000
  C   C220      1.0  0.25866  0.34144  0.85796  1.0000
  C   C221      1.0  0.27352  0.35368  0.84140  1.0000
  C   C222      1.0  0.29741  0.34547  0.83796  1.0000
  C   C223      1.0  0.30651  0.32546  0.85174  1.0000
  H   H221      1.0  0.25591  0.31146  0.88339  1.0000
  H   H222      1.0  0.24016  0.34769  0.86052  1.0000
  H   H223      1.0  0.30894  0.35489  0.82512  1.0000
  H   H224      1.0  0.32509  0.31952  0.84953  1.0000
  C   C224      1.0  0.18300  0.25829  0.86772  1.0000
  C   C225      1.0  0.16743  0.26827  0.85194  1.0000
  C   C226      1.0  0.15705  0.25419  0.84055  1.0000
  C   C227      1.0  0.16180  0.23008  0.84530  1.0000
  C   C228      1.0  0.17730  0.22005  0.86114  1.0000
  C   C229      1.0  0.18816  0.23416  0.87212  1.0000
  H   H225      1.0  0.16338  0.28693  0.84856  1.0000
  H   H226      1.0  0.14490  0.26203  0.82857  1.0000
  H   H227      1.0  0.18104  0.20139  0.86484  1.0000
  H   H228      1.0  0.20023  0.22637  0.88423  1.0000
  C   C230      1.0  0.36194  0.13736  0.79189  1.0000
  H   H229      1.0  0.31195  0.30625  0.93786  1.0000
  H   H230      1.0  0.25476  0.49550  0.79545  1.0000
  C   C231      1.0  0.32443  0.10256  0.86648  1.0000
  H   H231      1.0  0.13973  0.15625  0.77479  1.0000
  C   C232      1.0  0.37522  0.15418  0.79506  1.0000
  C   C233      1.0  0.02532  0.25423  0.76675  1.0000
  C   C234      1.0  0.04896  0.24460  0.76513  1.0000
  H   H232      1.0  0.37083  0.16301  0.81015  1.0000
  H   H233      1.0  0.49409  0.22230  0.77238  1.0000
  C   C235      1.0  0.36912  0.29583  0.79585  1.0000
  C   C236      1.0  0.23130  0.33794  0.93981  1.0000
  H   H234      1.0  0.35814  0.11220  0.77042  1.0000
  H   H235      1.0  0.25752  0.04524  0.77082  1.0000
  C   C237      1.0  0.31059  0.12825  0.90281  1.0000
  C   C238      1.0  0.05211  0.19208  0.82923  1.0000
  H   H236      1.0  0.35518  0.33168  0.79834  1.0000
  H   H237      1.0  0.44748  0.27302  0.79573  1.0000
  N   N19       1.0  0.27473  0.31231  0.94548  1.0000
  C   C239      1.0  0.24613  0.14416  0.85596  1.0000
  C   C240      1.0  0.27016  0.14493  0.85115  1.0000
  C   C241      1.0  0.28090  0.15841  0.86276  1.0000
  C   C242      1.0  0.26773  0.17130  0.87929  1.0000
  C   C243      1.0  0.24348  0.17144  0.88354  1.0000
  C   C244      1.0  0.23268  0.15769  0.87197  1.0000
  H   H238      1.0  0.28082  0.13447  0.83911  1.0000
  H   H239      1.0  0.29964  0.15820  0.85938  1.0000
  H   H240      1.0  0.23318  0.18138  0.89634  1.0000
  H   H241      1.0  0.21403  0.15727  0.87572  1.0000
  H   H242      1.0  0.20459  0.11041  0.77072  1.0000
  C   C245      1.0  0.36185  0.31891  0.78682  1.0000
  N   N20       1.0  0.32418  0.22595  0.83760  1.0000
  C   C246      1.0  0.34187  0.22971  0.82009  1.0000
  C   C247      1.0  0.31007  0.20957  0.83719  1.0000
  C   C248      1.0  0.34636  0.21635  0.80194  1.0000
  C   C249      1.0  0.31410  0.19582  0.81933  1.0000
  C   C250      1.0  0.33237  0.19928  0.80163  1.0000
  C   C251      1.0  0.31961  0.24037  0.85627  1.0000
  H   H243      1.0  0.35270  0.24306  0.82019  1.0000
  H   H244      1.0  0.29568  0.20698  0.85076  1.0000
  H   H245      1.0  0.36072  0.21916  0.78833  1.0000
  H   H246      1.0  0.30330  0.18240  0.81929  1.0000
  H   H247      1.0  0.33578  0.18855  0.78783  1.0000
  H   H248      1.0  0.33591  0.24602  0.85969  1.0000
  H   H249      1.0  0.30722  0.25613  0.85158  1.0000
  H   H250      1.0  0.31214  0.23069  0.87269  1.0000
  H   H251      1.0  0.21472  0.27958  0.83308  1.0000
  H   H252      1.0  0.19793  0.18360  0.75902  1.0000
  C   C252      1.0  0.19950  0.27434  0.79390  1.0000
  C   C253      1.0  0.42877  0.30387  0.77890  1.0000
  H   H253      1.0  0.28681  0.33022  0.91272  1.0000
  H   H254      1.0  0.26879  0.46104  0.77508  1.0000
  H   H255      1.0  0.03649  0.25857  0.81957  1.0000
  C   C254      1.0  0.02336  0.22590  0.82403  1.0000
  H   H256      1.0  0.24372  0.34259  0.80789  1.0000
  H   H257      1.0  0.30040  0.29374  0.96609  1.0000
  H   H258      1.0  0.25941  0.11239  0.89894  1.0000
  H   H259      1.0  0.18092  0.28135  0.79238  1.0000
  H   H260      1.0  0.07991  0.25962  0.80994  1.0000
  C   C255      1.0  0.27216  0.32807  0.92614  1.0000
  C   C256      1.0  0.36807  0.12550  0.77271  1.0000
  N   N21       1.0  0.18722  0.15523  0.80159  1.0000
  C   C257      1.0  0.16512  0.16174  0.79580  1.0000
  C   C258      1.0  0.20100  0.13654  0.79338  1.0000
  H   H261      1.0  0.16517  0.12332  0.75849  1.0000
  C   C259      1.0  0.30256  0.10162  0.87971  1.0000
  C   C260      1.0  0.37919  0.27969  0.78091  1.0000
  C   C261      1.0  0.19598  0.16826  0.81688  1.0000
  H   H262      1.0  0.15405  0.17620  0.80277  1.0000
  H   H263      1.0  0.21837  0.13122  0.79820  1.0000
  H   H264      1.0  0.23474  0.31114  0.83994  1.0000
  H   H265      1.0  0.29076  0.09097  0.87530  1.0000
  H   H266      1.0  0.21538  0.16619  0.81456  1.0000
  H   H267      1.0  0.18999  0.18710  0.81310  1.0000
  H   H268      1.0  0.18977  0.16214  0.83516  1.0000
  C   C262      1.0  0.32246  0.49325  0.79070  1.0000
  C   C263      1.0  0.15681  0.15032  0.78030  1.0000
  H   H269      1.0  0.20000  0.25969  0.80822  1.0000
  H   H270      1.0  0.02067  0.27285  0.76522  1.0000
  C   C264      1.0  0.29718  0.29766  0.94775  1.0000
  C   C265      1.0  0.33935  0.11690  0.87141  1.0000
  C   C266      1.0  0.36499  0.32575  0.76294  1.0000
  N   N22       1.0  0.06344  0.23017  0.82498  1.0000
  H   H271      1.0  0.24847  0.35344  0.90752  1.0000
  C   C267      1.0  0.34312  0.46717  0.76331  1.0000
  C   C268      1.0  0.22993  0.31096  0.82297  1.0000
  H   H272      1.0  0.35596  0.11839  0.86062  1.0000
  H   H273      1.0  0.30512  0.13880  0.91664  1.0000
  C   C269      1.0  0.26299  0.02676  0.77211  1.0000
  S   S92       1.0  0.44442  0.20754  0.76331  1.0000
  N   N23       1.0  0.21207  0.29280  0.79774  1.0000
  C   C270      1.0  0.21666  0.31009  0.78008  1.0000
  C   C271      1.0  0.21847  0.29311  0.81899  1.0000
  C   C272      1.0  0.22823  0.32817  0.78343  1.0000
  C   C273      1.0  0.39380  0.16009  0.77838  1.0000
  S   S93       1.0  0.26185  0.40448  0.76131  1.0000
  C   C274      1.0  0.01359  0.21577  0.77326  1.0000
  H   H274      1.0  0.31073  0.48055  0.79760  1.0000
  C   C275      1.0  0.27234  0.11429  0.91034  1.0000
  S   S94       1.0  0.31174  0.09689  0.76777  1.0000
  S   S95       1.0  0.23617  0.24903  0.98388  1.0000
  H   H275      1.0  0.34386  0.14115  0.89364  1.0000
  H   H276      1.0  0.21922  0.31863  0.97237  1.0000
  C   C276      1.0  0.27398  0.47775  0.76771  1.0000
  H   H277      1.0  0.41337  0.33341  0.75726  1.0000
  H   H278      1.0  0.29720  0.28116  0.94087  1.0000
  H   H279      1.0  0.20738  0.26727  0.77772  1.0000
  C   C277      1.0  0.28033  0.25155  0.99399  1.0000
  H   H280      1.0  0.09924  0.23573  0.82208  1.0000
  C   C278      1.0  0.06917  0.20658  0.82833  1.0000
  H   H281      1.0  0.22472  0.00872  0.82050  1.0000
  C   C279      1.0  0.08126  0.24527  0.82450  1.0000
  H   H282      1.0  0.25966  0.01997  0.83300  1.0000
  H   H283      1.0  0.01577  0.19091  0.82689  1.0000
  S   S96       1.0  0.07054  0.26299  0.76252  1.0000
  C   C280      1.0  0.25047  0.34121  0.92307  1.0000
  C   C281      1.0  0.17109  0.13180  0.77115  1.0000
  C   C282      1.0  0.03723  0.20619  0.77091  1.0000
  H   H284      1.0  0.21426  0.34762  0.93739  1.0000
  H   H285      1.0  0.25788  0.29621  0.97708  1.0000
  C   C283      1.0  0.23407  0.32177  0.95944  1.0000
  H   H286      1.0  0.36002  0.45688  0.76712  1.0000
  H   H287      1.0  0.07301  0.21299  0.76540  1.0000
  H   H288      1.0  0.05674  0.17340  0.83124  1.0000
  H   H289      1.0  0.23890  0.16483  0.75980  1.0000
  Fe  Fe47      1.0  0.41429  0.23642  0.76164  1.0000
  H   H290      1.0  0.32895  0.45645  0.77048  1.0000
  C   C284      1.0  0.44716  0.28575  0.78037  1.0000
  Fe  Fe48      1.0  0.32542  0.37313  0.75800  1.0000
  C   C285      1.0  0.02908  0.20186  0.82706  1.0000
  H   H291      1.0  0.23194  0.34185  0.76941  1.0000
  C   C286      1.0  0.46479  0.28384  0.76169  1.0000
  C   C287      1.0  0.24990  0.01255  0.76365  1.0000
  C   C288      1.0  0.28295  0.01696  0.78236  1.0000
  N   N24       1.0  0.33971  0.48915  0.77285  1.0000
  H   H292      1.0  0.47885  0.26953  0.76282  1.0000
  H   H293      1.0  0.23447  0.02022  0.75573  1.0000
  C   C289      1.0  0.25645  0.25242  0.00189  1.0000
  S   S97       1.0  0.23421  0.90857  0.22308  1.0000
  C   C290      1.0  0.36276  0.62044  0.21284  1.0000
  H   H294      1.0  0.38764  0.62876  0.23262  1.0000
  H   H295      1.0  0.21270  0.87812  0.19559  1.0000
  C   C291      1.0  0.19479  0.84058  0.19077  1.0000
  Fe  Fe49      1.0  0.27056  0.88974  0.22183  1.0000
  S   S98       1.0  0.29445  0.89131  0.18835  1.0000
  C   C292      1.0  0.27906  0.95183  0.20454  1.0000
  Fe  Fe50      1.0  0.28632  0.78240  0.13351  1.0000
  S   S99       1.0  0.24896  0.79169  0.12754  1.0000
  S   S100      1.0  0.31103  0.80893  0.12815  1.0000
  Fe  Fe51      1.0  0.28136  0.73189  0.14897  1.0000
  S   S101      1.0  0.24321  0.73680  0.14490  1.0000
  S   S102      1.0  0.30226  0.69960  0.16481  1.0000
  Fe  Fe52      1.0  0.25407  0.75892  0.11144  1.0000
  S   S103      1.0  0.23498  0.75942  0.08071  1.0000
  Fe  Fe53      1.0  0.24136  0.76907  0.16106  1.0000
  S   S104      1.0  0.21527  0.78335  0.18898  1.0000
  S   S105      1.0  0.29255  0.75143  0.11435  1.0000
  S   S106      1.0  0.27849  0.76226  0.16818  1.0000
  C   C293      1.0  0.31240  0.96684  0.21321  1.0000
  C   C294      1.0  0.24175  0.85100  0.14134  1.0000
  H   H296      1.0  0.36133  0.60352  0.22286  1.0000
  S   S107      1.0  0.24086  0.62287  0.21457  1.0000
  C   C295      1.0  0.36266  0.68929  0.17884  1.0000
  C   C296      1.0  0.34576  0.82838  0.20148  1.0000
  H   H297      1.0  0.26348  0.87826  0.13518  1.0000
  H   H298      1.0  0.34025  0.79634  0.23791  1.0000
  H   H299      1.0  0.19571  0.72718  0.02544  1.0000
  H   H300      1.0  0.18093  0.85397  0.19737  1.0000
  C   C297      1.0  0.22377  0.84125  0.15618  1.0000
  C   C298      1.0  0.28529  0.67778  0.17746  1.0000
  C   C299      1.0  0.29239  0.66274  0.19655  1.0000
  C   C300      1.0  0.27935  0.64512  0.20708  1.0000
  C   C301      1.0  0.25860  0.64293  0.19912  1.0000
  C   C302      1.0  0.25135  0.65793  0.17996  1.0000
  C   C303      1.0  0.26479  0.67532  0.16903  1.0000
  H   H301      1.0  0.30770  0.66505  0.20362  1.0000
  C   C304      1.0  0.24511  0.76680  0.01099  1.0000
  H   H302      1.0  0.23525  0.65631  0.17376  1.0000
  H   H303      1.0  0.25933  0.68671  0.15410  1.0000
  C   C305      1.0  0.19651  0.76492  0.20571  1.0000
  C   C306      1.0  0.19349  0.74410  0.19872  1.0000
  C   C307      1.0  0.17876  0.72948  0.21283  1.0000
  C   C308      1.0  0.16708  0.73568  0.23390  1.0000
  N   N25       1.0  0.22414  0.54008  0.23641  1.0000
  C   C309      1.0  0.18473  0.77113  0.22671  1.0000
  H   H304      1.0  0.20235  0.73934  0.18241  1.0000
  H   H305      1.0  0.17645  0.71335  0.20744  1.0000
  C   C310      1.0  0.35036  0.65083  0.18312  1.0000
  H   H306      1.0  0.18719  0.78714  0.23223  1.0000
  C   C311      1.0  0.23535  0.76833  0.03398  1.0000
  C   C312      1.0  0.24907  0.76146  0.05203  1.0000
  C   C313      1.0  0.27292  0.75382  0.04684  1.0000
  C   C314      1.0  0.28264  0.75202  0.02380  1.0000
  H   H307      1.0  0.21691  0.77432  0.03786  1.0000
  H   H308      1.0  0.28365  0.74842  0.06062  1.0000
  C   C315      1.0  0.27590  0.99106  0.21289  1.0000
  N   N26       1.0  0.04746  0.71707  0.24093  1.0000
  C   C316      1.0  0.37791  0.65705  0.20643  1.0000
  H   H309      1.0  0.31312  0.93191  0.20555  1.0000
  C   C317      1.0  0.29869  0.86754  0.17277  1.0000
  C   C318      1.0  0.31360  0.86875  0.15195  1.0000
  C   C319      1.0  0.31701  0.85070  0.13849  1.0000
  C   C320      1.0  0.30529  0.83136  0.14549  1.0000
  C   C321      1.0  0.29045  0.82986  0.16646  1.0000
  C   C322      1.0  0.28728  0.84791  0.18021  1.0000
  H   H310      1.0  0.32255  0.88378  0.14613  1.0000
  H   H311      1.0  0.32869  0.85183  0.12244  1.0000
  H   H312      1.0  0.28152  0.81482  0.17212  1.0000
  H   H313      1.0  0.27569  0.84681  0.19624  1.0000
  C   C323      1.0  0.08884  0.71289  0.24231  1.0000
  H   H314      1.0  0.25042  0.84281  0.12654  1.0000
  H   H315      1.0  0.21841  0.82549  0.15266  1.0000
  N   N27       1.0  0.21321  0.85128  0.17511  1.0000
  C   C324      1.0  0.22058  0.87061  0.18019  1.0000
  H   H316      1.0  0.27126  0.93774  0.20035  1.0000
  H   H317      1.0  0.20243  0.82975  0.20566  1.0000
  C   C325      1.0  0.02703  0.70719  0.23718  1.0000
  C   C326      1.0  0.30264  0.94860  0.20747  1.0000
  H   H318      1.0  0.24694  0.97546  0.20608  1.0000
  C   C327      1.0  0.21328  0.71983  0.02878  1.0000
  H   H319      1.0  0.33087  0.83756  0.21208  1.0000
  C   C328      1.0  0.23855  0.88078  0.16578  1.0000
  C   C329      1.0  0.24489  0.71428  0.21168  1.0000
  C   C330      1.0  0.34924  0.62846  0.19495  1.0000
  H   H320      1.0  0.18636  0.82925  0.18211  1.0000
  H   H321      1.0  0.16587  0.82535  0.24308  1.0000
  H   H322      1.0  0.34722  0.83833  0.18389  1.0000
  H   H323      1.0  0.24478  0.89575  0.17016  1.0000
  C   C331      1.0  0.37751  0.63464  0.21836  1.0000
  H   H324      1.0  0.02797  0.74940  0.24845  1.0000
  C   C332      1.0  0.33133  0.67507  0.24285  1.0000
  C   C333      1.0  0.26867  0.75808  0.00583  1.0000
  H   H325      1.0  0.24348  0.73342  0.20701  1.0000
  C   C334      1.0  0.17013  0.75650  0.24085  1.0000
  C   C335      1.0  0.24905  0.87097  0.14614  1.0000
  C   C336      1.0  0.26552  0.97311  0.20741  1.0000
  H   H326      1.0  0.36216  0.82844  0.20890  1.0000
  H   H327      1.0  0.37914  0.69646  0.17896  1.0000
  N   N28       1.0  0.23039  0.71531  0.01093  1.0000
  C   C337      1.0  0.32479  0.65317  0.25153  1.0000
  H   H328      1.0  0.33532  0.76786  0.16475  1.0000
  H   H329      1.0  0.25064  0.56191  0.22915  1.0000
  H   H330      1.0  0.34820  0.69962  0.18882  1.0000
  S   S108      1.0  0.40866  0.74574  0.24178  1.0000
  C   C338      1.0  0.33658  0.77383  0.18093  1.0000
  H   H331      1.0  0.33735  0.61775  0.19079  1.0000
  H   H332      1.0  0.38837  0.66846  0.21178  1.0000
  C   C339      1.0  0.33380  0.75912  0.20174  1.0000
  C   C340      1.0  0.04508  0.73918  0.24624  1.0000
  H   H333      1.0  0.07078  0.68630  0.23513  1.0000
  H   H334      1.0  0.33919  0.65726  0.16974  1.0000
  H   H335      1.0  0.28535  0.63326  0.22146  1.0000
  N   N29       1.0  0.34184  0.80444  0.20136  1.0000
  C   C341      1.0  0.34090  0.79648  0.18104  1.0000
  C   C342      1.0  0.33919  0.79013  0.22183  1.0000
  H   H336      1.0  0.23834  0.70747  0.19773  1.0000
  C   C343      1.0  0.33525  0.76725  0.22233  1.0000
  S   S109      1.0  0.35999  0.70844  0.23703  1.0000
  H   H337      1.0  0.34337  0.80764  0.16474  1.0000
  H   H338      1.0  0.20528  0.72094  0.06553  1.0000
  C   C344      1.0  0.25841  0.70240  0.03766  1.0000
  H   H339      1.0  0.26360  0.70720  0.21214  1.0000
  C   C345      1.0  0.23195  0.56254  0.22715  1.0000
  C   C346      1.0  0.22703  0.68518  0.24005  1.0000
  H   H340      1.0  0.23326  0.67248  0.22834  1.0000
  C   C347      1.0  0.21846  0.71606  0.05151  1.0000
  H   H341      1.0  0.22167  0.57677  0.23620  1.0000
  H   H342      1.0  0.30092  0.74534  0.01995  1.0000
  H   H343      1.0  0.23831  0.52494  0.20595  1.0000
  N   N30       1.0  0.36424  0.66494  0.18922  1.0000
  C   C348      1.0  0.22347  0.72361  0.24885  1.0000
  H   H344      1.0  0.33067  0.74141  0.20196  1.0000
  H   H345      1.0  0.35894  0.69141  0.16069  1.0000
  H   H346      1.0  0.10192  0.74250  0.25015  1.0000
  Fe  Fe54      1.0  0.25325  0.61115  0.24911  1.0000
  C   C349      1.0  0.35092  0.68185  0.24961  1.0000
  H   H347      1.0  0.32146  0.68660  0.23060  1.0000
  H   H348      1.0  0.22662  0.74149  0.24398  1.0000
  H   H349      1.0  0.02903  0.70288  0.21934  1.0000
  H   H350      1.0  0.24566  0.70556  0.07332  1.0000
  H   H351      1.0  0.22985  0.56725  0.20858  1.0000
  C   C350      1.0  0.06895  0.70390  0.23906  1.0000
  S   S110      1.0  0.27912  0.90532  0.25132  1.0000
  C   C351      1.0  0.24119  0.70736  0.05591  1.0000
  N   N31       1.0  0.23126  0.70764  0.23397  1.0000
  H   H352      1.0  0.33349  0.75586  0.23858  1.0000
  S   S111      1.0  0.25995  0.85746  0.24307  1.0000
  Fe  Fe55      1.0  0.22411  0.87754  0.24716  1.0000
  S   S112      1.0  0.19343  0.86194  0.24069  1.0000
  C   C352      1.0  0.25266  0.70647  0.01513  1.0000
  H   H353      1.0  0.33070  0.96413  0.21570  1.0000
  C   C353      1.0  0.08660  0.73542  0.24759  1.0000
  H   H354      1.0  0.31025  0.64769  0.24557  1.0000
  H   H355      1.0  0.10593  0.70247  0.24090  1.0000
  H   H356      1.0  0.35325  0.84899  0.24313  1.0000
  C   C354      1.0  0.06459  0.74863  0.24976  1.0000
  H   H357      1.0  0.27634  0.69656  0.04080  1.0000
  N   N32       1.0  0.29905  0.98774  0.21579  1.0000
  C   C355      1.0  0.22896  0.52238  0.22321  1.0000
  H   H358      1.0  0.02483  0.69127  0.24968  1.0000
  H   H359      1.0  0.31858  0.00090  0.23718  1.0000
  S   S113      1.0  0.14905  0.71717  0.25165  1.0000
  H   H360      1.0  0.01055  0.71933  0.23992  1.0000
  S   S114      1.0  0.26685  0.63545  0.26778  1.0000
  H   H361      1.0  0.12110  0.84348  0.32513  1.0000
  S   S115      1.0  0.28355  0.85080  0.30041  1.0000
  S   S116      1.0  0.22845  0.89166  0.27905  1.0000
  Fe  Fe56      1.0  0.13378  0.76747  0.31560  1.0000
  S   S117      1.0  0.15529  0.73312  0.31215  1.0000
  S   S118      1.0  0.15098  0.79547  0.32510  1.0000
  Fe  Fe57      1.0  0.08839  0.74982  0.31131  1.0000
  S   S119      1.0  0.10622  0.71356  0.30840  1.0000
  S   S120      1.0  0.05062  0.76449  0.30847  1.0000
  Fe  Fe58      1.0  0.12616  0.71896  0.33644  1.0000
  S   S121      1.0  0.13834  0.69305  0.36566  1.0000
  Fe  Fe59      1.0  0.13367  0.73122  0.28457  1.0000
  S   S122      1.0  0.10580  0.75359  0.34164  1.0000
  S   S123      1.0  0.11463  0.76725  0.28552  1.0000
  Fe  Fe60      1.0  0.21585  0.72744  0.43748  1.0000
  S   S124      1.0  0.22506  0.69292  0.45814  1.0000
  S   S125      1.0  0.17891  0.74374  0.43452  1.0000
  Fe  Fe61      1.0  0.26620  0.73431  0.42187  1.0000
  S   S126      1.0  0.28004  0.70042  0.44137  1.0000
  S   S127      1.0  0.28559  0.75926  0.39637  1.0000
  Fe  Fe62      1.0  0.25199  0.68628  0.42794  1.0000
  S   S128      1.0  0.26001  0.65206  0.41418  1.0000
  Fe  Fe63      1.0  0.25197  0.71016  0.47007  1.0000
  S   S129      1.0  0.24045  0.71937  0.40613  1.0000
  S   S130      1.0  0.24044  0.74547  0.45165  1.0000
  Fe  Fe64      1.0  0.24500  0.62032  0.29896  1.0000
  S   S131      1.0  0.27301  0.59160  0.30923  1.0000
  S   S132      1.0  0.22344  0.64630  0.32046  1.0000
  Fe  Fe65      1.0  0.29387  0.60520  0.27630  1.0000
  Fe  Fe66      1.0  0.25855  0.57098  0.28716  1.0000
  S   S133      1.0  0.25006  0.53501  0.30136  1.0000
  N   N33       1.0  0.45770  0.70689  0.33001  1.0000
  H   H362      1.0  0.24845  0.75103  0.50059  1.0000
  C   C356      1.0  0.44506  0.72541  0.33958  1.0000
  S   S134      1.0  0.41540  0.75319  0.29457  1.0000
  C   C357      1.0  0.18803  0.75884  0.49276  1.0000
  H   H363      1.0  0.14849  0.64057  0.35862  1.0000
  S   S135      1.0  0.40509  0.70279  0.28363  1.0000
  C   C358      1.0  0.16778  0.63766  0.35405  1.0000
  Fe  Fe67      1.0  0.38856  0.72906  0.30675  1.0000
  S   S136      1.0  0.38021  0.71448  0.34395  1.0000
  H   H364      1.0  0.06320  0.78675  0.34649  1.0000
  H   H365      1.0  0.47018  0.75759  0.27473  1.0000
  S   S137      1.0  0.36316  0.74667  0.28259  1.0000
  C   C359      1.0  0.24483  0.97786  0.26385  1.0000
  Fe  Fe68      1.0  0.26549  0.87421  0.27292  1.0000
  H   H366      1.0  0.23917  0.99615  0.31600  1.0000
  C   C360      1.0  0.35562  0.81929  0.26935  1.0000
  S   S138      1.0  0.22860  0.59869  0.27955  1.0000
  H   H367      1.0  0.02879  0.69073  0.29551  1.0000
  H   H368      1.0  0.45180  0.67174  0.33701  1.0000
  C   C361      1.0  0.18250  0.84291  0.26411  1.0000
  C   C362      1.0  0.05619  0.80530  0.34228  1.0000
  C   C363      1.0  0.23398  0.78118  0.36873  1.0000
  H   H369      1.0  0.21119  0.66040  0.26620  1.0000
  C   C364      1.0  0.48141  0.70569  0.32453  1.0000
  S   S139      1.0  0.38224  0.80653  0.25567  1.0000
  C   C365      1.0  0.25146  0.79378  0.35663  1.0000
  C   C366      1.0  0.31200  0.74693  0.38194  1.0000
  C   C367      1.0  0.32488  0.72708  0.39230  1.0000
  C   C368      1.0  0.34613  0.71764  0.38072  1.0000
  C   C369      1.0  0.35427  0.72765  0.35850  1.0000
  C   C370      1.0  0.34138  0.74747  0.34808  1.0000
  C   C371      1.0  0.32038  0.75724  0.35989  1.0000
  H   H370      1.0  0.31880  0.71936  0.40949  1.0000
  H   H371      1.0  0.35624  0.70251  0.38899  1.0000
  H   H372      1.0  0.34768  0.75551  0.33109  1.0000
  H   H373      1.0  0.31061  0.77276  0.35190  1.0000
  C   C372      1.0  0.25076  0.65183  0.38740  1.0000
  C   C373      1.0  0.23248  0.66800  0.37964  1.0000
  C   C374      1.0  0.22464  0.66673  0.35863  1.0000
  C   C375      1.0  0.23528  0.64945  0.34521  1.0000
  C   C376      1.0  0.25413  0.63387  0.35260  1.0000
  C   C377      1.0  0.26170  0.63490  0.37375  1.0000
  H   H374      1.0  0.22393  0.68103  0.39014  1.0000
  H   H375      1.0  0.21001  0.67884  0.35301  1.0000
  H   H376      1.0  0.26249  0.62054  0.34246  1.0000
  H   H377      1.0  0.27594  0.62239  0.37962  1.0000
  C   C378      1.0  0.09068  0.82563  0.33400  1.0000
  C   C379      1.0  0.14933  0.70737  0.38486  1.0000
  C   C380      1.0  0.13721  0.72804  0.39192  1.0000
  C   C381      1.0  0.14611  0.73913  0.40743  1.0000
  C   C382      1.0  0.16713  0.72955  0.41591  1.0000
  C   C383      1.0  0.17916  0.70890  0.40892  1.0000
  C   C384      1.0  0.17038  0.69796  0.39331  1.0000
  H   H378      1.0  0.12075  0.73524  0.38583  1.0000
  H   H379      1.0  0.13671  0.75510  0.41283  1.0000
  H   H380      1.0  0.19523  0.70129  0.41562  1.0000
  H   H381      1.0  0.18022  0.68251  0.38743  1.0000
  C   C385      1.0  0.03124  0.74630  0.30328  1.0000
  C   C386      1.0  0.03843  0.72270  0.30214  1.0000
  C   C387      1.0  0.15993  0.81128  0.27900  1.0000
  H   H382      1.0  0.44593  0.75857  0.35037  1.0000
  H   H383      1.0  0.05587  0.71507  0.30537  1.0000
  C   C388      1.0  0.31146  0.83888  0.28873  1.0000
  H   H384      1.0  0.45048  0.68504  0.30742  1.0000
  H   H385      1.0  0.05939  0.81157  0.29628  1.0000
  C   C389      1.0  0.34469  0.80838  0.28995  1.0000
  C   C390      1.0  0.32273  0.81832  0.29978  1.0000
  H   H386      1.0  0.35327  0.79250  0.29851  1.0000
  H   H387      1.0  0.31441  0.80997  0.31582  1.0000
  C   C391      1.0  0.50627  0.75774  0.27911  1.0000
  H   H388      1.0  0.06255  0.76589  0.25467  1.0000
  H   H389      1.0  0.27357  0.95163  0.27186  1.0000
  C   C392      1.0  0.16357  0.81310  0.30142  1.0000
  C   C393      1.0  0.17680  0.82968  0.30517  1.0000
  C   C394      1.0  0.18657  0.84434  0.28649  1.0000
  H   H390      1.0  0.18081  0.76896  0.36341  1.0000
  H   H391      1.0  0.14977  0.79851  0.27600  1.0000
  H   H392      1.0  0.17948  0.83128  0.32252  1.0000
  H   H393      1.0  0.19673  0.85713  0.28948  1.0000
  H   H394      1.0  0.42676  0.69175  0.32936  1.0000
  C   C395      1.0  0.08909  0.83003  0.28693  1.0000
  Fe  Fe69      1.0  0.39135  0.76868  0.26814  1.0000
  C   C396      1.0  0.19744  0.76481  0.37119  1.0000
  H   H395      1.0  0.26358  0.81287  0.32417  1.0000
  Fe  Fe70      1.0  0.38211  0.72255  0.25821  1.0000
  C   C397      1.0  0.25963  0.51199  0.28496  1.0000
  C   C398      1.0  0.49114  0.72511  0.26887  1.0000
  S   S140      1.0  0.33146  0.60962  0.27606  1.0000
  C   C399      1.0  0.25011  0.80308  0.33366  1.0000
  H   H396      1.0  0.17698  0.64251  0.42891  1.0000
  H   H397      1.0  0.19328  0.76888  0.38920  1.0000
  H   H398      1.0  0.17350  0.65434  0.34532  1.0000
  C   C400      1.0  0.45612  0.74365  0.34335  1.0000
  H   H399      1.0  0.23532  0.77386  0.38657  1.0000
  C   C401      1.0  0.20012  0.61520  0.37335  1.0000
  C   C402      1.0  0.21287  0.60975  0.39214  1.0000
  C   C403      1.0  0.20463  0.61972  0.41221  1.0000
  H   H400      1.0  0.20736  0.60843  0.35736  1.0000
  H   H401      1.0  0.22961  0.59876  0.39073  1.0000
  H   H402      1.0  0.21501  0.61661  0.42643  1.0000
  H   H403      1.0  0.19998  0.78408  0.32709  1.0000
  H   H404      1.0  0.23019  0.80700  0.30514  1.0000
  C   C404      1.0  0.20716  0.51467  0.26811  1.0000
  C   C405      1.0  0.10633  0.83933  0.29505  1.0000
  H   H405      1.0  0.18978  0.72547  0.48174  1.0000
  C   C406      1.0  0.48748  0.74779  0.27422  1.0000
  C   C407      1.0  0.34466  0.84020  0.25875  1.0000
  H   H406      1.0  0.17207  0.62486  0.34160  1.0000
  C   C408      1.0  0.32245  0.84973  0.26815  1.0000
  C   C409      1.0  0.07264  0.81894  0.30272  1.0000
  C   C410      1.0  0.17088  0.63907  0.39457  1.0000
  C   C411      1.0  0.33786  0.63795  0.26688  1.0000
  H   H407      1.0  0.36759  0.63303  0.28552  1.0000
  H   H408      1.0  0.09206  0.82323  0.35232  1.0000
  C   C412      1.0  0.35729  0.64486  0.27382  1.0000
  C   C413      1.0  0.36376  0.66682  0.26527  1.0000
  C   C414      1.0  0.21075  0.71730  0.27030  1.0000
  N   N34       1.0  0.31084  0.68028  0.35505  1.0000
  C   C415      1.0  0.33264  0.68222  0.34332  1.0000
  C   C416      1.0  0.29201  0.68226  0.34332  1.0000
  C   C417      1.0  0.33588  0.68691  0.31924  1.0000
  C   C418      1.0  0.29467  0.68643  0.31921  1.0000
  C   C419      1.0  0.31675  0.68896  0.30715  1.0000
  C   C420      1.0  0.30758  0.67504  0.38025  1.0000
  H   H409      1.0  0.34768  0.68030  0.35253  1.0000
  H   H410      1.0  0.27480  0.68054  0.35260  1.0000
  H   H411      1.0  0.35314  0.68889  0.31008  1.0000
  H   H412      1.0  0.27973  0.68758  0.31000  1.0000
  H   H413      1.0  0.31905  0.69241  0.28848  1.0000
  H   H414      1.0  0.30443  0.65674  0.38547  1.0000
  H   H415      1.0  0.32303  0.67760  0.38794  1.0000
  H   H416      1.0  0.29238  0.68658  0.38778  1.0000
  H   H417      1.0  0.20408  0.73012  0.28180  1.0000
  H   H418      1.0  0.26602  0.79630  0.36500  1.0000
  H   H419      1.0  0.15471  0.65101  0.39547  1.0000
  C   C421      1.0  0.44609  0.68791  0.32580  1.0000
  H   H420      1.0  0.20351  0.74595  0.37166  1.0000
  H   H421      1.0  0.03963  0.80605  0.33488  1.0000
  H   H422      1.0  0.08865  0.83114  0.26854  1.0000
  N   N35       1.0  0.21551  0.77818  0.35825  1.0000
  Fe  Fe71      1.0  0.24157  0.92143  0.25463  1.0000
  C   C422      1.0  0.02305  0.70894  0.29654  1.0000
  C   C423      1.0  0.21431  0.78686  0.33556  1.0000
  C   C424      1.0  0.27125  0.51575  0.26256  1.0000
  N   N36       1.0  0.07337  0.81720  0.32594  1.0000
  C   C425      1.0  0.18338  0.63431  0.41356  1.0000
  H   H423      1.0  0.42625  0.72639  0.34401  1.0000
  C   C426      1.0  0.19090  0.73470  0.49593  1.0000
  C   C427      1.0  0.10714  0.83716  0.31872  1.0000
  C   C428      1.0  0.23143  0.79966  0.32299  1.0000
  H   H424      1.0  0.19640  0.68926  0.29314  1.0000
  N   N37       1.0  0.17954  0.62991  0.37466  1.0000
  H   H425      1.0  0.49135  0.69127  0.31645  1.0000
  H   H426      1.0  0.37916  0.67168  0.27019  1.0000
  C   C429      1.0  0.16907  0.82646  0.26039  1.0000
  Fe  Fe72      1.0  0.43035  0.72814  0.26951  1.0000
  H   H427      1.0  0.21108  0.54995  0.26966  1.0000
  H   H428      1.0  0.50331  0.77523  0.28342  1.0000
  C   C430      1.0  0.20627  0.69445  0.27658  1.0000
  C   C431      1.0  0.23658  0.00163  0.26178  1.0000
  C   C432      1.0  0.28115  0.98587  0.27420  1.0000
  C   C433      1.0  0.49309  0.72339  0.32853  1.0000
  H   H429      1.0  0.18492  0.76832  0.47598  1.0000
  C   C434      1.0  0.48030  0.74261  0.33772  1.0000
  S   S141      1.0  0.28212  0.58187  0.25498  1.0000
  H   H430      1.0  0.05184  0.81328  0.35846  1.0000
  S   S142      1.0  0.46794  0.71131  0.26412  1.0000
  H   H431      1.0  0.48912  0.75677  0.34017  1.0000
  H   H432      1.0  0.29839  0.97970  0.27910  1.0000
  C   C435      1.0  0.26714  0.96996  0.27014  1.0000
  H   H433      1.0  0.11946  0.84767  0.28305  1.0000
  C   C436      1.0  0.21450  0.67824  0.26141  1.0000
  C   C437      1.0  0.21363  0.53639  0.25869  1.0000
  H   H434      1.0  0.19979  0.51157  0.28608  1.0000
  S   S143      1.0  0.22711  0.95883  0.25746  1.0000
  H   H435      1.0  0.16143  0.76126  0.25719  1.0000
  H   H436      1.0  0.31401  0.86567  0.25964  1.0000
  H   H437      1.0  0.27605  0.53264  0.25563  1.0000
  H   H438      1.0  0.32764  0.68989  0.64713  1.0000
  H   H439      1.0  0.29184  0.70627  0.69102  1.0000
  S   S144      1.0  0.28015  0.85539  0.73687  1.0000
  H   H440      1.0  0.21396  0.63586  0.70651  1.0000
  H   H441      1.0  0.29740  0.68834  0.65754  1.0000
  C   C438      1.0  0.21205  0.58799  0.74672  1.0000
  H   H442      1.0  0.29286  0.53757  0.74150  1.0000
  H   H443      1.0  0.17382  0.84619  0.72578  1.0000
  C   C439      1.0  0.26273  0.56656  0.70511  1.0000
  C   C440      1.0  0.31549  0.68010  0.65985  1.0000
  H   H444      1.0  0.34364  0.79327  0.67873  1.0000
  H   H445      1.0  0.24635  0.60957  0.68847  1.0000
  H   H446      1.0  0.18759  0.78938  0.50878  1.0000
  S   S145      1.0  0.29618  0.61915  0.69421  1.0000
  Fe  Fe73      1.0  0.29631  0.60921  0.73218  1.0000
  Fe  Fe74      1.0  0.23706  0.78377  0.66059  1.0000
  S   S146      1.0  0.26694  0.78526  0.63196  1.0000
  S   S147      1.0  0.21828  0.81320  0.67927  1.0000
  Fe  Fe75      1.0  0.23509  0.73307  0.65974  1.0000
  S   S148      1.0  0.26477  0.72952  0.63118  1.0000
  S   S149      1.0  0.21770  0.70435  0.68103  1.0000
  Fe  Fe76      1.0  0.28170  0.75107  0.65027  1.0000
  S   S150      1.0  0.31942  0.74062  0.65576  1.0000
  Fe  Fe77      1.0  0.24752  0.76376  0.61499  1.0000
  S   S151      1.0  0.24256  0.77423  0.57736  1.0000
  S   S152      1.0  0.25352  0.75143  0.68024  1.0000
  S   S153      1.0  0.21619  0.76536  0.64225  1.0000
  H   H447      1.0  0.19198  0.62210  0.74421  1.0000
  N   N38       1.0  0.14330  0.82898  0.73181  1.0000
  C   C441      1.0  0.32674  0.74604  0.68194  1.0000
  C   C442      1.0  0.34917  0.73790  0.68791  1.0000
  C   C443      1.0  0.35551  0.74270  0.70846  1.0000
  C   C444      1.0  0.33946  0.75586  0.72294  1.0000
  C   C445      1.0  0.31689  0.76355  0.71723  1.0000
  C   C446      1.0  0.31054  0.75861  0.69679  1.0000
  H   H448      1.0  0.36177  0.72809  0.67649  1.0000
  H   H449      1.0  0.37298  0.73673  0.71278  1.0000
  H   H450      1.0  0.30443  0.77365  0.72847  1.0000
  H   H451      1.0  0.29338  0.76517  0.69218  1.0000
  C   C447      1.0  0.24996  0.75394  0.55759  1.0000
  C   C448      1.0  0.24773  0.76135  0.53421  1.0000
  C   C449      1.0  0.34020  0.66709  0.69054  1.0000
  H   H452      1.0  0.16432  0.83911  0.70036  1.0000
  C   C450      1.0  0.25947  0.71429  0.54918  1.0000
  C   C451      1.0  0.25632  0.73040  0.56495  1.0000
  C   C452      1.0  0.11182  0.80587  0.74094  1.0000
  H   H453      1.0  0.26381  0.69602  0.55509  1.0000
  H   H454      1.0  0.25818  0.72451  0.58288  1.0000
  H   H455      1.0  0.50782  0.77959  0.74197  1.0000
  C   C453      1.0  0.27507  0.64340  0.69024  1.0000
  C   C454      1.0  0.26866  0.65162  0.66829  1.0000
  C   C455      1.0  0.25108  0.67055  0.66538  1.0000
  C   C456      1.0  0.23941  0.68065  0.68453  1.0000
  C   C457      1.0  0.24572  0.67230  0.70646  1.0000
  C   C458      1.0  0.26386  0.65402  0.70922  1.0000
  H   H456      1.0  0.27728  0.64342  0.65356  1.0000
  H   H457      1.0  0.24628  0.67711  0.64836  1.0000
  H   H458      1.0  0.23678  0.68001  0.72133  1.0000
  H   H459      1.0  0.26905  0.64819  0.72611  1.0000
  C   C459      1.0  0.26221  0.84300  0.72217  1.0000
  C   C460      1.0  0.27060  0.82199  0.71358  1.0000
  C   C461      1.0  0.25735  0.81288  0.70011  1.0000
  C   C462      1.0  0.23543  0.82451  0.69562  1.0000
  C   C463      1.0  0.22679  0.84517  0.70468  1.0000
  C   C464      1.0  0.24015  0.85440  0.71792  1.0000
  H   H460      1.0  0.28755  0.81298  0.71702  1.0000
  H   H461      1.0  0.26406  0.79696  0.69313  1.0000
  H   H462      1.0  0.21002  0.85444  0.70096  1.0000
  H   H463      1.0  0.23358  0.87067  0.72424  1.0000
  H   H464      1.0  0.30815  0.86002  0.69058  1.0000
  H   H465      1.0  0.35621  0.83416  0.69991  1.0000
  H   H466      1.0  0.34504  0.80797  0.71429  1.0000
  C   C465      1.0  0.30703  0.69529  0.69703  1.0000
  C   C466      1.0  0.31299  0.69716  0.71864  1.0000
  C   C467      1.0  0.19207  0.75693  0.71522  1.0000
  C   C468      1.0  0.20005  0.72111  0.55806  1.0000
  N   N39       1.0  0.32070  0.68052  0.68323  1.0000
  H   H467      1.0  0.19199  0.77345  0.70323  1.0000
  C   C469      1.0  0.25620  0.72158  0.52601  1.0000
  H   H468      1.0  0.31722  0.66196  0.65612  1.0000
  C   C470      1.0  0.23054  0.57353  0.73613  1.0000
  H   H469      1.0  0.29081  0.82689  0.63698  1.0000
  H   H470      1.0  0.35099  0.65538  0.67958  1.0000
  C   C471      1.0  0.30122  0.82692  0.65070  1.0000
  H   H471      1.0  0.20723  0.73145  0.56886  1.0000
  C   C472      1.0  0.33302  0.68377  0.72610  1.0000
  C   C473      1.0  0.31120  0.84544  0.68083  1.0000
  S   S154      1.0  0.25677  0.70048  0.50778  1.0000
  H   H472      1.0  0.30254  0.70941  0.72920  1.0000
  C   C474      1.0  0.21825  0.61824  0.71483  1.0000
  C   C475      1.0  0.23655  0.60329  0.70470  1.0000
  N   N40       1.0  0.21327  0.75193  0.72658  1.0000
  H   H473      1.0  0.23569  0.55633  0.74499  1.0000
  H   H474      1.0  0.33808  0.68536  0.74263  1.0000
  N   N41       1.0  0.24244  0.58126  0.71532  1.0000
  C   C476      1.0  0.20595  0.61051  0.73599  1.0000
  H   H475      1.0  0.36228  0.65797  0.71770  1.0000
  H   H476      1.0  0.17646  0.75811  0.72843  1.0000
  S   S155      1.0  0.31432  0.57543  0.74784  1.0000
  C   C477      1.0  0.24364  0.76534  0.74217  1.0000
  H   H477      1.0  0.27898  0.57109  0.70990  1.0000
  H   H478      1.0  0.21391  0.71536  0.72978  1.0000
  H   H479      1.0  0.28479  0.86054  0.65892  1.0000
  C   C478      1.0  0.29793  0.84585  0.66291  1.0000
  H   H480      1.0  0.13952  0.85891  0.74897  1.0000
  C   C479      1.0  0.13173  0.84409  0.74643  1.0000
  C   C480      1.0  0.16605  0.83308  0.71885  1.0000
  C   C481      1.0  0.33080  0.80813  0.67438  1.0000
  N   N42       1.0  0.32692  0.82645  0.68675  1.0000
  H   H481      1.0  0.25158  0.77963  0.74580  1.0000
  H   H482      1.0  0.32058  0.79310  0.64696  1.0000
  C   C482      1.0  0.19344  0.75793  0.53256  1.0000
  H   H483      1.0  0.24307  0.77958  0.52837  1.0000
  C   C483      1.0  0.31788  0.80797  0.65633  1.0000
  C   C484      1.0  0.13355  0.81017  0.72883  1.0000
  H   H484      1.0  0.17867  0.81691  0.72011  1.0000
  C   C485      1.0  0.34666  0.66849  0.71207  1.0000
  S   S156      1.0  0.22785  0.90696  0.75146  1.0000
  C   C486      1.0  0.34010  0.82603  0.70606  1.0000
  C   C487      1.0  0.22237  0.72944  0.73304  1.0000
  H   H485      1.0  0.19108  0.74313  0.70467  1.0000
  C   C488      1.0  0.25081  0.74522  0.51844  1.0000
  N   N43       1.0  0.19660  0.73421  0.53538  1.0000
  S   S157      1.0  0.41539  0.73273  0.73889  1.0000
  H   H486      1.0  0.14275  0.79821  0.71727  1.0000
  H   H487      1.0  0.26171  0.54786  0.71107  1.0000
  H   H488      1.0  0.32936  0.83549  0.71974  1.0000
  H   H489      1.0  0.26391  0.56919  0.68598  1.0000
  H   H490      1.0  0.21571  0.78757  0.72693  1.0000
  C   C489      1.0  0.22337  0.76977  0.73140  1.0000
  H   H491      1.0  0.19474  0.76718  0.54673  1.0000
  H   H492      1.0  0.18319  0.71612  0.56720  1.0000
  H   H493      1.0  0.21284  0.70522  0.55620  1.0000
  C   C490      1.0  0.25347  0.74246  0.74820  1.0000
  H   H494      1.0  0.19843  0.70376  0.51947  1.0000
  C   C491      1.0  0.24280  0.72434  0.74363  1.0000
  C   C492      1.0  0.28750  0.52104  0.74887  1.0000
  C   C493      1.0  0.19546  0.72256  0.51739  1.0000
  S   S158      1.0  0.34747  0.76408  0.74754  1.0000
  C   C494      1.0  0.49115  0.70256  0.74971  1.0000
  H   H495      1.0  0.10413  0.79084  0.73877  1.0000
  C   C495      1.0  0.49841  0.71784  0.73047  1.0000
  H   H496      1.0  0.25009  0.70645  0.74844  1.0000
  H   H497      1.0  0.48623  0.72574  0.71841  1.0000
  H   H498      1.0  0.47347  0.69820  0.75238  1.0000
  C   C496      1.0  0.18942  0.77060  0.51114  1.0000
  Fe  Fe78      1.0  0.21788  0.75211  0.92788  1.0000
  S   S159      1.0  0.22077  0.77626  0.95275  1.0000
  S   S160      1.0  0.18978  0.72903  0.93556  1.0000
  Fe  Fe79      1.0  0.26046  0.76530  0.89566  1.0000
  S   S161      1.0  0.26796  0.79011  0.91787  1.0000
  S   S162      1.0  0.27719  0.76230  0.85929  1.0000
  Fe  Fe80      1.0  0.25905  0.76293  0.94786  1.0000
  S   S163      1.0  0.28046  0.75212  0.97769  1.0000
  Fe  Fe81      1.0  0.22928  0.80141  0.92125  1.0000
  S   S164      1.0  0.21276  0.83846  0.91594  1.0000
  S   S165      1.0  0.25556  0.73670  0.92501  1.0000
  S   S166      1.0  0.22231  0.77863  0.89689  1.0000
  Fe  Fe82      1.0  0.13676  0.71657  0.79396  1.0000
  S   S167      1.0  0.10158  0.72488  0.81453  1.0000
  H   H499      1.0  0.30852  0.95082  0.85048  1.0000
  C   C497      1.0  0.15191  0.80152  0.86597  1.0000
  S   S168      1.0  0.11263  0.77891  0.80591  1.0000
  C   C498      1.0  0.32999  0.79876  0.82477  1.0000
  Fe  Fe83      1.0  0.12007  0.74716  0.83125  1.0000
  S   S169      1.0  0.11143  0.74739  0.86943  1.0000
  Fe  Fe84      1.0  0.09665  0.75587  0.78758  1.0000
  S   S170      1.0  0.06277  0.77318  0.77469  1.0000
  S   S171      1.0  0.15550  0.73625  0.81319  1.0000
  H   H500      1.0  0.34937  0.78591  0.79419  1.0000
  H   H501      1.0  0.18137  0.66968  0.83145  1.0000
  H   H502      1.0  0.34086  0.78725  0.83627  1.0000
  S   S172      1.0  0.22686  0.92120  0.80316  1.0000
  S   S173      1.0  0.27870  0.88917  0.83671  1.0000
  C   C499      1.0  0.30274  0.82820  0.79502  1.0000
  H   H503      1.0  0.31399  0.82704  0.86377  1.0000
  C   C500      1.0  0.04118  0.75673  0.77087  1.0000
  S   S174      1.0  0.26029  0.65792  0.79284  1.0000
  C   C501      1.0  0.15985  0.81545  0.87932  1.0000
  S   S175      1.0  0.29432  0.59351  0.79820  1.0000
  Fe  Fe85      1.0  0.39707  0.72516  0.80491  1.0000
  S   S176      1.0  0.43313  0.71153  0.78958  1.0000
  S   S177      1.0  0.38374  0.72080  0.84272  1.0000
  H   H504      1.0  0.36297  0.53942  0.76577  1.0000
  C   C502      1.0  0.25553  0.95542  0.83250  1.0000
  H   H505      1.0  0.28368  0.84042  0.82579  1.0000
  Fe  Fe86      1.0  0.43163  0.74525  0.76600  1.0000
  H   H506      1.0  0.28820  0.92997  0.85768  1.0000
  N   N44       1.0  0.31119  0.81322  0.83347  1.0000
  S   S178      1.0  0.37884  0.71024  0.78118  1.0000
  Fe  Fe87      1.0  0.28175  0.57470  0.77313  1.0000
  C   C503      1.0  0.33501  0.79801  0.80100  1.0000
  C   C504      1.0  0.15850  0.84397  0.79812  1.0000
  H   H507      1.0  0.20297  0.58192  0.76341  1.0000
  C   C505      1.0  0.29800  0.82829  0.81892  1.0000
  H   H508      1.0  0.43748  0.61575  0.76444  1.0000
  H   H509      1.0  0.14439  0.85148  0.80991  1.0000
  H   H510      1.0  0.23419  0.77173  0.99742  1.0000
  H   H511      1.0  0.21096  0.85496  0.76831  1.0000
  H   H512      1.0  0.20872  0.73212  0.98529  1.0000
  H   H513      1.0  0.33157  0.54717  0.79781  1.0000
  H   H514      1.0  0.31198  0.79627  0.86807  1.0000
  C   C506      1.0  0.33393  0.53080  0.79095  1.0000
  C   C507      1.0  0.16473  0.79724  0.84484  1.0000
  H   H515      1.0  0.22606  0.62885  0.78799  1.0000
  C   C508      1.0  0.17575  0.81274  0.77607  1.0000
  H   H516      1.0  0.15023  0.81872  0.89592  1.0000
  H   H517      1.0  0.08333  0.81761  0.76578  1.0000
  Fe  Fe88      1.0  0.25989  0.89655  0.80554  1.0000
  C   C509      1.0  0.20783  0.67385  0.85141  1.0000
  H   H518      1.0  0.50756  0.72634  0.81549  1.0000
  C   C510      1.0  0.28988  0.99292  0.78380  1.0000
  H   H519      1.0  0.41108  0.58573  0.77545  1.0000
  C   C511      1.0  0.18258  0.67468  0.78552  1.0000
  C   C512      1.0  0.19577  0.69238  0.78616  1.0000
  C   C513      1.0  0.21962  0.68709  0.78844  1.0000
  C   C514      1.0  0.23068  0.66423  0.78886  1.0000
  C   C515      1.0  0.21777  0.64662  0.78713  1.0000
  H   H520      1.0  0.22222  0.66829  0.83870  1.0000
  H   H521      1.0  0.18757  0.71011  0.78533  1.0000
  H   H522      1.0  0.22945  0.70073  0.79006  1.0000
  C   C516      1.0  0.40960  0.64403  0.76057  1.0000
  S   S179      1.0  0.26402  0.54280  0.78520  1.0000
  H   H523      1.0  0.26638  0.70360  0.00091  1.0000
  Fe  Fe89      1.0  0.21451  0.89365  0.78784  1.0000
  H   H524      1.0  0.47151  0.73667  0.79661  1.0000
  C   C517      1.0  0.17791  0.85558  0.79014  1.0000
  C   C518      1.0  0.15745  0.82253  0.79114  1.0000
  C   C519      1.0  0.32116  0.81271  0.78608  1.0000
  H   H525      1.0  0.14243  0.81372  0.79736  1.0000
  H   H526      1.0  0.50082  0.68204  0.78110  1.0000
  H   H527      1.0  0.15867  0.78652  0.83425  1.0000
  S   S180      1.0  0.17941  0.88189  0.79968  1.0000
  C   C520      1.0  0.02808  0.72008  0.76868  1.0000
  C   C521      1.0  0.25648  0.98844  0.76566  1.0000
  C   C522      1.0  0.30642  0.74960  0.85546  1.0000
  C   C523      1.0  0.31733  0.74749  0.83303  1.0000
  C   C524      1.0  0.34115  0.73911  0.82911  1.0000
  C   C525      1.0  0.35404  0.73207  0.84767  1.0000
  C   C526      1.0  0.34300  0.73361  0.87020  1.0000
  C   C527      1.0  0.31921  0.74258  0.87410  1.0000
  H   H528      1.0  0.30750  0.75307  0.81856  1.0000
  H   H529      1.0  0.34950  0.73834  0.81166  1.0000
  H   H530      1.0  0.35291  0.72816  0.88462  1.0000
  H   H531      1.0  0.31084  0.74420  0.89149  1.0000
  C   C528      1.0  0.16843  0.73570  0.91669  1.0000
  C   C529      1.0  0.17436  0.74189  0.89291  1.0000
  C   C530      1.0  0.15716  0.74483  0.87798  1.0000
  C   C531      1.0  0.13386  0.74284  0.88701  1.0000
  C   C532      1.0  0.12802  0.73707  0.91077  1.0000
  C   C533      1.0  0.14530  0.73305  0.92548  1.0000
  H   H532      1.0  0.19233  0.74352  0.88595  1.0000
  H   H533      1.0  0.16190  0.74876  0.85961  1.0000
  H   H534      1.0  0.11007  0.73544  0.91785  1.0000
  H   H535      1.0  0.14066  0.72814  0.94380  1.0000
  C   C534      1.0  0.23094  0.85464  0.89557  1.0000
  C   C535      1.0  0.25512  0.85132  0.89604  1.0000
  C   C536      1.0  0.26971  0.86289  0.87849  1.0000
  C   C537      1.0  0.26022  0.87704  0.86001  1.0000
  C   C538      1.0  0.23602  0.88069  0.85977  1.0000
  C   C539      1.0  0.22135  0.86997  0.87784  1.0000
  H   H536      1.0  0.26251  0.84012  0.91014  1.0000
  H   H537      1.0  0.28837  0.86047  0.87901  1.0000
  H   H538      1.0  0.22850  0.89176  0.84572  1.0000
  H   H539      1.0  0.20264  0.87295  0.87760  1.0000
  C   C540      1.0  0.02302  0.75398  0.82790  1.0000
  S   S181      1.0  0.39714  0.76018  0.78390  1.0000
  N   N45       1.0  0.19292  0.82078  0.85049  1.0000
  H   H540      1.0  0.23006  0.67974  0.87532  1.0000
  C   C541      1.0  0.18036  0.82520  0.87114  1.0000
  H   H541      1.0  0.18353  0.63803  0.78544  1.0000
  Fe  Fe90      1.0  0.32541  0.59687  0.77132  1.0000
  H   H542      1.0  0.13594  0.79392  0.87204  1.0000
  C   C542      1.0  0.21403  0.83172  0.84214  1.0000
  C   C543      1.0  0.01858  0.76801  0.76804  1.0000
  H   H543      1.0  0.18619  0.83630  0.88144  1.0000
  C   C544      1.0  0.48726  0.74370  0.78870  1.0000
  H   H544      1.0  0.29222  0.84003  0.78347  1.0000
  C   C545      1.0  0.25802  0.00180  0.83348  1.0000
  H   H545      1.0  0.22437  0.82420  0.82709  1.0000
  H   H546      1.0  0.20907  0.85059  0.83683  1.0000
  H   H547      1.0  0.22551  0.82925  0.85597  1.0000
  N   N46       1.0  0.36715  0.65570  0.82480  1.0000
  C   C546      1.0  0.35072  0.67478  0.82673  1.0000
  C   C547      1.0  0.36082  0.63526  0.82129  1.0000
  C   C548      1.0  0.32726  0.67378  0.82506  1.0000
  C   C549      1.0  0.33752  0.63361  0.81953  1.0000
  C   C550      1.0  0.32067  0.65306  0.82129  1.0000
  C   C551      1.0  0.39188  0.65755  0.82493  1.0000
  H   H548      1.0  0.35574  0.69096  0.82938  1.0000
  H   H549      1.0  0.37390  0.62023  0.81922  1.0000
  H   H550      1.0  0.31439  0.68908  0.82651  1.0000
  H   H551      1.0  0.33273  0.61745  0.81629  1.0000
  H   H552      1.0  0.30259  0.65212  0.81956  1.0000
  H   H553      1.0  0.39397  0.67156  0.83480  1.0000
  H   H554      1.0  0.40119  0.64116  0.83312  1.0000
  H   H555      1.0  0.40046  0.66150  0.80695  1.0000
  N   N47       1.0  0.16650  0.68238  0.86292  1.0000
  C   C552      1.0  0.17065  0.68780  0.88346  1.0000
  C   C553      1.0  0.18470  0.67487  0.84727  1.0000
  C   C554      1.0  0.19355  0.68688  0.88825  1.0000
  C   C555      1.0  0.21223  0.68013  0.87197  1.0000
  C   C556      1.0  0.14238  0.68364  0.85817  1.0000
  H   H556      1.0  0.15622  0.69333  0.89611  1.0000
  H   H557      1.0  0.19676  0.69178  0.90434  1.0000
  Fe  Fe91      1.0  0.26055  0.88263  0.75825  1.0000
  H   H558      1.0  0.13130  0.69907  0.86454  1.0000
  H   H559      1.0  0.14142  0.68536  0.83932  1.0000
  H   H560      1.0  0.13497  0.66777  0.86670  1.0000
  C   C557      1.0  0.27658  0.97867  0.77571  1.0000
  H   H561      1.0  0.22271  0.70327  0.98124  1.0000
  C   C558      1.0  0.27634  0.98464  0.83944  1.0000
  C   C559      1.0  0.23710  0.97218  0.82598  1.0000
  C   C560      1.0  0.50769  0.73793  0.79941  1.0000
  C   C561      1.0  0.23846  0.99551  0.82638  1.0000
  H   H562      1.0  0.28652  0.81641  0.86359  1.0000
  S   S182      1.0  0.15196  0.68030  0.78749  1.0000
  N   N48       1.0  0.27490  0.96177  0.83888  1.0000
  S   S183      1.0  0.24605  0.86786  0.79370  1.0000
  C   C562      1.0  0.37966  0.60986  0.77222  1.0000
  C   C563      1.0  0.29443  0.94381  0.84419  1.0000
  Fe  Fe92      1.0  0.41475  0.69991  0.76370  1.0000
  H   H563      1.0  0.37829  0.66838  0.75792  1.0000
  C   C564      1.0  0.50777  0.76790  0.75799  1.0000
  H   H564      1.0  0.19517  0.80365  0.82087  1.0000
  C   C565      1.0  0.04587  0.73268  0.77132  1.0000
  C   C566      1.0  0.18540  0.80695  0.83738  1.0000
  Fe  Fe93      1.0  0.27824  0.62594  0.77802  1.0000
  C   C567      1.0  0.19370  0.65182  0.78566  1.0000
  H   H565      1.0  0.10118  0.85196  0.77086  1.0000
  H   H566      1.0  0.30541  0.98524  0.79154  1.0000
  H   H567      1.0  0.03784  0.74202  0.82036  1.0000
  H   H568      1.0  0.29202  0.98989  0.84360  1.0000
  Fe  Fe94      1.0  0.14653  0.76591  0.78593  1.0000
  C   C568      1.0  0.19610  0.84590  0.77487  1.0000
  S   S184      1.0  0.36149  0.58817  0.78136  1.0000
  H   H569      1.0  0.01484  0.78662  0.76764  1.0000
  C   C569      1.0  0.37044  0.63322  0.76708  1.0000
  H   H570      1.0  0.30200  0.93574  0.82845  1.0000
  C   C570      1.0  0.30574  0.81332  0.85845  1.0000
  C   C571      1.0  0.35158  0.52643  0.77288  1.0000
  C   C572      1.0  0.22494  0.71968  0.98713  1.0000
  C   C573      1.0  0.48730  0.75851  0.76783  1.0000
  C   C574      1.0  0.40383  0.60370  0.77141  1.0000
  H   H571      1.0  0.28194  0.96016  0.77712  1.0000
  S   S185      1.0  0.17468  0.78616  0.76683  1.0000
  C   C575      1.0  0.38539  0.65035  0.76161  1.0000
  C   C576      1.0  0.31919  0.51419  0.79987  1.0000
  S   S186      1.0  0.27759  0.90930  0.77072  1.0000
  H   H572      1.0  0.06324  0.72382  0.77344  1.0000
  C   C577      1.0  0.19501  0.82451  0.76783  1.0000
  S   S187      1.0  0.13018  0.74551  0.76529  1.0000
  C   C578      1.0  0.41876  0.62069  0.76525  1.0000
  H   H573      1.0  0.22219  0.96719  0.81995  1.0000
  Fe  Fe95      1.0  0.24349  0.93244  0.76737  1.0000
  H   H574      1.0  0.25457  0.93729  0.83199  1.0000
  H   H575      1.0  0.02569  0.75506  0.84586  1.0000
  C   C579      1.0  0.27301  0.51890  0.76991  1.0000
  H   H576      1.0  0.23926  0.72749  0.97551  1.0000
  H   H577      1.0  0.35181  0.63821  0.76815  1.0000
  H   H578      1.0  0.02389  0.77126  0.81737  1.0000
  H   H579      1.0  0.32476  0.81211  0.76763  1.0000
  H   H580      1.0  0.03186  0.70150  0.76880  1.0000
  Fe  Fe96      1.0  0.38097  0.74450  0.75903  1.0000
  C   C580      1.0  0.50654  0.69343  0.76576  1.0000
  H   H581      1.0  0.30492  0.51773  0.81342  1.0000
  H   H582      1.0  0.01525  0.71306  0.81813  1.0000
  C   C581      1.0  0.11005  0.84022  0.75891  1.0000
  S   S188      1.0  0.23907  0.97108  0.75573  1.0000
  S   S189      1.0  0.26265  0.60693  0.75554  1.0000
  H   H583      1.0  0.20915  0.81718  0.75598  1.0000
  H   H584      1.0  0.26917  0.73882  0.75660  1.0000
  S   S190      1.0  0.42885  0.66484  0.75365  1.0000
  S   S191      1.0  0.31052  0.63082  0.75313  1.0000
  C   C582      1.0  0.10007  0.82097  0.75612  1.0000
  C   C583      1.0  0.35418  0.50540  0.76392  1.0000
  S   S192      1.0  0.46249  0.76476  0.75307  1.0000
  C   C584      1.0  0.68090  0.19016  0.20414  1.0000
  S   S193      1.0  0.87854  0.25850  0.22992  1.0000
  H   H585      1.0  0.77838  0.03424  0.21456  1.0000
  C   C585      1.0  0.71079  0.14888  0.20978  1.0000
  H   H586      1.0  0.72261  0.13289  0.21273  1.0000
  H   H587      1.0  0.73139  0.21033  0.18391  1.0000
  H   H588      1.0  0.67982  0.13218  0.21893  1.0000
  C   C586      1.0  0.81345  0.02427  0.23995  1.0000
  C   C587      1.0  0.73994  0.17165  0.08378  1.0000
  C   C588      1.0  0.71342  0.27547  0.24768  1.0000
  H   H589      1.0  0.80118  0.03980  0.24432  1.0000
  S   S194      1.0  0.80074  0.09546  0.19693  1.0000
  H   H590      1.0  0.70244  0.22537  0.18397  1.0000
  Fe  Fe97      1.0  0.81446  0.22452  0.14286  1.0000
  S   S195      1.0  0.78074  0.22336  0.16645  1.0000
  S   S196      1.0  0.84875  0.20842  0.15446  1.0000
  Fe  Fe98      1.0  0.79077  0.24690  0.10097  1.0000
  S   S197      1.0  0.75497  0.24754  0.12091  1.0000
  S   S198      1.0  0.79806  0.26045  0.06319  1.0000
  Fe  Fe99      1.0  0.77098  0.25926  0.14856  1.0000
  S   S199      1.0  0.75039  0.28818  0.16673  1.0000
  Fe  Fe100     1.0  0.76815  0.21181  0.13672  1.0000
  S   S200      1.0  0.74676  0.18258  0.14198  1.0000
  S   S201      1.0  0.80595  0.26152  0.12740  1.0000
  S   S202      1.0  0.80269  0.21006  0.11446  1.0000
  H   H591      1.0  0.78679  0.50262  0.22737  1.0000
  H   H592      1.0  0.72758  0.16444  0.07518  1.0000
  N   N49       1.0  0.76171  0.17503  0.06854  1.0000
  H   H593      1.0  0.87985  0.18252  0.24019  1.0000
  C   C589      1.0  0.67162  0.16923  0.21036  1.0000
  N   N50       1.0  0.71957  0.49745  0.24526  1.0000
  H   H594      1.0  0.71541  0.21939  0.21050  1.0000
  Fe  Fe101     1.0  0.78587  0.37070  0.23340  1.0000
  S   S203      1.0  0.80943  0.34606  0.21196  1.0000
  S   S204      1.0  0.75804  0.39814  0.22058  1.0000
  H   H595      1.0  0.71868  0.30134  0.21817  1.0000
  H   H596      1.0  0.88907  0.15241  0.23861  1.0000
  C   C590      1.0  0.68672  0.14848  0.21316  1.0000
  C   C591      1.0  0.76698  0.30350  0.17993  1.0000
  C   C592      1.0  0.75601  0.32312  0.18984  1.0000
  C   C593      1.0  0.76895  0.33595  0.20005  1.0000
  C   C594      1.0  0.79305  0.32959  0.19984  1.0000
  C   C595      1.0  0.80412  0.31015  0.18965  1.0000
  C   C596      1.0  0.79105  0.29696  0.17991  1.0000
  H   H597      1.0  0.73752  0.32864  0.18938  1.0000
  H   H598      1.0  0.76029  0.35104  0.20768  1.0000
  H   H599      1.0  0.82279  0.30526  0.18934  1.0000
  H   H600      1.0  0.79966  0.28198  0.17212  1.0000
  C   C597      1.0  0.78225  0.24995  0.04480  1.0000
  C   C598      1.0  0.76216  0.23972  0.05364  1.0000
  C   C599      1.0  0.74967  0.23158  0.03876  1.0000
  H   H601      1.0  0.54905  0.24027  0.23833  1.0000
  H   H602      1.0  0.75611  0.23825  0.07190  1.0000
  H   H603      1.0  0.73405  0.22382  0.04569  1.0000
  C   C600      1.0  0.81843  0.18370  0.21683  1.0000
  C   C601      1.0  0.78626  0.11889  0.18020  1.0000
  C   C602      1.0  0.76292  0.11909  0.17723  1.0000
  C   C603      1.0  0.75111  0.13831  0.16456  1.0000
  C   C604      1.0  0.76232  0.15773  0.15575  1.0000
  C   C605      1.0  0.78564  0.15754  0.15882  1.0000
  C   C606      1.0  0.79773  0.13796  0.17065  1.0000
  H   H604      1.0  0.75405  0.10431  0.18457  1.0000
  H   H605      1.0  0.73312  0.13835  0.16212  1.0000
  H   H606      1.0  0.79447  0.17244  0.15213  1.0000
  H   H607      1.0  0.81582  0.13782  0.17282  1.0000
  C   C607      1.0  0.87074  0.24538  0.20809  1.0000
  C   C608      1.0  0.88606  0.22763  0.19856  1.0000
  C   C609      1.0  0.87939  0.21668  0.18167  1.0000
  C   C610      1.0  0.85736  0.22339  0.17435  1.0000
  C   C611      1.0  0.84207  0.24126  0.18372  1.0000
  C   C612      1.0  0.84881  0.25233  0.20053  1.0000
  H   H608      1.0  0.90324  0.22267  0.20381  1.0000
  H   H609      1.0  0.89131  0.20302  0.17424  1.0000
  H   H610      1.0  0.82497  0.24630  0.17823  1.0000
  H   H611      1.0  0.83688  0.26597  0.20797  1.0000
  H   H612      1.0  0.73823  0.17023  0.20089  1.0000
  N   N51       1.0  0.78288  0.31580  0.09787  1.0000
  C   C613      1.0  0.80621  0.31099  0.09030  1.0000
  C   C614      1.0  0.77567  0.32536  0.11782  1.0000
  C   C615      1.0  0.82299  0.31617  0.10260  1.0000
  C   C616      1.0  0.79196  0.33126  0.13022  1.0000
  C   C617      1.0  0.81575  0.32640  0.12269  1.0000
  C   C618      1.0  0.76557  0.30937  0.08533  1.0000
  H   H613      1.0  0.81196  0.30250  0.07500  1.0000
  H   H614      1.0  0.75725  0.32814  0.12451  1.0000
  H   H615      1.0  0.84146  0.31181  0.09685  1.0000
  H   H616      1.0  0.78618  0.33894  0.14599  1.0000
  H   H617      1.0  0.82851  0.33016  0.13269  1.0000
  H   H618      1.0  0.74910  0.32164  0.08664  1.0000
  H   H619      1.0  0.77219  0.30935  0.06669  1.0000
  H   H620      1.0  0.76166  0.29166  0.09249  1.0000
  H   H621      1.0  0.72297  0.46061  0.24755  1.0000
  H   H622      1.0  0.78000  0.17733  0.09646  1.0000
  C   C619      1.0  0.78017  0.49765  0.24524  1.0000
  H   H623      1.0  0.74356  0.15943  0.09957  1.0000
  C   C620      1.0  0.75755  0.23296  0.01505  1.0000
  H   H624      1.0  0.82345  0.12503  0.22122  1.0000
  C   C621      1.0  0.76249  0.17640  0.04513  1.0000
  H   H625      1.0  0.81776  0.18932  0.02859  1.0000
  N   N52       1.0  0.85637  0.16603  0.22618  1.0000
  C   C622      1.0  0.85037  0.14451  0.22607  1.0000
  H   H626      1.0  0.79503  0.16020  0.21269  1.0000
  C   C623      1.0  0.82814  0.14209  0.22146  1.0000
  C   C624      1.0  0.80131  0.18325  0.06371  1.0000
  H   H627      1.0  0.73139  0.18851  0.08921  1.0000
  C   C625      1.0  0.88016  0.16853  0.22951  1.0000
  H   H628      1.0  0.86279  0.12909  0.22950  1.0000
  S   S205      1.0  0.76461  0.12695  0.24576  1.0000
  H   H629      1.0  0.84553  0.20249  0.22173  1.0000
  H   H630      1.0  0.66908  0.20631  0.20292  1.0000
  C   C626      1.0  0.72540  0.31241  0.24934  1.0000
  H   H631      1.0  0.74712  0.17486  0.03751  1.0000
  C   C627      1.0  0.78078  0.17826  0.07790  1.0000
  H   H632      1.0  0.78307  0.18292  0.01189  1.0000
  C   C628      1.0  0.71395  0.21245  0.19444  1.0000
  N   N53       1.0  0.70457  0.19032  0.20029  1.0000
  Fe  Fe102     1.0  0.78330  0.09452  0.23320  1.0000
  H   H633      1.0  0.73049  0.48663  0.21210  1.0000
  Fe  Fe103     1.0  0.76875  0.42005  0.24397  1.0000
  H   H634      1.0  0.67004  0.34262  0.24611  1.0000
  H   H635      1.0  0.80635  0.19922  0.21276  1.0000
  H   H636      1.0  0.82742  0.02977  0.22624  1.0000
  C   C629      1.0  0.71948  0.17007  0.20332  1.0000
  C   C630      1.0  0.78283  0.18105  0.03047  1.0000
  C   C631      1.0  0.78346  0.01574  0.21891  1.0000
  C   C632      1.0  0.78981  0.25192  0.02100  1.0000
  H   H637      1.0  0.80532  0.25987  0.01406  1.0000
  H   H638      1.0  0.65286  0.16918  0.21383  1.0000
  S   S206      1.0  0.77413  0.45720  0.23145  1.0000
  C   C633      1.0  0.84071  0.18546  0.22176  1.0000
  H   H639      1.0  0.89061  0.17291  0.21254  1.0000
  H   H640      1.0  0.81623  0.18637  0.07114  1.0000
  C   C634      1.0  0.80223  0.18478  0.03984  1.0000
  C   C635      1.0  0.81215  0.16185  0.21671  1.0000
  S   S207      1.0  0.92442  0.20051  0.24326  1.0000
  H   H641      1.0  0.75683  0.00660  0.20157  1.0000
  N   N54       1.0  0.80107  0.00771  0.23216  1.0000
  C   C636      1.0  0.72829  0.50073  0.22238  1.0000
  C   C637      1.0  0.77761  0.24325  0.00616  1.0000
  S   S208      1.0  0.70059  0.37608  0.24650  1.0000
  H   H642      1.0  0.72939  0.32932  0.24093  1.0000
  C   C638      1.0  0.71923  0.29682  0.23658  1.0000
  H   H643      1.0  0.70827  0.26337  0.23794  1.0000
  S   S209      1.0  0.75491  0.07320  0.24868  1.0000
  S   S210      1.0  0.99101  0.20341  0.24597  1.0000
  H   H644      1.0  0.85210  0.30329  0.24732  1.0000
  H   H645      1.0  0.98392  0.25273  0.24952  1.0000
  Fe  Fe104     1.0  0.90381  0.23459  0.25070  1.0000
  C   C639      1.0  0.77298  0.47577  0.25222  1.0000
  C   C640      1.0  0.00186  0.24585  0.25156  1.0000
  C   C641      1.0  0.00965  0.22229  0.25068  1.0000
  Fe  Fe105     1.0  0.73543  0.38415  0.25209  1.0000
  C   C642      1.0  0.80303  0.47556  0.33592  1.0000
  H   H646      1.0  0.83867  0.19901  0.38884  1.0000
  H   H647      1.0  0.83156  0.47363  0.25907  1.0000
  C   C643      1.0  0.73310  0.14707  0.32248  1.0000
  C   C644      1.0  0.80570  0.44120  0.31662  1.0000
  S   S211      1.0  0.88787  0.22091  0.28604  1.0000
  Fe  Fe106     1.0  0.91917  0.23095  0.29742  1.0000
  S   S212      1.0  0.91911  0.25083  0.32660  1.0000
  S   S213      1.0  0.94079  0.19636  0.29482  1.0000
  H   H648      1.0  0.53125  0.29333  0.25681  1.0000
  S   S214      1.0  0.79239  0.14554  0.29139  1.0000
  Fe  Fe107     1.0  0.91073  0.18778  0.27967  1.0000
  S   S215      1.0  0.62653  0.21744  0.30585  1.0000
  H   H649      1.0  0.72034  0.19819  0.25626  1.0000
  Fe  Fe108     1.0  0.64235  0.27638  0.31589  1.0000
  S   S216      1.0  0.61687  0.25706  0.34053  1.0000
  S   S217      1.0  0.65411  0.30719  0.32652  1.0000
  Fe  Fe109     1.0  0.64250  0.22543  0.33534  1.0000
  S   S218      1.0  0.65264  0.19710  0.36357  1.0000
  Fe  Fe110     1.0  0.60288  0.25107  0.30894  1.0000
  S   S219      1.0  0.56342  0.25569  0.31399  1.0000
  S   S220      1.0  0.66911  0.24511  0.31334  1.0000
  H   H650      1.0  0.68695  0.23281  0.42649  1.0000
  Fe  Fe111     1.0  0.76571  0.21055  0.40013  1.0000
  S   S221      1.0  0.73625  0.23534  0.41397  1.0000
  S   S222      1.0  0.75687  0.17991  0.38662  1.0000
  Fe  Fe112     1.0  0.80160  0.23912  0.40810  1.0000
  S   S223      1.0  0.77468  0.26710  0.42170  1.0000
  S   S224      1.0  0.83931  0.24002  0.41063  1.0000
  Fe  Fe113     1.0  0.75765  0.23733  0.44176  1.0000
  S   S225      1.0  0.73899  0.23716  0.47808  1.0000
  Fe  Fe114     1.0  0.75589  0.26246  0.39265  1.0000
  S   S226      1.0  0.73383  0.28818  0.37009  1.0000
  S   S227      1.0  0.78559  0.20948  0.43003  1.0000
  S   S228      1.0  0.78451  0.23740  0.37699  1.0000
  H   H651      1.0  0.63935  0.28140  0.37013  1.0000
  Fe  Fe115     1.0  0.77309  0.38081  0.28268  1.0000
  S   S229      1.0  0.78553  0.37087  0.31731  1.0000
  H   H652      1.0  0.57465  0.24684  0.26610  1.0000
  H   H653      1.0  0.78375  0.48042  0.33839  1.0000
  C   C645      1.0  0.71546  0.18684  0.31540  1.0000
  C   C646      1.0  0.98256  0.23778  0.30891  1.0000
  Fe  Fe116     1.0  0.95283  0.21187  0.25882  1.0000
  H   H654      1.0  0.87533  0.11402  0.28602  1.0000
  C   C647      1.0  0.76321  0.48495  0.29141  1.0000
  H   H655      1.0  0.75898  0.45256  0.28091  1.0000
  C   C648      1.0  0.66845  0.14854  0.32569  1.0000
  H   H656      1.0  0.75665  0.47995  0.30928  1.0000
  C   C649      1.0  0.74802  0.31156  0.35623  1.0000
  C   C650      1.0  0.73837  0.32623  0.33812  1.0000
  C   C651      1.0  0.74969  0.34472  0.32639  1.0000
  C   C652      1.0  0.77049  0.34881  0.33303  1.0000
  C   C653      1.0  0.77991  0.33445  0.35149  1.0000
  C   C654      1.0  0.76884  0.31560  0.36291  1.0000
  H   H657      1.0  0.72219  0.32322  0.33310  1.0000
  H   H658      1.0  0.74213  0.35600  0.31242  1.0000
  H   H659      1.0  0.79597  0.33765  0.35671  1.0000
  H   H660      1.0  0.77629  0.30434  0.37698  1.0000
  C   C655      1.0  0.68128  0.26577  0.40477  1.0000
  S   S230      1.0  0.69984  0.11918  0.26875  1.0000
  C   C656      1.0  0.66676  0.32635  0.30413  1.0000
  C   C657      1.0  0.68081  0.34158  0.30930  1.0000
  C   C658      1.0  0.69157  0.35669  0.29164  1.0000
  H   H661      1.0  0.65545  0.16182  0.31741  1.0000
  S   S231      1.0  0.75570  0.09494  0.29665  1.0000
  H   H662      1.0  0.73520  0.28511  0.31459  1.0000
  H   H663      1.0  0.68337  0.34171  0.32700  1.0000
  H   H664      1.0  0.70250  0.36834  0.29569  1.0000
  H   H665      1.0  0.81927  0.30869  0.32864  1.0000
  C   C659      1.0  0.68183  0.19304  0.36921  1.0000
  C   C660      1.0  0.69177  0.17085  0.37792  1.0000
  C   C661      1.0  0.71500  0.16687  0.38255  1.0000
  C   C662      1.0  0.72821  0.18521  0.37934  1.0000
  C   C663      1.0  0.71832  0.20751  0.37064  1.0000
  C   C664      1.0  0.69523  0.21136  0.36527  1.0000
  H   H666      1.0  0.68151  0.15663  0.38103  1.0000
  H   H667      1.0  0.72252  0.14963  0.38928  1.0000
  H   H668      1.0  0.72850  0.22177  0.36795  1.0000
  H   H669      1.0  0.68764  0.22859  0.35871  1.0000
  C   C665      1.0  0.54701  0.24777  0.29456  1.0000
  H   H670      1.0  0.71688  0.20518  0.31207  1.0000
  C   C666      1.0  0.64445  0.24861  0.39167  1.0000
  S   S232      1.0  0.80476  0.08512  0.26240  1.0000
  H   H671      1.0  0.82421  0.43300  0.26084  1.0000
  H   H672      1.0  0.82182  0.49315  0.29405  1.0000
  C   C667      1.0  0.81108  0.42975  0.29710  1.0000
  N   N55       1.0  0.66788  0.27920  0.38933  1.0000
  H   H673      1.0  0.70371  0.28892  0.31785  1.0000
  C   C668      1.0  0.82063  0.44140  0.27631  1.0000
  C   C669      1.0  0.84987  0.29897  0.30496  1.0000
  C   C670      1.0  0.82956  0.16909  0.28784  1.0000
  Fe  Fe117     1.0  0.65134  0.23992  0.28398  1.0000
  H   H674      1.0  0.63029  0.24177  0.38619  1.0000
  C   C671      1.0  0.69359  0.14954  0.26672  1.0000
  H   H675      1.0  0.68510  0.30059  0.36214  1.0000
  C   C672      1.0  0.89602  0.24816  0.34910  1.0000
  C   C673      1.0  0.89995  0.25058  0.37124  1.0000
  C   C674      1.0  0.88224  0.24820  0.38978  1.0000
  C   C675      1.0  0.86020  0.24407  0.38628  1.0000
  C   C676      1.0  0.85586  0.24236  0.36398  1.0000
  C   C677      1.0  0.87394  0.24406  0.34539  1.0000
  H   H676      1.0  0.91690  0.25389  0.37418  1.0000
  H   H677      1.0  0.88565  0.24958  0.40696  1.0000
  H   H678      1.0  0.83878  0.23938  0.36115  1.0000
  H   H679      1.0  0.87069  0.24253  0.32824  1.0000
  H   H680      1.0  0.79775  0.43216  0.33255  1.0000
  C   C678      1.0  0.86260  0.12946  0.28622  1.0000
  H   H681      1.0  0.79536  0.14411  0.36917  1.0000
  C   C679      1.0  0.82229  0.14755  0.28796  1.0000
  H   H682      1.0  0.51600  0.24760  0.31938  1.0000
  H   H683      1.0  0.72016  0.26084  0.31483  1.0000
  S   S233      1.0  0.62654  0.27321  0.28442  1.0000
  C   C680      1.0  0.82487  0.46419  0.27533  1.0000
  H   H684      1.0  0.65787  0.31445  0.37552  1.0000
  C   C681      1.0  0.85334  0.17085  0.28678  1.0000
  H   H685      1.0  0.81676  0.18441  0.28881  1.0000
  C   C682      1.0  0.75518  0.01027  0.27574  1.0000
  C   C683      1.0  0.52331  0.24591  0.30172  1.0000
  C   C684      1.0  0.71098  0.14007  0.32455  1.0000
  H   H686      1.0  0.74710  0.02779  0.27113  1.0000
  Fe  Fe118     1.0  0.78306  0.11564  0.27691  1.0000
  H   H687      1.0  0.70923  0.25332  0.27980  1.0000
  C   C685      1.0  0.84640  0.15620  0.34432  1.0000
  H   H688      1.0  0.75283  0.18407  0.49701  1.0000
  C   C686      1.0  0.86552  0.16665  0.34717  1.0000
  C   C687      1.0  0.86274  0.18223  0.36320  1.0000
  H   H689      1.0  0.84877  0.14395  0.33201  1.0000
  H   H690      1.0  0.88233  0.16274  0.33688  1.0000
  H   H691      1.0  0.87736  0.19060  0.36558  1.0000
  N   N56       1.0  0.85900  0.29807  0.28237  1.0000
  C   C688      1.0  0.84507  0.30480  0.26520  1.0000
  H   H692      1.0  0.65636  0.14945  0.27029  1.0000
  N   N57       1.0  0.72006  0.28529  0.28389  1.0000
  H   H693      1.0  0.71338  0.47161  0.27427  1.0000
  H   H694      1.0  0.67820  0.19196  0.31601  1.0000
  C   C689      1.0  0.88349  0.28854  0.27660  1.0000
  C   C690      1.0  0.71148  0.16343  0.26337  1.0000
  H   H695      1.0  0.98045  0.25675  0.30302  1.0000
  H   H696      1.0  0.75240  0.17615  0.31625  1.0000
  H   H697      1.0  0.97508  0.22976  0.29639  1.0000
  Fe  Fe119     1.0  0.77525  0.06523  0.27898  1.0000
  H   H698      1.0  0.89430  0.29010  0.29011  1.0000
  H   H699      1.0  0.88452  0.27000  0.27485  1.0000
  H   H700      1.0  0.89119  0.29757  0.25994  1.0000
  H   H701      1.0  0.70940  0.12173  0.32800  1.0000
  H   H702      1.0  0.74849  0.13438  0.32441  1.0000
  C   C691      1.0  0.83883  0.12777  0.28675  1.0000
  H   H703      1.0  0.65438  0.21732  0.41405  1.0000
  C   C692      1.0  0.69360  0.17925  0.31764  1.0000
  C   C693      1.0  0.86986  0.15097  0.28645  1.0000
  H   H704      1.0  0.86074  0.29291  0.31864  1.0000
  N   N58       1.0  0.69159  0.15613  0.32212  1.0000
  C   C694      1.0  0.73531  0.17060  0.31786  1.0000
  H   H705      1.0  0.68350  0.30960  0.39004  1.0000
  C   C695      1.0  0.67382  0.30211  0.37885  1.0000
  C   C696      1.0  0.84100  0.18707  0.37617  1.0000
  H   H706      1.0  0.69603  0.27219  0.40961  1.0000
  H   H707      1.0  0.85871  0.18745  0.28702  1.0000
  C   C697      1.0  0.71186  0.47516  0.25552  1.0000
  C   C698      1.0  0.67634  0.24350  0.41426  1.0000
  N   N59       1.0  0.82500  0.16149  0.35670  1.0000
  C   C699      1.0  0.82217  0.17666  0.37252  1.0000
  C   C700      1.0  0.65793  0.23485  0.40748  1.0000
  H   H708      1.0  0.80973  0.13764  0.34137  1.0000
  C   C701      1.0  0.76451  0.46941  0.27536  1.0000
  C   C702      1.0  0.77379  0.00600  0.28884  1.0000
  S   S234      1.0  0.78570  0.02902  0.29652  1.0000
  H   H709      1.0  0.00144  0.19393  0.30713  1.0000
  C   C703      1.0  0.80472  0.15158  0.35258  1.0000
  C   C704      1.0  0.64973  0.27087  0.38265  1.0000
  H   H710      1.0  0.80525  0.18081  0.38241  1.0000
  H   H711      1.0  0.79240  0.16533  0.34396  1.0000
  H   H712      1.0  0.65226  0.31489  0.27719  1.0000
  H   H713      1.0  0.83326  0.11105  0.28712  1.0000
  H   H714      1.0  0.66223  0.14555  0.34446  1.0000
  C   C705      1.0  0.71392  0.26994  0.27146  1.0000
  C   C706      1.0  0.75517  0.23986  0.50009  1.0000
  S   S235      1.0  0.89940  0.15234  0.28762  1.0000
  C   C707      1.0  0.71977  0.27971  0.30896  1.0000
  H   H715      1.0  0.66905  0.13238  0.31796  1.0000
  C   C708      1.0  0.66317  0.32650  0.28129  1.0000
  C   C709      1.0  0.81939  0.47509  0.29521  1.0000
  H   H716      1.0  0.78826  0.24028  0.47845  1.0000
  H   H717      1.0  0.80856  0.46435  0.35159  1.0000
  C   C710      1.0  0.72554  0.30640  0.27317  1.0000
  S   S236      1.0  0.74343  0.40864  0.27452  1.0000
  H   H718      1.0  0.64710  0.19232  0.26462  1.0000
  H   H719      1.0  0.80743  0.41210  0.29802  1.0000
  N   N60       1.0  0.80998  0.46356  0.31553  1.0000
  H   H720      1.0  0.54220  0.30068  0.29096  1.0000
  C   C711      1.0  0.70635  0.18761  0.25927  1.0000
  N   N61       1.0  0.00716  0.22818  0.30996  1.0000
  C   C712      1.0  0.82641  0.30775  0.31075  1.0000
  C   C713      1.0  0.55640  0.24533  0.27177  1.0000
  C   C714      1.0  0.67317  0.34225  0.26374  1.0000
  H   H721      1.0  0.97218  0.23456  0.32616  1.0000
  C   C715      1.0  0.51294  0.29767  0.26322  1.0000
  C   C716      1.0  0.81226  0.31534  0.29330  1.0000
  C   C717      1.0  0.52413  0.30534  0.29951  1.0000
  H   H722      1.0  0.79411  0.32242  0.29756  1.0000
  C   C718      1.0  0.68753  0.35721  0.26886  1.0000
  S   S237      1.0  0.76263  0.35513  0.26333  1.0000
  C   C719      1.0  0.67033  0.16006  0.26753  1.0000
  H   H723      1.0  0.52257  0.32321  0.30384  1.0000
  H   H724      1.0  0.81067  0.31929  0.25667  1.0000
  H   H725      1.0  0.72962  0.31890  0.28310  1.0000
  Fe  Fe120     1.0  0.73812  0.10496  0.26478  1.0000
  S   S238      1.0  0.67688  0.22827  0.25445  1.0000
  C   C720      1.0  0.68315  0.19805  0.25967  1.0000
  C   C721      1.0  0.77931  0.24039  0.49584  1.0000
  S   S239      1.0  0.93360  0.24729  0.26261  1.0000
  H   H726      1.0  0.81094  0.49185  0.33404  1.0000
  C   C722      1.0  0.82155  0.31370  0.27039  1.0000
  C   C723      1.0  0.51803  0.24032  0.26318  1.0000
  S   S240      1.0  0.79902  0.39385  0.25372  1.0000
  C   C724      1.0  0.54188  0.24166  0.25609  1.0000
  H   H727      1.0  0.52202  0.29298  0.31569  1.0000
  C   C725      1.0  0.66509  0.18430  0.26431  1.0000
  H   H728      1.0  0.79544  0.18358  0.49677  1.0000
  H   H729      1.0  0.72928  0.15567  0.26406  1.0000
  H   H730      1.0  0.69344  0.47512  0.25292  1.0000
  H   H731      1.0  0.82115  0.01672  0.25601  1.0000
  H   H732      1.0  0.89323  0.22668  0.71790  1.0000
  S   S241      1.0  0.76162  0.11565  0.73147  1.0000
  H   H733      1.0  0.82682  0.28982  0.72037  1.0000
  Fe  Fe121     1.0  0.75125  0.26550  0.63258  1.0000
  S   S242      1.0  0.74012  0.25238  0.60293  1.0000
  S   S243      1.0  0.73757  0.30141  0.64108  1.0000
  Fe  Fe122     1.0  0.78113  0.22061  0.64720  1.0000
  S   S244      1.0  0.77331  0.20316  0.61863  1.0000
  S   S245      1.0  0.80199  0.20485  0.67622  1.0000
  Fe  Fe123     1.0  0.77754  0.23683  0.59596  1.0000
  S   S246      1.0  0.79716  0.23797  0.55995  1.0000
  Fe  Fe124     1.0  0.73654  0.21985  0.62746  1.0000
  S   S247      1.0  0.70792  0.19917  0.62624  1.0000
  S   S248      1.0  0.78927  0.25288  0.62358  1.0000
  S   S249      1.0  0.74384  0.23440  0.65798  1.0000
  N   N62       1.0  0.75402  0.18271  0.55425  1.0000
  H   H734      1.0  0.72652  0.18404  0.53385  1.0000
  S   S250      1.0  0.74731  0.37670  0.73622  1.0000
  S   S251      1.0  0.79996  0.33322  0.70560  1.0000
  N   N63       1.0  0.81096  0.49205  0.73361  1.0000
  C   C726      1.0  0.76000  0.18291  0.51313  1.0000
  S   S252      1.0  0.65890  0.29035  0.73207  1.0000
  H   H735      1.0  0.54247  0.25148  0.71772  1.0000
  C   C727      1.0  0.54571  0.19241  0.71502  1.0000
  H   H736      1.0  0.67801  0.29228  0.67916  1.0000
  C   C728      1.0  0.73021  0.29152  0.71577  1.0000
  H   H737      1.0  0.82224  0.25195  0.70935  1.0000
  H   H738      1.0  0.78432  0.18377  0.57004  1.0000
  H   H739      1.0  0.73154  0.31572  0.59165  1.0000
  C   C729      1.0  0.71442  0.29273  0.69991  1.0000
  H   H740      1.0  0.73327  0.23400  0.73531  1.0000
  C   C730      1.0  0.79275  0.18268  0.53364  1.0000
  C   C731      1.0  0.75467  0.31036  0.65920  1.0000
  C   C732      1.0  0.74830  0.33191  0.66725  1.0000
  C   C733      1.0  0.76171  0.33888  0.68212  1.0000
  C   C734      1.0  0.78188  0.32458  0.68834  1.0000
  C   C735      1.0  0.78821  0.30313  0.68022  1.0000
  C   C736      1.0  0.77438  0.29584  0.66608  1.0000
  H   H741      1.0  0.73298  0.34318  0.66206  1.0000
  H   H742      1.0  0.75687  0.35556  0.68822  1.0000
  H   H743      1.0  0.80379  0.29204  0.68494  1.0000
  H   H744      1.0  0.77908  0.27896  0.66055  1.0000
  C   C737      1.0  0.68980  0.19512  0.65250  1.0000
  C   C738      1.0  0.67797  0.17572  0.65755  1.0000
  C   C739      1.0  0.66399  0.17169  0.67874  1.0000
  C   C740      1.0  0.66152  0.18723  0.69479  1.0000
  C   C741      1.0  0.67284  0.20700  0.68959  1.0000
  C   C742      1.0  0.68714  0.21087  0.66845  1.0000
  H   H745      1.0  0.67994  0.16356  0.64521  1.0000
  H   H746      1.0  0.65523  0.15640  0.68274  1.0000
  H   H747      1.0  0.67060  0.21917  0.70187  1.0000
  H   H748      1.0  0.69576  0.22617  0.66428  1.0000
  C   C743      1.0  0.78067  0.23970  0.53695  1.0000
  C   C744      1.0  0.79202  0.24035  0.51426  1.0000
  C   C745      1.0  0.88166  0.26168  0.72441  1.0000
  C   C746      1.0  0.74375  0.24006  0.52266  1.0000
  C   C747      1.0  0.75645  0.23991  0.54102  1.0000
  H   H749      1.0  0.69089  0.14681  0.71821  1.0000
  H   H750      1.0  0.72508  0.23970  0.52601  1.0000
  H   H751      1.0  0.74751  0.23943  0.55834  1.0000
  C   C748      1.0  0.77447  0.13940  0.71580  1.0000
  C   C749      1.0  0.76744  0.14892  0.69431  1.0000
  C   C750      1.0  0.77582  0.16901  0.68218  1.0000
  C   C751      1.0  0.79182  0.17935  0.69115  1.0000
  C   C752      1.0  0.79933  0.16955  0.71239  1.0000
  C   C753      1.0  0.79058  0.14966  0.72477  1.0000
  H   H752      1.0  0.75509  0.14098  0.68724  1.0000
  H   H753      1.0  0.76993  0.17639  0.66583  1.0000
  H   H754      1.0  0.81181  0.17739  0.71936  1.0000
  H   H755      1.0  0.79632  0.14230  0.74118  1.0000
  C   C754      1.0  0.70153  0.15434  0.72782  1.0000
  C   C755      1.0  0.73699  0.27031  0.72866  1.0000
  H   H756      1.0  0.52306  0.15711  0.74765  1.0000
  C   C756      1.0  0.68323  0.32464  0.73826  1.0000
  N   N64       1.0  0.85750  0.23725  0.71272  1.0000
  C   C757      1.0  0.58515  0.19952  0.71575  1.0000
  C   C758      1.0  0.87861  0.24052  0.71817  1.0000
  H   H757      1.0  0.84371  0.21682  0.69254  1.0000
  C   C759      1.0  0.53802  0.24483  0.73569  1.0000
  H   H758      1.0  0.73237  0.20262  0.57813  1.0000
  C   C760      1.0  0.85415  0.21469  0.70716  1.0000
  C   C761      1.0  0.73810  0.18418  0.57576  1.0000
  H   H759      1.0  0.71322  0.42939  0.73059  1.0000
  H   H760      1.0  0.68174  0.43528  0.73727  1.0000
  H   H761      1.0  0.89842  0.26419  0.72873  1.0000
  C   C762      1.0  0.74133  0.30536  0.55770  1.0000
  H   H762      1.0  0.80844  0.45558  0.73860  1.0000
  H   H763      1.0  0.74815  0.48803  0.73953  1.0000
  H   H764      1.0  0.68097  0.33174  0.72063  1.0000
  N   N65       1.0  0.78686  0.29835  0.56847  1.0000
  C   C763      1.0  0.78265  0.29418  0.54747  1.0000
  C   C764      1.0  0.76880  0.30619  0.58414  1.0000
  C   C765      1.0  0.77744  0.18281  0.55422  1.0000
  H   H765      1.0  0.72233  0.17579  0.57581  1.0000
  C   C766      1.0  0.81085  0.29367  0.57424  1.0000
  H   H766      1.0  0.72352  0.30763  0.55368  1.0000
  H   H767      1.0  0.86509  0.29594  0.73021  1.0000
  H   H768      1.0  0.77201  0.30932  0.60092  1.0000
  C   C767      1.0  0.74519  0.18301  0.53403  1.0000
  H   H769      1.0  0.82262  0.30317  0.56085  1.0000
  H   H770      1.0  0.82455  0.46642  0.71176  1.0000
  N   N66       1.0  0.54378  0.18441  0.73812  1.0000
  H   H771      1.0  0.84499  0.20486  0.72249  1.0000
  C   C768      1.0  0.72817  0.25057  0.72535  1.0000
  S   S253      1.0  0.61869  0.24115  0.74051  1.0000
  C   C769      1.0  0.78392  0.18274  0.51299  1.0000
  S   S254      1.0  0.64505  0.18104  0.72163  1.0000
  C   C770      1.0  0.75985  0.29751  0.54179  1.0000
  H   H772      1.0  0.74663  0.17536  0.59097  1.0000
  H   H773      1.0  0.87110  0.20402  0.70224  1.0000
  C   C771      1.0  0.74581  0.30989  0.57896  1.0000
  H   H774      1.0  0.70908  0.30929  0.69004  1.0000
  H   H775      1.0  0.73697  0.30700  0.71815  1.0000
  H   H776      1.0  0.67691  0.26197  0.68551  1.0000
  C   C772      1.0  0.84146  0.27601  0.71976  1.0000
  H   H777      1.0  0.81712  0.27477  0.57516  1.0000
  H   H778      1.0  0.70580  0.23702  0.70660  1.0000
  H   H779      1.0  0.81213  0.29899  0.59118  1.0000
  H   H780      1.0  0.56773  0.20684  0.68530  1.0000
  N   N67       1.0  0.70554  0.27340  0.69704  1.0000
  S   S255      1.0  0.75839  0.43861  0.74152  1.0000
  H   H781      1.0  0.79294  0.47243  0.71655  1.0000
  C   C773      1.0  0.86294  0.27949  0.72525  1.0000
  H   H782      1.0  0.81076  0.24028  0.51094  1.0000
  C   C774      1.0  0.68910  0.27511  0.68023  1.0000
  H   H783      1.0  0.71709  0.17491  0.69789  1.0000
  C   C775      1.0  0.71609  0.17029  0.71646  1.0000
  Fe  Fe125     1.0  0.78232  0.35460  0.73315  1.0000
  H   H784      1.0  0.69883  0.27282  0.66294  1.0000
  C   C776      1.0  0.83901  0.25462  0.71353  1.0000
  H   H785      1.0  0.75659  0.29341  0.52539  1.0000
  C   C777      1.0  0.80922  0.47060  0.72469  1.0000
  C   C778      1.0  0.56636  0.20019  0.70352  1.0000
  C   C779      1.0  0.72993  0.17960  0.72895  1.0000
  C   C780      1.0  0.71252  0.25241  0.70920  1.0000
  H   H786      1.0  0.74206  0.19122  0.72005  1.0000
  H   H787      1.0  0.81117  0.18354  0.53363  1.0000
  H   H788      1.0  0.79690  0.28737  0.53530  1.0000
  H   H789      1.0  0.53104  0.19330  0.70549  1.0000
  H   H790      1.0  0.60130  0.20549  0.70710  1.0000
  H   H791      1.0  0.70259  0.35144  0.74319  1.0000
  C   C781      1.0  0.69752  0.42301  0.74124  1.0000
  H   H792      1.0  0.74903  0.26924  0.74117  1.0000
  C   C782      1.0  0.58308  0.19116  0.73923  1.0000
  H   H793      1.0  0.69616  0.40598  0.73605  1.0000
  H   H794      1.0  0.84955  0.16350  0.74322  1.0000
  C   C783      1.0  0.51647  0.23679  0.74315  1.0000
  H   H795      1.0  0.57051  0.25045  0.74527  1.0000
  S   S256      1.0  0.80125  0.37912  0.74643  1.0000
  Fe  Fe126     1.0  0.64319  0.20816  0.74456  1.0000
  C   C784      1.0  0.55411  0.24398  0.75123  1.0000
  H   H796      1.0  0.59757  0.19068  0.74888  1.0000
  H   H797      1.0  0.88240  0.33451  0.74975  1.0000
  C   C785      1.0  0.67389  0.30434  0.74829  1.0000
  C   C786      1.0  0.56218  0.18359  0.75021  1.0000
  C   C787      1.0  0.69543  0.33581  0.75102  1.0000
  C   C788      1.0  0.52225  0.17564  0.74966  1.0000
  Fe  Fe127     1.0  0.64692  0.25736  0.75141  1.0000
  S   S257      1.0  0.67266  0.22500  0.75135  1.0000
  C   C789      1.0  0.70079  0.14809  0.75166  1.0000
  S   S258      1.0  0.88642  0.18738  0.75111  1.0000
  Fe  Fe128     1.0  0.76565  0.39988  0.75239  1.0000
  Fe  Fe129     1.0  0.95389  0.21197  0.78422  1.0000
  C   C790      1.0  0.83905  0.03195  0.80999  1.0000
  H   H798      1.0  0.74773  0.30144  0.80176  1.0000
  Fe  Fe130     1.0  0.90985  0.21655  0.81880  1.0000
  S   S259      1.0  0.88674  0.23109  0.79164  1.0000
  S   S260      1.0  0.89705  0.21000  0.85669  1.0000
  C   C791      1.0  0.69998  0.16019  0.92028  1.0000
  C   C792      1.0  0.70953  0.43746  0.79731  1.0000
  C   C793      1.0  0.88053  0.30382  0.77464  1.0000
  H   H799      1.0  0.77395  0.43010  0.78684  1.0000
  S   S261      1.0  0.92825  0.18736  0.79995  1.0000
  S   S262      1.0  0.93727  0.23981  0.80570  1.0000
  Fe  Fe131     1.0  0.77998  0.24526  0.91508  1.0000
  S   S263      1.0  0.79011  0.21480  0.94116  1.0000
  S   S264      1.0  0.80391  0.26944  0.89481  1.0000
  Fe  Fe132     1.0  0.73204  0.23227  0.91401  1.0000
  S   S265      1.0  0.73784  0.20056  0.93988  1.0000
  S   S266      1.0  0.69826  0.24374  0.89882  1.0000
  Fe  Fe133     1.0  0.75362  0.22324  0.95893  1.0000
  Fe  Fe134     1.0  0.77359  0.19498  0.92004  1.0000
  S   S267      1.0  0.79141  0.16085  0.90981  1.0000
  S   S268      1.0  0.74483  0.25566  0.93449  1.0000
  S   S269      1.0  0.76646  0.22477  0.89253  1.0000
  Fe  Fe135     1.0  0.80986  0.09443  0.79781  1.0000
  S   S270      1.0  0.78171  0.12361  0.78965  1.0000
  S   S271      1.0  0.84427  0.09987  0.80702  1.0000
  Fe  Fe136     1.0  0.77855  0.05692  0.80015  1.0000
  S   S272      1.0  0.74735  0.08322  0.79276  1.0000
  Fe  Fe137     1.0  0.75894  0.10378  0.81687  1.0000
  S   S273      1.0  0.73567  0.12555  0.84147  1.0000
  S   S274      1.0  0.78771  0.07611  0.82676  1.0000
  Fe  Fe138     1.0  0.65822  0.21787  0.78857  1.0000
  S   S275      1.0  0.63395  0.25140  0.78932  1.0000
  S   S276      1.0  0.68668  0.20181  0.81015  1.0000
  C   C794      1.0  0.86421  0.04932  0.77678  1.0000
  Fe  Fe139     1.0  0.91542  0.25225  0.77694  1.0000
  S   S277      1.0  0.93434  0.22645  0.75405  1.0000
  C   C795      1.0  0.85153  0.33817  0.77464  1.0000
  Fe  Fe140     1.0  0.60765  0.23231  0.77844  1.0000
  H   H800      1.0  0.81595  0.47527  0.76757  1.0000
  H   H801      1.0  0.83260  0.12929  0.76514  1.0000
  S   S278      1.0  0.63079  0.19808  0.78176  1.0000
  S   S279      1.0  0.75729  0.38246  0.78862  1.0000
  S   S280      1.0  0.81417  0.34345  0.80821  1.0000
  S   S281      1.0  0.71085  0.34187  0.79107  1.0000
  H   H802      1.0  0.70861  0.31470  0.88190  1.0000
  C   C796      1.0  0.77154  0.46384  0.79759  1.0000
  C   C797      1.0  0.76909  0.44855  0.78239  1.0000
  H   H803      1.0  0.72308  0.16072  0.79703  1.0000
  C   C798      1.0  0.70669  0.43902  0.77404  1.0000
  C   C799      1.0  0.71338  0.15017  0.78874  1.0000
  H   H804      1.0  0.77825  0.45706  0.81375  1.0000
  H   H805      1.0  0.70718  0.41597  0.83032  1.0000
  C   C800      1.0  0.51073  0.22849  0.76645  1.0000
  N   N68       1.0  0.71431  0.15739  0.76382  1.0000
  S   S282      1.0  0.56970  0.23203  0.79372  1.0000
  C   C801      1.0  0.68805  0.30701  0.78417  1.0000
  H   H806      1.0  0.85501  0.04014  0.76658  1.0000
  H   H807      1.0  0.88607  0.05825  0.80994  1.0000
  C   C802      1.0  0.67907  0.17805  0.88845  1.0000
  H   H808      1.0  0.66992  0.27959  0.77893  1.0000
  H   H809      1.0  0.68948  0.30027  0.80203  1.0000
  H   H810      1.0  0.69351  0.38386  0.81528  1.0000
  H   H811      1.0  0.78758  0.30268  0.81161  1.0000
  Fe  Fe141     1.0  0.74202  0.35761  0.77206  1.0000
  N   N69       1.0  0.85831  0.04274  0.80167  1.0000
  H   H812      1.0  0.52276  0.22071  0.79998  1.0000
  H   H813      1.0  0.72111  0.13174  0.79223  1.0000
  Fe  Fe142     1.0  0.79117  0.35957  0.78126  1.0000
  C   C803      1.0  0.76077  0.45722  0.76138  1.0000
  C   C804      1.0  0.69625  0.23435  0.87250  1.0000
  C   C805      1.0  0.71437  0.21934  0.86231  1.0000
  C   C806      1.0  0.71160  0.21034  0.84246  1.0000
  C   C807      1.0  0.69070  0.21623  0.83275  1.0000
  C   C808      1.0  0.67289  0.23200  0.84232  1.0000
  C   C809      1.0  0.67567  0.24103  0.86222  1.0000
  H   H814      1.0  0.73025  0.21410  0.87005  1.0000
  H   H815      1.0  0.72552  0.19839  0.83485  1.0000
  H   H816      1.0  0.65668  0.23660  0.83492  1.0000
  H   H817      1.0  0.66158  0.25268  0.87003  1.0000
  C   C810      1.0  0.77603  0.15097  0.89088  1.0000
  C   C811      1.0  0.78473  0.13035  0.88175  1.0000
  C   C812      1.0  0.77262  0.12259  0.86630  1.0000
  C   C813      1.0  0.75176  0.13540  0.85998  1.0000
  C   C814      1.0  0.74331  0.15613  0.86895  1.0000
  C   C815      1.0  0.75526  0.16382  0.88451  1.0000
  H   H818      1.0  0.80080  0.12033  0.88668  1.0000
  H   H819      1.0  0.77922  0.10646  0.85974  1.0000
  H   H820      1.0  0.72738  0.16619  0.86399  1.0000
  H   H821      1.0  0.74836  0.17964  0.89166  1.0000
  C   C816      1.0  0.67597  0.15664  0.85689  1.0000
  H   H822      1.0  0.87537  0.04956  0.85209  1.0000
  H   H823      1.0  0.78382  0.24435  0.98791  1.0000
  H   H824      1.0  0.66178  0.17083  0.85243  1.0000
  H   H825      1.0  0.51953  0.17745  0.76832  1.0000
  H   H826      1.0  0.69866  0.12223  0.88304  1.0000
  C   C817      1.0  0.83898  0.32784  0.79454  1.0000
  C   C818      1.0  0.84684  0.30529  0.80412  1.0000
  C   C819      1.0  0.86755  0.29324  0.79413  1.0000
  H   H827      1.0  0.83714  0.29730  0.81946  1.0000
  H   H828      1.0  0.87396  0.27623  0.80214  1.0000
  C   C820      1.0  0.52697  0.22755  0.78203  1.0000
  C   C821      1.0  0.70475  0.41755  0.81230  1.0000
  S   S283      1.0  0.90755  0.28994  0.76306  1.0000
  C   C822      1.0  0.85571  0.12413  0.79120  1.0000
  C   C823      1.0  0.87409  0.13217  0.79888  1.0000
  C   C824      1.0  0.88329  0.15179  0.78680  1.0000
  H   H829      1.0  0.71375  0.12415  0.91948  1.0000
  H   H830      1.0  0.88123  0.12327  0.81421  1.0000
  H   H831      1.0  0.89751  0.15780  0.79279  1.0000
  C   C825      1.0  0.87046  0.22588  0.86661  1.0000
  C   C826      1.0  0.86192  0.22234  0.89009  1.0000
  C   C827      1.0  0.84118  0.23537  0.89869  1.0000
  C   C828      1.0  0.82908  0.25221  0.88387  1.0000
  C   C829      1.0  0.83730  0.25547  0.86032  1.0000
  C   C830      1.0  0.85795  0.24225  0.85167  1.0000
  H   H832      1.0  0.87151  0.20966  0.90172  1.0000
  H   H833      1.0  0.83491  0.23279  0.91692  1.0000
  H   H834      1.0  0.82767  0.26809  0.84877  1.0000
  H   H835      1.0  0.86434  0.24506  0.83356  1.0000
  C   C831      1.0  0.75467  0.48122  0.75576  1.0000
  H   H836      1.0  0.85906  0.06829  0.77227  1.0000
  C   C832      1.0  0.84667  0.13556  0.77126  1.0000
  S   S284      1.0  0.77520  0.33351  0.76747  1.0000
  H   H837      1.0  0.69500  0.15233  0.79714  1.0000
  C   C833      1.0  0.69747  0.32719  0.77413  1.0000
  C   C834      1.0  0.86535  0.04405  0.84041  1.0000
  C   C835      1.0  0.76585  0.48786  0.79183  1.0000
  C   C836      1.0  0.00764  0.23986  0.77078  1.0000
  C   C837      1.0  0.87454  0.16314  0.76670  1.0000
  H   H838      1.0  0.84048  0.02975  0.86748  1.0000
  C   C838      1.0  0.84573  0.03307  0.84903  1.0000
  C   C839      1.0  0.70350  0.13925  0.91121  1.0000
  C   C840      1.0  0.85627  0.15493  0.75887  1.0000
  H   H839      1.0  0.88329  0.04516  0.77156  1.0000
  H   H840      1.0  0.00564  0.23359  0.82154  1.0000
  C   C841      1.0  0.67672  0.29535  0.77113  1.0000
  Fe  Fe143     1.0  0.90731  0.20400  0.77146  1.0000
  H   H841      1.0  0.71065  0.45446  0.76243  1.0000
  Fe  Fe144     1.0  0.77291  0.10092  0.76609  1.0000
  N   N70       1.0  0.83048  0.17042  0.85645  1.0000
  C   C842      1.0  0.81329  0.18905  0.85667  1.0000
  C   C843      1.0  0.83015  0.15357  0.84305  1.0000
  C   C844      1.0  0.79458  0.19062  0.84398  1.0000
  C   C845      1.0  0.81178  0.15465  0.83009  1.0000
  C   C846      1.0  0.79378  0.17318  0.83076  1.0000
  C   C847      1.0  0.84990  0.16894  0.86990  1.0000
  H   H842      1.0  0.81372  0.20250  0.86716  1.0000
  H   H843      1.0  0.84394  0.13897  0.84255  1.0000
  H   H844      1.0  0.78055  0.20497  0.84484  1.0000
  H   H845      1.0  0.81136  0.14095  0.81994  1.0000
  H   H846      1.0  0.77910  0.17379  0.82132  1.0000
  H   H847      1.0  0.85557  0.15068  0.87696  1.0000
  H   H848      1.0  0.86489  0.17619  0.85885  1.0000
  H   H849      1.0  0.84465  0.17866  0.88495  1.0000
  S   S285      1.0  0.74294  0.21987  0.99758  1.0000
  H   H850      1.0  0.66979  0.13988  0.85633  1.0000
  C   C848      1.0  0.69707  0.39958  0.80390  1.0000
  S   S286      1.0  0.78137  0.01825  0.81221  1.0000
  C   C849      1.0  0.83255  0.02686  0.83376  1.0000
  S   S287      1.0  0.80345  0.07311  0.77168  1.0000
  H   H851      1.0  0.70102  0.28924  0.87280  1.0000
  N   N71       1.0  0.68279  0.15752  0.87955  1.0000
  C   C850      1.0  0.68762  0.17972  0.90891  1.0000
  H   H852      1.0  0.66997  0.19345  0.87945  1.0000
  H   H853      1.0  0.68895  0.38744  0.77409  1.0000
  C   C851      1.0  0.87146  0.04872  0.81654  1.0000
  H   H854      1.0  0.70723  0.16141  0.93582  1.0000
  H   H855      1.0  0.72043  0.28589  0.89397  1.0000
  C   C852      1.0  0.54891  0.23491  0.77435  1.0000
  C   C853      1.0  0.69477  0.13823  0.89066  1.0000
  H   H856      1.0  0.68516  0.19624  0.91554  1.0000
  H   H857      1.0  0.98946  0.24737  0.77247  1.0000
  N   N72       1.0  0.69983  0.42104  0.76582  1.0000
  H   H858      1.0  0.68946  0.13562  0.76033  1.0000
  C   C854      1.0  0.75726  0.49653  0.77091  1.0000
  H   H859      1.0  0.69130  0.15858  0.84346  1.0000
  C   C855      1.0  0.87240  0.32624  0.76482  1.0000
  N   N73       1.0  0.86883  0.30981  0.85249  1.0000
  C   C856      1.0  0.88074  0.28833  0.85850  1.0000
  C   C857      1.0  0.87795  0.32457  0.83439  1.0000
  C   C858      1.0  0.90170  0.28060  0.84541  1.0000
  C   C859      1.0  0.89905  0.31755  0.82113  1.0000
  C   C860      1.0  0.91080  0.29532  0.82652  1.0000
  C   C861      1.0  0.84629  0.31734  0.86558  1.0000
  H   H860      1.0  0.87381  0.27675  0.87314  1.0000
  H   H861      1.0  0.86835  0.34149  0.82944  1.0000
  H   H862      1.0  0.91049  0.26312  0.84962  1.0000
  H   H863      1.0  0.90566  0.32882  0.80605  1.0000
  H   H864      1.0  0.92664  0.28941  0.81571  1.0000
  H   H865      1.0  0.83352  0.32586  0.85364  1.0000
  H   H866      1.0  0.83853  0.30246  0.87624  1.0000
  H   H867      1.0  0.84852  0.32972  0.87716  1.0000
  N   N74       1.0  0.73534  0.29746  0.85979  1.0000
  C   C862      1.0  0.75710  0.29817  0.86536  1.0000
  C   C863      1.0  0.73191  0.29874  0.83723  1.0000
  C   C864      1.0  0.77617  0.30003  0.84811  1.0000
  C   C865      1.0  0.75065  0.30030  0.81960  1.0000
  C   C866      1.0  0.77291  0.30103  0.82511  1.0000
  C   C867      1.0  0.71537  0.29690  0.87798  1.0000
  H   H868      1.0  0.75983  0.29736  0.88323  1.0000
  H   H869      1.0  0.71458  0.29881  0.83270  1.0000
  H   H870      1.0  0.79335  0.30084  0.85256  1.0000
  H   H871      1.0  0.84555  0.35564  0.76719  1.0000
  H   H872      1.0  0.71579  0.45147  0.80353  1.0000
  H   H873      1.0  0.81700  0.01867  0.84024  1.0000
  S   S288      1.0  0.99215  0.19713  0.78167  1.0000
  C   C868      1.0  0.69465  0.40165  0.78048  1.0000
  H   H874      1.0  0.75828  0.02196  0.77083  1.0000
  C   C869      1.0  0.81493  0.49144  0.75593  1.0000
  H   H875      1.0  0.56069  0.17746  0.76856  1.0000
  H   H876      1.0  0.82829  0.02759  0.79829  1.0000
  H   H877      1.0  0.74017  0.17961  0.76230  1.0000
  C   C870      1.0  0.72895  0.17278  0.75277  1.0000
  H   H878      1.0  0.84451  0.77859  0.17052  1.0000
  H   H879      1.0  0.63631  0.78895  0.22279  1.0000
  Fe  Fe145     1.0  0.90670  0.73063  0.24964  1.0000
  H   H880      1.0  0.81230  0.74749  0.02063  1.0000
  C   C871      1.0  0.84836  0.79059  0.18179  1.0000
  N   N75       1.0  0.73744  0.66981  0.20666  1.0000
  C   C872      1.0  0.75171  0.64909  0.20926  1.0000
  S   S289      1.0  0.81893  0.62431  0.25170  1.0000
  H   H881      1.0  0.59554  0.81610  0.24998  1.0000
  H   H882      1.0  0.56599  0.75896  0.20876  1.0000
  C   C873      1.0  0.72392  0.53664  0.24859  1.0000
  C   C874      1.0  0.69150  0.61879  0.23854  1.0000
  S   S290      1.0  0.90131  0.74117  0.21235  1.0000
  H   H883      1.0  0.82138  0.97801  0.24828  1.0000
  Fe  Fe146     1.0  0.78304  0.77377  0.14542  1.0000
  S   S291      1.0  0.77162  0.74606  0.17321  1.0000
  S   S292      1.0  0.79181  0.80700  0.15377  1.0000
  Fe  Fe147     1.0  0.78807  0.74332  0.10735  1.0000
  S   S293      1.0  0.77741  0.71264  0.13212  1.0000
  S   S294      1.0  0.80199  0.74477  0.06928  1.0000
  Fe  Fe148     1.0  0.74977  0.73875  0.14788  1.0000
  S   S295      1.0  0.71399  0.72829  0.16001  1.0000
  Fe  Fe149     1.0  0.79998  0.72260  0.15547  1.0000
  S   S296      1.0  0.82179  0.69827  0.17936  1.0000
  S   S297      1.0  0.75856  0.76888  0.12121  1.0000
  S   S298      1.0  0.81331  0.75078  0.12957  1.0000
  C   C875      1.0  0.80765  0.98440  0.23752  1.0000
  C   C876      1.0  0.77768  0.97644  0.21707  1.0000
  C   C877      1.0  0.83043  0.68701  0.04006  1.0000
  H   H884      1.0  0.63852  0.76757  0.18964  1.0000
  H   H885      1.0  0.74981  0.80524  0.04150  1.0000
  C   C878      1.0  0.70002  0.73810  0.18584  1.0000
  C   C879      1.0  0.68140  0.72729  0.19830  1.0000
  C   C880      1.0  0.67086  0.73389  0.21962  1.0000
  C   C881      1.0  0.67842  0.75184  0.22824  1.0000
  C   C882      1.0  0.69677  0.76292  0.21562  1.0000
  C   C883      1.0  0.70769  0.75593  0.19453  1.0000
  H   H886      1.0  0.67529  0.71356  0.19161  1.0000
  H   H887      1.0  0.65683  0.72512  0.22929  1.0000
  H   H888      1.0  0.70255  0.77692  0.22214  1.0000
  H   H889      1.0  0.72178  0.76462  0.18484  1.0000
  H   H890      1.0  0.70889  0.65317  0.20125  1.0000
  C   C884      1.0  0.79754  0.73796  0.02587  1.0000
  C   C885      1.0  0.78845  0.73420  0.04923  1.0000
  C   C886      1.0  0.76930  0.72201  0.05588  1.0000
  C   C887      1.0  0.75951  0.71339  0.03915  1.0000
  H   H891      1.0  0.76217  0.71906  0.07390  1.0000
  H   H892      1.0  0.74477  0.70383  0.04436  1.0000
  C   C888      1.0  0.87760  0.73127  0.20368  1.0000
  C   C889      1.0  0.87517  0.73409  0.18018  1.0000
  C   C890      1.0  0.85729  0.72492  0.17269  1.0000
  C   C891      1.0  0.84189  0.71280  0.18870  1.0000
  C   C892      1.0  0.84373  0.71078  0.21225  1.0000
  C   C893      1.0  0.86161  0.71994  0.21974  1.0000
  H   H893      1.0  0.88750  0.74288  0.16768  1.0000
  H   H894      1.0  0.85599  0.72648  0.15445  1.0000
  H   H895      1.0  0.83136  0.70208  0.22467  1.0000
  H   H896      1.0  0.86317  0.71798  0.23789  1.0000
  C   C894      1.0  0.75086  0.83061  0.21991  1.0000
  C   C895      1.0  0.74281  0.81420  0.20937  1.0000
  C   C896      1.0  0.75512  0.80703  0.18885  1.0000
  C   C897      1.0  0.77535  0.81649  0.17870  1.0000
  C   C898      1.0  0.78322  0.83308  0.18908  1.0000
  C   C899      1.0  0.77114  0.83994  0.20975  1.0000
  H   H897      1.0  0.72707  0.80705  0.21709  1.0000
  H   H898      1.0  0.74880  0.79443  0.18075  1.0000
  H   H899      1.0  0.79890  0.84038  0.18133  1.0000
  H   H900      1.0  0.77764  0.85237  0.21779  1.0000
  H   H901      1.0  0.71097  0.68139  0.18500  1.0000
  H   H902      1.0  0.75212  0.77438  0.05072  1.0000
  H   H903      1.0  0.74264  0.52438  0.19411  1.0000
  H   H904      1.0  0.63612  0.62945  0.22435  1.0000
  C   C900      1.0  0.64872  0.64677  0.24851  1.0000
  H   H905      1.0  0.78576  0.63169  0.21656  1.0000
  H   H906      1.0  0.89412  0.68511  0.19074  1.0000
  S   S299      1.0  0.73583  0.83869  0.24610  1.0000
  C   C901      1.0  0.79608  0.96843  0.23004  1.0000
  C   C902      1.0  0.87907  0.62884  0.22893  1.0000
  C   C903      1.0  0.80961  0.67203  0.01361  1.0000
  C   C904      1.0  0.65101  0.63107  0.23259  1.0000
  H   H907      1.0  0.87418  0.61337  0.23993  1.0000
  C   C905      1.0  0.87351  0.65704  0.19533  1.0000
  H   H908      1.0  0.79551  0.66915  0.02747  1.0000
  C   C906      1.0  0.71339  0.67067  0.20189  1.0000
  C   C907      1.0  0.73307  0.54004  0.22536  1.0000
  H   H909      1.0  0.77804  0.78742  0.04158  1.0000
  C   C908      1.0  0.74550  0.68996  0.20844  1.0000
  C   C909      1.0  0.77136  0.00024  0.21133  1.0000
  C   C910      1.0  0.81316  0.77863  0.20611  1.0000
  H   H910      1.0  0.81334  0.68788  0.05131  1.0000
  C   C911      1.0  0.67243  0.61733  0.22739  1.0000
  H   H911      1.0  0.73433  0.70642  0.20597  1.0000
  H   H912      1.0  0.77477  0.70561  0.21447  1.0000
  N   N76       1.0  0.60053  0.78526  0.23457  1.0000
  S   S300      1.0  0.77653  0.88840  0.24339  1.0000
  S   S301      1.0  0.71781  0.60068  0.23253  1.0000
  C   C912      1.0  0.83390  0.80504  0.21854  1.0000
  H   H913      1.0  0.67404  0.60524  0.21505  1.0000
  C   C913      1.0  0.79633  0.78015  0.22550  1.0000
  C   C914      1.0  0.79844  0.79452  0.24151  1.0000
  N   N77       1.0  0.82835  0.68182  0.01705  1.0000
  H   H914      1.0  0.86470  0.66367  0.18026  1.0000
  C   C915      1.0  0.58148  0.76564  0.21156  1.0000
  H   H915      1.0  0.85487  0.62747  0.20510  1.0000
  H   H916      1.0  0.88201  0.82866  0.24528  1.0000
  H   H917      1.0  0.84752  0.80811  0.17157  1.0000
  C   C916      1.0  0.60235  0.76187  0.19687  1.0000
  H   H918      1.0  0.76783  0.96417  0.21223  1.0000
  H   H919      1.0  0.78128  0.77099  0.22756  1.0000
  N   N78       1.0  0.83150  0.79119  0.20274  1.0000
  H   H920      1.0  0.80047  0.66803  0.22022  1.0000
  H   H921      1.0  0.81097  0.76803  0.19335  1.0000
  C   C917      1.0  0.77455  0.64814  0.21418  1.0000
  H   H922      1.0  0.86631  0.78474  0.18640  1.0000
  C   C918      1.0  0.86810  0.63669  0.20916  1.0000
  H   H923      1.0  0.60325  0.75221  0.18251  1.0000
  H   H924      1.0  0.83647  0.70419  0.03895  1.0000
  C   C919      1.0  0.62082  0.78242  0.21976  1.0000
  C   C920      1.0  0.62213  0.77047  0.20085  1.0000
  C   C921      1.0  0.88990  0.66917  0.20130  1.0000
  C   C922      1.0  0.76826  0.68963  0.21333  1.0000
  C   C923      1.0  0.76875  0.71703  0.01577  1.0000
  C   C924      1.0  0.90016  0.66112  0.22144  1.0000
  H   H925      1.0  0.74550  0.63313  0.20762  1.0000
  H   H926      1.0  0.70091  0.67838  0.21566  1.0000
  N   N79       1.0  0.89442  0.64137  0.23516  1.0000
  C   C925      1.0  0.81744  0.80690  0.23813  1.0000
  C   C926      1.0  0.78277  0.66855  0.21639  1.0000
  C   C927      1.0  0.75970  0.78818  0.03812  1.0000
  H   H927      1.0  0.84837  0.81510  0.21587  1.0000
  H   H928      1.0  0.84300  0.67345  0.04852  1.0000
  H   H929      1.0  0.91241  0.67104  0.22621  1.0000
  H   H930      1.0  0.73189  0.76318  0.02314  1.0000
  C   C928      1.0  0.58082  0.77764  0.23032  1.0000
  C   C929      1.0  0.73529  0.52201  0.21212  1.0000
  H   H931      1.0  0.81916  0.81833  0.25027  1.0000
  H   H932      1.0  0.80049  0.94996  0.23525  1.0000
  H   H933      1.0  0.73852  0.55663  0.21768  1.0000
  H   H934      1.0  0.56460  0.78025  0.24182  1.0000
  N   N80       1.0  0.75904  0.78466  0.01423  1.0000
  C   C930      1.0  0.78775  0.72943  0.00923  1.0000
  H   H935      1.0  0.84006  0.66580  0.24294  1.0000
  C   C931      1.0  0.74332  0.77172  0.00936  1.0000
  S   S302      1.0  0.84039  0.86140  0.25256  1.0000
  H   H936      1.0  0.92256  0.62313  0.25237  1.0000
  C   C932      1.0  0.81886  0.68144  0.33816  1.0000
  S   S303      1.0  0.78208  0.84262  0.28307  1.0000
  C   C933      1.0  0.87072  0.79801  0.29853  1.0000
  C   C934      1.0  0.82428  0.85576  0.35445  1.0000
  S   S304      1.0  0.73759  0.88329  0.28945  1.0000
  H   H937      1.0  0.68057  0.63237  0.36029  1.0000
  Fe  Fe150     1.0  0.76744  0.86675  0.30885  1.0000
  S   S305      1.0  0.76078  0.85556  0.34709  1.0000
  S   S306      1.0  0.79058  0.89397  0.29415  1.0000
  S   S307      1.0  0.91769  0.71294  0.31328  1.0000
  Fe  Fe151     1.0  0.76748  0.56339  0.29247  1.0000
  H   H938      1.0  0.88399  0.81837  0.34237  1.0000
  Fe  Fe152     1.0  0.74644  0.61056  0.30634  1.0000
  S   S308      1.0  0.77681  0.57806  0.25551  1.0000
  S   S309      1.0  0.72525  0.63309  0.33134  1.0000
  H   H939      1.0  0.68768  0.61120  0.32771  1.0000
  Fe  Fe153     1.0  0.75465  0.86152  0.26204  1.0000
  C   C935      1.0  0.53239  0.72244  0.27329  1.0000
  C   C936      1.0  0.86751  0.82920  0.34647  1.0000
  S   S310      1.0  0.73092  0.58221  0.29534  1.0000
  S   S311      1.0  0.78236  0.59039  0.30699  1.0000
  Fe  Fe154     1.0  0.78006  0.73845  0.41152  1.0000
  S   S312      1.0  0.74618  0.75548  0.42833  1.0000
  S   S313      1.0  0.80805  0.75844  0.39151  1.0000
  Fe  Fe155     1.0  0.76335  0.69151  0.41891  1.0000
  S   S314      1.0  0.72782  0.70470  0.43578  1.0000
  S   S315      1.0  0.77448  0.65478  0.41210  1.0000
  Fe  Fe156     1.0  0.72972  0.73505  0.40785  1.0000
  S   S316      1.0  0.70275  0.75491  0.38625  1.0000
  Fe  Fe157     1.0  0.74771  0.72376  0.45490  1.0000
  C   C937      1.0  0.84224  0.65806  0.26036  1.0000
  S   S317      1.0  0.76345  0.72013  0.38933  1.0000
  S   S318      1.0  0.78335  0.70831  0.43981  1.0000
  Fe  Fe158     1.0  0.62314  0.71131  0.31865  1.0000
  S   S319      1.0  0.59366  0.69875  0.30578  1.0000
  S   S320      1.0  0.63257  0.69860  0.35437  1.0000
  Fe  Fe159     1.0  0.58667  0.73512  0.28788  1.0000
  C   C938      1.0  0.82950  0.83410  0.36743  1.0000
  C   C939      1.0  0.66730  0.64525  0.35195  1.0000
  C   C940      1.0  0.85232  0.83722  0.27027  1.0000
  S   S321      1.0  0.61403  0.74830  0.30345  1.0000
  S   S322      1.0  0.64979  0.70228  0.28893  1.0000
  C   C941      1.0  0.52870  0.74501  0.27890  1.0000
  H   H940      1.0  0.80476  0.65802  0.36659  1.0000
  H   H941      1.0  0.65358  0.65092  0.36583  1.0000
  C   C942      1.0  0.62612  0.63636  0.31241  1.0000
  H   H942      1.0  0.67153  0.80255  0.44015  1.0000
  C   C943      1.0  0.68436  0.73851  0.37677  1.0000
  C   C944      1.0  0.67024  0.74911  0.35990  1.0000
  C   C945      1.0  0.65483  0.73668  0.35248  1.0000
  C   C946      1.0  0.65296  0.71382  0.36241  1.0000
  C   C947      1.0  0.66706  0.70322  0.37936  1.0000
  C   C948      1.0  0.68300  0.71545  0.38631  1.0000
  H   H943      1.0  0.67107  0.76703  0.35265  1.0000
  H   H944      1.0  0.64387  0.74503  0.33959  1.0000
  H   H945      1.0  0.66577  0.68549  0.38701  1.0000
  H   H946      1.0  0.69394  0.70715  0.39927  1.0000
  C   C949      1.0  0.68601  0.78895  0.43520  1.0000
  S   S323      1.0  0.55151  0.75730  0.28671  1.0000
  H   H947      1.0  0.79792  0.97962  0.30559  1.0000
  C   C950      1.0  0.83035  0.70104  0.33185  1.0000
  Fe  Fe160     1.0  0.74135  0.59874  0.25950  1.0000
  H   H948      1.0  0.70627  0.76112  0.27869  1.0000
  C   C951      1.0  0.71717  0.51511  0.25833  1.0000
  H   H949      1.0  0.84507  0.74440  0.35467  1.0000
  C   C952      1.0  0.83236  0.63791  0.26958  1.0000
  Fe  Fe161     1.0  0.76187  0.90887  0.27254  1.0000
  H   H950      1.0  0.64664  0.72923  0.42759  1.0000
  S   S324      1.0  0.88276  0.77463  0.31713  1.0000
  C   C953      1.0  0.83042  0.70468  0.37123  1.0000
  C   C954      1.0  0.73927  0.63891  0.35362  1.0000
  C   C955      1.0  0.75875  0.62415  0.36082  1.0000
  C   C956      1.0  0.76918  0.62879  0.37919  1.0000
  C   C957      1.0  0.76050  0.64848  0.38999  1.0000
  C   C958      1.0  0.74116  0.66335  0.38263  1.0000
  C   C959      1.0  0.73037  0.65840  0.36467  1.0000
  H   H951      1.0  0.76550  0.60894  0.35254  1.0000
  H   H952      1.0  0.78413  0.61724  0.38487  1.0000
  H   H953      1.0  0.73437  0.67857  0.39089  1.0000
  H   H954      1.0  0.71528  0.66986  0.35918  1.0000
  C   C960      1.0  0.85964  0.65677  0.29528  1.0000
  C   C961      1.0  0.84908  0.63707  0.30486  1.0000
  C   C962      1.0  0.83534  0.62771  0.29207  1.0000
  H   H955      1.0  0.81471  0.67227  0.32509  1.0000
  H   H956      1.0  0.81611  0.82754  0.38043  1.0000
  H   H957      1.0  0.72041  0.75473  0.33692  1.0000
  H   H958      1.0  0.83700  0.88057  0.32651  1.0000
  C   C963      1.0  0.88222  0.80416  0.27644  1.0000
  C   C964      1.0  0.71155  0.79948  0.29500  1.0000
  C   C965      1.0  0.84111  0.86413  0.33720  1.0000
  Fe  Fe162     1.0  0.90059  0.74666  0.29636  1.0000
  H   H959      1.0  0.97560  0.74975  0.29023  1.0000
  C   C966      1.0  0.72057  0.77199  0.32736  1.0000
  C   C967      1.0  0.77321  0.82786  0.35846  1.0000
  C   C968      1.0  0.76730  0.82019  0.38189  1.0000
  C   C969      1.0  0.77773  0.79870  0.39191  1.0000
  C   C970      1.0  0.79423  0.78479  0.37857  1.0000
  C   C971      1.0  0.80005  0.79230  0.35506  1.0000
  C   C972      1.0  0.78944  0.81378  0.34496  1.0000
  H   H960      1.0  0.75484  0.83106  0.39242  1.0000
  H   H961      1.0  0.77351  0.79324  0.41016  1.0000
  H   H962      1.0  0.81269  0.78149  0.34465  1.0000
  H   H963      1.0  0.79425  0.81963  0.32692  1.0000
  H   H964      1.0  0.63212  0.61239  0.28751  1.0000
  C   C973      1.0  0.84076  0.83087  0.29224  1.0000
  C   C974      1.0  0.84978  0.81113  0.30619  1.0000
  H   H965      1.0  0.82513  0.84146  0.29873  1.0000
  H   H966      1.0  0.84066  0.80622  0.32305  1.0000
  H   H967      1.0  0.84315  0.74287  0.32517  1.0000
  H   H968      1.0  0.51186  0.72258  0.32377  1.0000
  H   H969      1.0  0.65815  0.76833  0.41570  1.0000
  C   C975      1.0  0.68934  0.63452  0.25442  1.0000
  S   S325      1.0  0.87849  0.66681  0.31073  1.0000
  C   C976      1.0  0.66411  0.75795  0.43107  1.0000
  C   C977      1.0  0.68656  0.75276  0.46221  1.0000
  H   H970      1.0  0.71036  0.51255  0.27648  1.0000
  C   C978      1.0  0.51368  0.71258  0.26821  1.0000
  C   C979      1.0  0.66566  0.72208  0.45706  1.0000
  C   C980      1.0  0.77524  0.96448  0.28827  1.0000
  S   S326      1.0  0.74735  0.94652  0.26348  1.0000
  H   H971      1.0  0.70687  0.74240  0.30564  1.0000
  S   S327      1.0  0.66463  0.76107  0.25439  1.0000
  C   C981      1.0  0.63563  0.64480  0.32924  1.0000
  H   H972      1.0  0.68187  0.76388  0.30112  1.0000
  N   N81       1.0  0.71173  0.77754  0.30673  1.0000
  C   C982      1.0  0.77069  0.50675  0.28445  1.0000
  Fe  Fe163     1.0  0.78848  0.60672  0.27002  1.0000
  S   S328      1.0  0.77132  0.52490  0.30523  1.0000
  H   H973      1.0  0.85196  0.62872  0.32202  1.0000
  H   H974      1.0  0.82791  0.61205  0.29928  1.0000
  H   H975      1.0  0.87316  0.79338  0.37972  1.0000
  H   H976      1.0  0.85287  0.78483  0.36352  1.0000
  C   C983      1.0  0.75688  0.96884  0.27481  1.0000
  H   H977      1.0  0.83541  0.70667  0.31370  1.0000
  N   N82       1.0  0.67890  0.76592  0.44294  1.0000
  H   H978      1.0  0.81487  0.67884  0.39630  1.0000
  N   N83       1.0  0.83570  0.71255  0.34832  1.0000
  Fe  Fe164     1.0  0.94411  0.71442  0.28156  1.0000
  S   S329      1.0  0.87724  0.73053  0.27863  1.0000
  H   H979      1.0  0.87586  0.85685  0.31935  1.0000
  H   H980      1.0  0.54963  0.71251  0.27302  1.0000
  C   C984      1.0  0.65752  0.73582  0.43773  1.0000
  N   N84       1.0  0.85080  0.82102  0.36318  1.0000
  S   S330      1.0  0.75365  0.62879  0.27046  1.0000
  S   S331      1.0  0.98249  0.70128  0.28295  1.0000
  H   H981      1.0  0.69814  0.75907  0.47181  1.0000
  C   C985      1.0  0.81334  0.67339  0.36145  1.0000
  H   H982      1.0  0.83491  0.71361  0.38432  1.0000
  H   H983      1.0  0.70455  0.80400  0.27863  1.0000
  H   H984      1.0  0.78449  0.72068  0.49114  1.0000
  H   H985      1.0  0.00274  0.77416  0.30007  1.0000
  C   C986      1.0  0.81913  0.68503  0.37813  1.0000
  C   C987      1.0  0.66803  0.64871  0.25918  1.0000
  H   H986      1.0  0.86388  0.68277  0.26572  1.0000
  H   H987      1.0  0.60916  0.64413  0.30752  1.0000
  C   C988      1.0  0.85579  0.66757  0.27319  1.0000
  C   C989      1.0  0.86296  0.85090  0.33329  1.0000
  H   H988      1.0  0.84275  0.79442  0.39113  1.0000
  C   C990      1.0  0.66130  0.60935  0.30674  1.0000
  C   C991      1.0  0.72036  0.81651  0.30392  1.0000
  C   C992      1.0  0.72965  0.78858  0.33668  1.0000
  C   C993      1.0  0.72944  0.81099  0.32487  1.0000
  C   C994      1.0  0.85511  0.79731  0.37505  1.0000
  H   H989      1.0  0.86756  0.72651  0.33854  1.0000
  Fe  Fe165     1.0  0.80291  0.87107  0.26657  1.0000
  H   H990      1.0  0.68677  0.72008  0.48448  1.0000
  H   H991      1.0  0.73648  0.78416  0.35314  1.0000
  H   H992      1.0  0.73613  0.82412  0.33199  1.0000
  Fe  Fe166     1.0  0.89670  0.69688  0.29286  1.0000
  C   C995      1.0  0.78363  0.98304  0.29531  1.0000
  H   H993      1.0  0.78312  0.94687  0.29303  1.0000
  C   C996      1.0  0.00845  0.75592  0.29918  1.0000
  H   H994      1.0  0.66107  0.70472  0.46218  1.0000
  Fe  Fe167     1.0  0.61974  0.69286  0.27457  1.0000
  H   H995      1.0  0.69073  0.79150  0.41613  1.0000
  H   H996      1.0  0.58648  0.79101  0.26898  1.0000
  H   H997      1.0  0.70174  0.79111  0.44273  1.0000
  H   H998      1.0  0.62562  0.65896  0.33761  1.0000
  S   S332      1.0  0.73368  0.72639  0.49244  1.0000
  C   C997      1.0  0.68007  0.73066  0.46955  1.0000
  C   C998      1.0  0.70124  0.76037  0.29766  1.0000
  C   C999      1.0  0.63903  0.61846  0.30118  1.0000
  H   H999      1.0  0.67589  0.66047  0.34338  1.0000
  H   H1000     1.0  0.89845  0.79410  0.27041  1.0000
  H   H1001     1.0  0.67186  0.59607  0.29747  1.0000
  C   C1000     1.0  0.00038  0.71862  0.29213  1.0000
  H   H1002     1.0  0.72007  0.83393  0.29465  1.0000
  Fe  Fe168     1.0  0.63828  0.73819  0.27249  1.0000
  C   C1001     1.0  0.84850  0.73252  0.34135  1.0000
  H   H1003     1.0  0.66636  0.66038  0.27183  1.0000
  H   H1004     1.0  0.80702  0.86566  0.35730  1.0000
  C   C1002     1.0  0.99304  0.74213  0.29364  1.0000
  N   N85       1.0  0.65733  0.63553  0.33488  1.0000
  C   C1003     1.0  0.67025  0.61818  0.32371  1.0000
  H   H1005     1.0  0.51662  0.69504  0.26402  1.0000
  S   S333      1.0  0.61027  0.72819  0.25551  1.0000
  H   H1006     1.0  0.70397  0.63572  0.26317  1.0000
  C   C1004     1.0  0.74677  0.99176  0.26878  1.0000
  C   C1005     1.0  0.77913  0.51304  0.26132  1.0000
  H   H1007     1.0  0.73247  0.99522  0.25849  1.0000
  S   S334      1.0  0.92876  0.74974  0.26615  1.0000
  H   H1008     1.0  0.78548  0.52950  0.25586  1.0000
  H   H1009     1.0  0.72228  0.55060  0.25898  1.0000
  H   H1010     1.0  0.61690  0.79331  0.26165  1.0000
  H   H1011     1.0  0.89397  0.62259  0.26916  1.0000
  H   H1012     1.0  0.90728  0.64827  0.26495  1.0000
  S   S335      1.0  0.62103  0.66205  0.25615  1.0000
  C   C1006     1.0  0.87304  0.82382  0.26231  1.0000
  C   C1007     1.0  0.59980  0.79710  0.25474  1.0000
  H   H1013     1.0  0.78505  0.79659  0.25615  1.0000
  S   S336      1.0  0.92442  0.69537  0.26236  1.0000
  C   C1008     1.0  0.90519  0.63335  0.25635  1.0000
  H   H1014     1.0  0.90764  0.71024  0.67417  1.0000
  H   H1015     1.0  0.66536  0.64589  0.74688  1.0000
  H   H1016     1.0  0.86014  0.74459  0.73598  1.0000
  C   C1009     1.0  0.70913  0.65134  0.73738  1.0000
  C   C1010     1.0  0.86208  0.78487  0.66225  1.0000
  H   H1017     1.0  0.81268  0.67155  0.59055  1.0000
  C   C1011     1.0  0.85142  0.82833  0.74430  1.0000
  C   C1012     1.0  0.83405  0.89784  0.73563  1.0000
  C   C1013     1.0  0.86192  0.76428  0.65348  1.0000
  H   H1018     1.0  0.52646  0.73585  0.71263  1.0000
  S   S337      1.0  0.89218  0.80102  0.73081  1.0000
  Fe  Fe169     1.0  0.62492  0.73236  0.74336  1.0000
  H   H1019     1.0  0.81615  0.64565  0.57659  1.0000
  S   S338      1.0  0.63270  0.71355  0.71249  1.0000
  C   C1014     1.0  0.90618  0.72399  0.68539  1.0000
  C   C1015     1.0  0.66686  0.66391  0.73849  1.0000
  Fe  Fe170     1.0  0.74175  0.74123  0.64168  1.0000
  S   S339      1.0  0.74680  0.71198  0.62070  1.0000
  S   S340      1.0  0.70896  0.76588  0.64767  1.0000
  Fe  Fe171     1.0  0.79033  0.73075  0.65569  1.0000
  S   S341      1.0  0.80034  0.70033  0.63576  1.0000
  S   S342      1.0  0.81050  0.74833  0.67598  1.0000
  Fe  Fe172     1.0  0.78199  0.72288  0.60764  1.0000
  S   S343      1.0  0.79852  0.72246  0.57054  1.0000
  Fe  Fe173     1.0  0.76444  0.69172  0.65009  1.0000
  S   S344      1.0  0.75496  0.65603  0.66224  1.0000
  S   S345      1.0  0.77541  0.75417  0.62618  1.0000
  S   S346      1.0  0.75599  0.72002  0.67244  1.0000
  C   C1016     1.0  0.78039  0.72530  0.54860  1.0000
  C   C1017     1.0  0.75604  0.72909  0.55353  1.0000
  C   C1018     1.0  0.74200  0.72970  0.53605  1.0000
  N   N86       1.0  0.78237  0.66518  0.57799  1.0000
  C   C1019     1.0  0.79056  0.72246  0.52597  1.0000
  H   H1020     1.0  0.74800  0.73150  0.57081  1.0000
  C   C1020     1.0  0.75213  0.72657  0.51350  1.0000
  C   C1021     1.0  0.65250  0.72802  0.69238  1.0000
  C   C1022     1.0  0.67172  0.71537  0.68072  1.0000
  C   C1023     1.0  0.68908  0.72694  0.66673  1.0000
  C   C1024     1.0  0.68661  0.75118  0.66353  1.0000
  C   C1025     1.0  0.66677  0.76379  0.67424  1.0000
  C   C1026     1.0  0.65007  0.75223  0.68921  1.0000
  H   H1021     1.0  0.67364  0.69664  0.68314  1.0000
  H   H1022     1.0  0.70433  0.71710  0.65841  1.0000
  H   H1023     1.0  0.66458  0.78252  0.67133  1.0000
  H   H1024     1.0  0.63516  0.76205  0.69812  1.0000
  H   H1025     1.0  0.74654  0.64205  0.73541  1.0000
  C   C1027     1.0  0.79595  0.61387  0.71804  1.0000
  C   C1028     1.0  0.77607  0.60640  0.71271  1.0000
  C   C1029     1.0  0.76378  0.61933  0.69531  1.0000
  C   C1030     1.0  0.77097  0.64006  0.68361  1.0000
  C   C1031     1.0  0.79066  0.64775  0.68916  1.0000
  C   C1032     1.0  0.80334  0.63447  0.70616  1.0000
  C   C1033     1.0  0.76982  0.65976  0.59908  1.0000
  H   H1026     1.0  0.74854  0.61338  0.69106  1.0000
  H   H1027     1.0  0.79626  0.66377  0.68019  1.0000
  H   H1028     1.0  0.81870  0.64031  0.71030  1.0000
  H   H1029     1.0  0.77851  0.65501  0.61445  1.0000
  C   C1034     1.0  0.85624  0.71028  0.73030  1.0000
  C   C1035     1.0  0.84576  0.69744  0.71757  1.0000
  C   C1036     1.0  0.83123  0.70880  0.70110  1.0000
  C   C1037     1.0  0.82712  0.73303  0.69741  1.0000
  C   C1038     1.0  0.83740  0.74576  0.71031  1.0000
  C   C1039     1.0  0.85205  0.73447  0.72652  1.0000
  H   H1030     1.0  0.77035  0.59047  0.72172  1.0000
  H   H1031     1.0  0.82349  0.69883  0.69110  1.0000
  H   H1032     1.0  0.83427  0.76450  0.70757  1.0000
  C   C1040     1.0  0.73674  0.67887  0.72722  1.0000
  S   S347      1.0  0.92336  0.73659  0.73724  1.0000
  C   C1041     1.0  0.52111  0.72365  0.72743  1.0000
  H   H1033     1.0  0.81589  0.91051  0.70603  1.0000
  C   C1042     1.0  0.74551  0.66084  0.60128  1.0000
  C   C1043     1.0  0.55992  0.72071  0.73969  1.0000
  H   H1034     1.0  0.72318  0.73256  0.54006  1.0000
  C   C1044     1.0  0.87700  0.78540  0.67844  1.0000
  H   H1035     1.0  0.72137  0.71454  0.72016  1.0000
  H   H1036     1.0  0.84978  0.76348  0.64150  1.0000
  H   H1037     1.0  0.84637  0.82719  0.72770  1.0000
  H   H1038     1.0  0.90284  0.76578  0.69846  1.0000
  H   H1039     1.0  0.89880  0.71701  0.70305  1.0000
  H   H1040     1.0  0.78127  0.67527  0.54187  1.0000
  H   H1041     1.0  0.87705  0.80118  0.68574  1.0000
  H   H1042     1.0  0.57189  0.70824  0.72964  1.0000
  H   H1043     1.0  0.68080  0.70537  0.72807  1.0000
  C   C1045     1.0  0.80909  0.51262  0.71922  1.0000
  H   H1044     1.0  0.85028  0.80022  0.65690  1.0000
  N   N87       1.0  0.53606  0.71473  0.74333  1.0000
  N   N88       1.0  0.69099  0.66897  0.73547  1.0000
  C   C1046     1.0  0.80325  0.93026  0.73417  1.0000
  H   H1045     1.0  0.67134  0.84266  0.70532  1.0000
  H   H1046     1.0  0.81494  0.67429  0.56002  1.0000
  H   H1047     1.0  0.65533  0.67584  0.74951  1.0000
  C   C1047     1.0  0.69522  0.69144  0.72965  1.0000
  C   C1048     1.0  0.74707  0.67247  0.56022  1.0000
  C   C1049     1.0  0.81763  0.91271  0.72353  1.0000
  H   H1048     1.0  0.87536  0.72819  0.65517  1.0000
  C   C1050     1.0  0.81134  0.53330  0.72704  1.0000
  C   C1051     1.0  0.77137  0.67099  0.55863  1.0000
  H   H1049     1.0  0.92412  0.72778  0.68595  1.0000
  H   H1050     1.0  0.84919  0.67871  0.72011  1.0000
  C   C1052     1.0  0.73407  0.66750  0.58173  1.0000
  H   H1051     1.0  0.80939  0.71960  0.52199  1.0000
  H   H1052     1.0  0.70586  0.63348  0.74186  1.0000
  H   H1053     1.0  0.73562  0.65711  0.61818  1.0000
  N   N89       1.0  0.72662  0.79864  0.69329  1.0000
  C   C1053     1.0  0.72874  0.82142  0.69336  1.0000
  C   C1054     1.0  0.70505  0.79145  0.69720  1.0000
  C   C1055     1.0  0.70891  0.83764  0.69748  1.0000
  C   C1056     1.0  0.68486  0.80718  0.70146  1.0000
  C   C1057     1.0  0.68685  0.83043  0.70150  1.0000
  C   C1058     1.0  0.74740  0.78198  0.68786  1.0000
  H   H1054     1.0  0.74583  0.82712  0.69068  1.0000
  H   H1055     1.0  0.70337  0.77344  0.69701  1.0000
  H   H1056     1.0  0.71071  0.85552  0.69827  1.0000
  H   H1057     1.0  0.66780  0.80132  0.70516  1.0000
  H   H1058     1.0  0.75464  0.68262  0.72359  1.0000
  H   H1059     1.0  0.76362  0.78786  0.69120  1.0000
  H   H1060     1.0  0.74603  0.76493  0.69859  1.0000
  H   H1061     1.0  0.74919  0.77955  0.66939  1.0000
  N   N90       1.0  0.89126  0.74507  0.67698  1.0000
  C   C1059     1.0  0.87646  0.74434  0.66131  1.0000
  C   C1060     1.0  0.89156  0.76522  0.68564  1.0000
  C   C1061     1.0  0.77649  0.72305  0.50847  1.0000
  S   S348      1.0  0.87507  0.69599  0.75036  1.0000
  C   C1062     1.0  0.80782  0.66392  0.57618  1.0000
  H   H1062     1.0  0.84525  0.88400  0.72765  1.0000
  H   H1063     1.0  0.79010  0.94178  0.72520  1.0000
  S   S349      1.0  0.74073  0.83125  0.74775  1.0000
  H   H1064     1.0  0.71517  0.66903  0.58329  1.0000
  H   H1065     1.0  0.73840  0.67800  0.54489  1.0000
  C   C1063     1.0  0.71813  0.69673  0.72527  1.0000
  C   C1064     1.0  0.87325  0.81734  0.75001  1.0000
  S   S350      1.0  0.81133  0.59763  0.73979  1.0000
  H   H1066     1.0  0.66036  0.66637  0.72144  1.0000
  H   H1067     1.0  0.80984  0.54971  0.71572  1.0000
  S   S351      1.0  0.59872  0.76378  0.74891  1.0000
  H   H1068     1.0  0.56055  0.73853  0.73035  1.0000
  C   C1065     1.0  0.73223  0.65605  0.73363  1.0000
  C   C1066     1.0  0.81551  0.53278  0.74970  1.0000
  Fe  Fe174     1.0  0.90671  0.76877  0.75223  1.0000
  H   H1069     1.0  0.80585  0.51312  0.70157  1.0000
  Fe  Fe175     1.0  0.90448  0.74476  0.80130  1.0000
  S   S352      1.0  0.93110  0.76469  0.77892  1.0000
  S   S353      1.0  0.89417  0.75402  0.83713  1.0000
  Fe  Fe176     1.0  0.78642  0.86610  0.79501  1.0000
  S   S354      1.0  0.76236  0.89112  0.81554  1.0000
  S   S355      1.0  0.82360  0.85671  0.80220  1.0000
  Fe  Fe177     1.0  0.74800  0.85675  0.76952  1.0000
  S   S356      1.0  0.72077  0.88150  0.78726  1.0000
  H   H1070     1.0  0.72855  0.59245  0.87243  1.0000
  Fe  Fe178     1.0  0.74876  0.90502  0.78182  1.0000
  C   C1067     1.0  0.81709  0.51180  0.76435  1.0000
  Fe  Fe179     1.0  0.73689  0.86554  0.81908  1.0000
  S   S357      1.0  0.71636  0.84891  0.85063  1.0000
  C   C1068     1.0  0.84228  0.84147  0.78196  1.0000
  S   S358      1.0  0.76230  0.83938  0.80168  1.0000
  H   H1071     1.0  0.69686  0.86120  0.75441  1.0000
  Fe  Fe180     1.0  0.77129  0.71206  0.95751  1.0000
  S   S359      1.0  0.75053  0.73496  0.93150  1.0000
  Fe  Fe181     1.0  0.81222  0.70037  0.92128  1.0000
  S   S360      1.0  0.79565  0.72307  0.89264  1.0000
  S   S361      1.0  0.84725  0.68059  0.91142  1.0000
  Fe  Fe182     1.0  0.78455  0.74835  0.91798  1.0000
  S   S362      1.0  0.79004  0.78566  0.90906  1.0000
  Fe  Fe183     1.0  0.76349  0.70738  0.90840  1.0000
  S   S363      1.0  0.74362  0.69634  0.88289  1.0000
  S   S364      1.0  0.80460  0.72719  0.94523  1.0000
  S   S365      1.0  0.78075  0.68299  0.93588  1.0000
  Fe  Fe184     1.0  0.77434  0.58820  0.82099  1.0000
  S   S366      1.0  0.74360  0.56891  0.82453  1.0000
  S   S367      1.0  0.78648  0.59952  0.85117  1.0000
  S   S368      1.0  0.74306  0.94307  0.76706  1.0000
  H   H1072     1.0  0.85841  0.68351  0.96324  1.0000
  Fe  Fe185     1.0  0.73591  0.59142  0.79162  1.0000
  S   S369      1.0  0.69904  0.60759  0.78753  1.0000
  Fe  Fe186     1.0  0.76656  0.54537  0.80141  1.0000
  S   S370      1.0  0.66838  0.70935  0.81204  1.0000
  S   S371      1.0  0.76514  0.61241  0.78975  1.0000
  S   S372      1.0  0.79823  0.56281  0.80089  1.0000
  H   H1073     1.0  0.82804  0.93636  0.79422  1.0000
  C   C1069     1.0  0.70040  0.67128  0.80492  1.0000
  H   H1074     1.0  0.83603  0.66790  0.76204  1.0000
  H   H1075     1.0  0.98334  0.76421  0.76379  1.0000
  H   H1076     1.0  0.82875  0.76995  0.87113  1.0000
  S   S373      1.0  0.61567  0.75825  0.80059  1.0000
  C   C1070     1.0  0.68235  0.67802  0.86888  1.0000
  C   C1071     1.0  0.77293  0.79252  0.97381  1.0000
  C   C1072     1.0  0.69321  0.84359  0.75557  1.0000
  H   H1077     1.0  0.69416  0.68894  0.85698  1.0000
  C   C1073     1.0  0.69091  0.63579  0.79472  1.0000
  C   C1074     1.0  0.66748  0.64562  0.79535  1.0000
  C   C1075     1.0  0.66056  0.66830  0.80049  1.0000
  C   C1076     1.0  0.67702  0.68119  0.80515  1.0000
  H   H1078     1.0  0.82774  0.62709  0.76928  1.0000
  C   C1077     1.0  0.70733  0.64864  0.79964  1.0000
  C   C1078     1.0  0.83575  0.84007  0.76045  1.0000
  H   H1079     1.0  0.69947  0.60594  0.84471  1.0000
  C   C1079     1.0  0.52834  0.74676  0.78925  1.0000
  H   H1080     1.0  0.72532  0.64125  0.79950  1.0000
  C   C1080     1.0  0.75776  0.67098  0.87184  1.0000
  C   C1081     1.0  0.77460  0.65626  0.88351  1.0000
  C   C1082     1.0  0.78354  0.63461  0.87666  1.0000
  C   C1083     1.0  0.77597  0.62758  0.85785  1.0000
  C   C1084     1.0  0.76007  0.64276  0.84525  1.0000
  C   C1085     1.0  0.75095  0.66446  0.85228  1.0000
  H   H1081     1.0  0.78022  0.66113  0.89834  1.0000
  H   H1082     1.0  0.79601  0.62303  0.88633  1.0000
  H   H1083     1.0  0.75420  0.63752  0.83064  1.0000
  H   H1084     1.0  0.73808  0.67587  0.84301  1.0000
  H   H1085     1.0  0.78818  0.78243  0.85581  1.0000
  C   C1086     1.0  0.95725  0.73158  0.82843  1.0000
  H   H1086     1.0  0.67994  0.78077  0.75819  1.0000
  H   H1087     1.0  0.79427  0.94625  0.76497  1.0000
  C   C1087     1.0  0.82186  0.91976  0.79304  1.0000
  H   H1088     1.0  0.64235  0.67553  0.80145  1.0000
  C   C1088     1.0  0.80154  0.78637  0.79769  1.0000
  C   C1089     1.0  0.70199  0.61701  0.85696  1.0000
  H   H1089     1.0  0.97707  0.70004  0.81808  1.0000
  S   S374      1.0  0.75606  0.56617  0.76855  1.0000
  H   H1090     1.0  0.73448  0.61854  0.89960  1.0000
  S   S375      1.0  0.77086  0.50636  0.81071  1.0000
  C   C1090     1.0  0.73631  0.83159  0.86761  1.0000
  C   C1091     1.0  0.73064  0.81079  0.88062  1.0000
  C   C1092     1.0  0.74708  0.79647  0.89340  1.0000
  C   C1093     1.0  0.76889  0.80334  0.89374  1.0000
  C   C1094     1.0  0.77438  0.82428  0.88098  1.0000
  C   C1095     1.0  0.75829  0.83815  0.86760  1.0000
  H   H1091     1.0  0.71369  0.80561  0.88054  1.0000
  H   H1092     1.0  0.74276  0.78029  0.90309  1.0000
  H   H1093     1.0  0.79120  0.82970  0.88117  1.0000
  H   H1094     1.0  0.76276  0.85418  0.85759  1.0000
  C   C1096     1.0  0.75160  0.96442  0.78082  1.0000
  C   C1097     1.0  0.75049  0.98742  0.76986  1.0000
  H   H1095     1.0  0.65588  0.85337  0.75831  1.0000
  C   C1098     1.0  0.76996  0.97529  0.81103  1.0000
  C   C1099     1.0  0.76117  0.95849  0.80157  1.0000
  H   H1096     1.0  0.77744  0.97049  0.82703  1.0000
  H   H1097     1.0  0.76190  0.94097  0.81030  1.0000
  C   C1100     1.0  0.88261  0.73273  0.85789  1.0000
  C   C1101     1.0  0.88372  0.70991  0.85348  1.0000
  C   C1102     1.0  0.87383  0.69344  0.87039  1.0000
  C   C1103     1.0  0.86213  0.70007  0.89129  1.0000
  C   C1104     1.0  0.86105  0.72287  0.89560  1.0000
  C   C1105     1.0  0.87180  0.73899  0.87918  1.0000
  H   H1098     1.0  0.89220  0.70492  0.83715  1.0000
  H   H1099     1.0  0.87471  0.67578  0.86707  1.0000
  H   H1100     1.0  0.85206  0.72808  0.91171  1.0000
  H   H1101     1.0  0.87135  0.75645  0.88290  1.0000
  C   C1106     1.0  0.97781  0.71694  0.82287  1.0000
  H   H1102     1.0  0.85170  0.78507  0.85484  1.0000
  H   H1103     1.0  0.56646  0.72050  0.75643  1.0000
  Fe  Fe187     1.0  0.62714  0.77516  0.76487  1.0000
  C   C1107     1.0  0.86426  0.83088  0.78740  1.0000
  C   C1108     1.0  0.98028  0.76081  0.83288  1.0000
  C   C1109     1.0  0.66506  0.81651  0.75843  1.0000
  H   H1104     1.0  0.81955  0.51135  0.78226  1.0000
  H   H1105     1.0  0.86938  0.83195  0.80400  1.0000
  S   S376      1.0  0.91988  0.71021  0.79051  1.0000
  S   S377      1.0  0.61405  0.71180  0.77713  1.0000
  H   H1106     1.0  0.98107  0.77807  0.83665  1.0000
  H   H1107     1.0  0.79491  0.73254  0.99137  1.0000
  N   N91       1.0  0.82097  0.91747  0.76888  1.0000
  H   H1108     1.0  0.79342  0.78749  0.78214  1.0000
  C   C1110     1.0  0.75708  0.77925  0.96873  1.0000
  N   N92       1.0  0.83136  0.65968  0.82034  1.0000
  C   C1111     1.0  0.83450  0.67072  0.79819  1.0000
  C   C1112     1.0  0.82705  0.63715  0.82446  1.0000
  C   C1113     1.0  0.83334  0.65914  0.77954  1.0000
  C   C1114     1.0  0.82569  0.62510  0.80621  1.0000
  C   C1115     1.0  0.82881  0.63621  0.78361  1.0000
  C   C1116     1.0  0.83109  0.67239  0.83984  1.0000
  H   H1109     1.0  0.83806  0.68855  0.79473  1.0000
  H   H1110     1.0  0.82448  0.62835  0.84198  1.0000
  C   C1117     1.0  0.74225  0.76864  0.98658  1.0000
  H   H1111     1.0  0.82201  0.60731  0.80967  1.0000
  H   H1112     1.0  0.54074  0.69308  0.77516  1.0000
  H   H1113     1.0  0.81283  0.67963  0.84583  1.0000
  H   H1114     1.0  0.83830  0.66084  0.85458  1.0000
  H   H1115     1.0  0.84189  0.68679  0.83505  1.0000
  H   H1116     1.0  0.66552  0.68008  0.86164  1.0000
  C   C1118     1.0  0.83554  0.90056  0.75842  1.0000
  H   H1117     1.0  0.76946  0.78384  0.82074  1.0000
  H   H1118     1.0  0.82488  0.80121  0.86620  1.0000
  H   H1119     1.0  0.71318  0.68115  0.80869  1.0000
  C   C1119     1.0  0.70893  0.64636  0.88692  1.0000
  H   H1120     1.0  0.71254  0.65808  0.89800  1.0000
  S   S378      1.0  0.55402  0.73735  0.80228  1.0000
  C   C1120     1.0  0.72144  0.62403  0.88788  1.0000
  H   H1121     1.0  0.89632  0.80993  0.77617  1.0000
  H   H1122     1.0  0.67875  0.68473  0.88577  1.0000
  H   H1123     1.0  0.83605  0.78900  0.77946  1.0000
  N   N93       1.0  0.66185  0.82021  0.81445  1.0000
  C   C1121     1.0  0.65683  0.79833  0.81431  1.0000
  C   C1122     1.0  0.68379  0.82362  0.81737  1.0000
  C   C1123     1.0  0.67419  0.77917  0.81650  1.0000
  C   C1124     1.0  0.70153  0.80487  0.81978  1.0000
  C   C1125     1.0  0.69668  0.78252  0.81925  1.0000
  C   C1126     1.0  0.64329  0.84000  0.81259  1.0000
  H   H1124     1.0  0.63941  0.79569  0.81197  1.0000
  H   H1125     1.0  0.68771  0.84093  0.81784  1.0000
  H   H1126     1.0  0.67022  0.76186  0.81595  1.0000
  H   H1127     1.0  0.71884  0.80783  0.82217  1.0000
  H   H1128     1.0  0.71028  0.76780  0.82103  1.0000
  H   H1129     1.0  0.65058  0.85614  0.80459  1.0000
  H   H1130     1.0  0.63058  0.83720  0.80137  1.0000
  H   H1131     1.0  0.63396  0.84251  0.82997  1.0000
  C   C1127     1.0  0.82575  0.67004  0.97387  1.0000
  N   N94       1.0  0.00039  0.74626  0.82761  1.0000
  C   C1128     1.0  0.71815  0.60941  0.87256  1.0000
  Fe  Fe188     1.0  0.94528  0.73060  0.76638  1.0000
  C   C1129     1.0  0.00069  0.75535  0.76589  1.0000
  S   S379      1.0  0.63571  0.81183  0.76028  1.0000
  C   C1130     1.0  0.52828  0.76199  0.76862  1.0000
  H   H1132     1.0  0.85412  0.78742  0.81495  1.0000
  N   N95       1.0  0.69338  0.65380  0.87131  1.0000
  Fe  Fe189     1.0  0.64079  0.72772  0.79046  1.0000
  H   H1133     1.0  0.67719  0.64517  0.84439  1.0000
  C   C1131     1.0  0.83245  0.78531  0.85838  1.0000
  C   C1132     1.0  0.84472  0.68014  0.97745  1.0000
  C   C1133     1.0  0.87952  0.81843  0.77166  1.0000
  C   C1134     1.0  0.68955  0.63932  0.85671  1.0000
  N   N96       1.0  0.82211  0.78502  0.83739  1.0000
  C   C1135     1.0  0.83553  0.78654  0.81631  1.0000
  C   C1136     1.0  0.79874  0.78375  0.83908  1.0000
  C   C1137     1.0  0.82544  0.78729  0.79616  1.0000
  C   C1138     1.0  0.78809  0.78437  0.81930  1.0000
  H   H1134     1.0  0.78456  0.80068  0.95990  1.0000
  Fe  Fe190     1.0  0.78602  0.58537  0.76979  1.0000
  C   C1139     1.0  0.80539  0.93254  0.75688  1.0000
  H   H1135     1.0  0.80416  0.91943  0.80298  1.0000
  S   S380      1.0  0.98330  0.71471  0.76413  1.0000
  C   C1140     1.0  0.76900  0.99824  0.80003  1.0000
  Fe  Fe191     1.0  0.58966  0.74408  0.78400  1.0000
  S   S381      1.0  0.87879  0.75199  0.77588  1.0000
  Fe  Fe192     1.0  0.89656  0.71948  0.76245  1.0000
  H   H1136     1.0  0.65460  0.63566  0.79194  1.0000
  C   C1141     1.0  0.95842  0.75368  0.83342  1.0000
  H   H1137     1.0  0.75279  0.51501  0.76636  1.0000
  H   H1138     1.0  0.84813  0.88875  0.76780  1.0000
  C   C1142     1.0  0.84579  0.68592  0.99932  1.0000
  C   C1143     1.0  0.52909  0.69971  0.76227  1.0000
  C   C1144     1.0  0.67002  0.83915  0.75765  1.0000
  H   H1139     1.0  0.94040  0.72591  0.82867  1.0000
  C   C1145     1.0  0.68349  0.79827  0.75741  1.0000
  H   H1140     1.0  0.94241  0.76522  0.83749  1.0000
  S   S382      1.0  0.75650  0.70565  0.99521  1.0000
  H   H1141     1.0  0.73027  0.75777  0.98284  1.0000
  C   C1146     1.0  0.99938  0.72452  0.82273  1.0000
  H   H1142     1.0  0.75636  0.77721  0.95095  1.0000
  H   H1143     1.0  0.83352  0.90518  0.80148  1.0000
  H   H1144     1.0  0.82481  0.66541  0.95703  1.0000
  S   S383      1.0  0.77472  0.88143  0.76091  1.0000
  H   H1145     1.0  0.81743  0.54866  0.75587  1.0000
  C   C1147     1.0  0.70673  0.80280  0.75461  1.0000
  H   H1146     1.0  0.78600  0.80549  0.00065  1.0000
  H   H1147     1.0  0.81871  0.84806  0.75623  1.0000
  C   C1148     1.0  0.80794  0.66617  0.99195  1.0000
  H   H1148     1.0  0.54399  0.76920  0.76087  1.0000
  C   C1149     1.0  0.00540  0.73134  0.76610  1.0000
  S   S384      1.0  0.65400  0.74544  0.75586  1.0000
  C   C1150     1.0  0.77364  0.79512  0.99681  1.0000
  H   H1149     1.0  0.79270  0.65905  0.98914  1.0000
  C   C1151     1.0  0.75909  0.00433  0.77946  1.0000
  C   C1152     1.0  0.71164  0.82548  0.75360  1.0000
  H   H1150     1.0  0.72093  0.78874  0.75303  1.0000
  H   H1151     1.0  0.74318  0.99213  0.75376  1.0000
  H   H1152     1.0  0.86063  0.69370  0.00202  1.0000
