data_image0
_chemical_formula_structural       S2FeSFeHCSHSH3CHN2HC6H2CH3SH2CHFeSCFeC4HNHCHCH3SC2H4CSH2C4HCH3FeS2FeS2FeSFeSFeS2C6NCHCHFeHSCH3C6H3NSFeHC2HC3H3SH2CHCHSH2S2CHCH4FeSC3H2CH3CHSCHFeHSCNH2CSH3NHCH2CFeHC6H3C2HC4H3CFeC2H5SHSHC2H2SHCFeSFeS2FeS2FeSFeS2C6H4C5H4C2HC7H6C2H5CH2CNCHSH2C2HCHSC2NHCHCHC5HNCHSC2HCH2C2H2FeSCHCHFeHCFeH2S2NSHS2FeHSFeHSFeHC5SCH2C7H3SCSH2SFeH3CHFeS2FeS2FeSFeS3HC2HC3H2CH2C5H3C6H2C5H2C2H2C2H3C3SHCH2CNC6HCHFeH5SHNHCH2C2HNCH3CHCHC4H2CNH2CFeSFeSFeS2FeSFeS3CHCSC2HC7H2CHC4H2C4HCHSHCN2C6H2CH6NC3H3CHC5HC2H3NH2SHCH7CHSH4SHFeC2H3FeH2C3HSC2SC2SFe2HSFeNCSH2CHC4SC2H2SC6H5CHS2NHCHFeCHSC2H2SCH5FeS2FeS2FeSFeS3HC3HCH3C7H3C7H3CHC4H2C3H4C2H3CH2NC6H3CHC2NHSC3H2CHSHNHFeHNSCH2CH2NHCH2SCS2FeSH2CSCHNHC6H2CSCHCNSC3H2CHS2HC2Fe2CHSHFe2H2CHC2H7C2HFeH3SCH2FeHSC2FeS2FeS2FeSFeSFeS2CHC6H4C5H4CNH2C3SHCHCH2CH2CH3C2HCNSH5CHCSHCSFeCH2SC2H2FeSC2H2NHC3H2C6H4C2SHFeCSCSHNCHCH2C2H2CHFeH3C3H2CS
_chemical_formula_sum              "S128 Fe64 H384 C384 N32"
_cell_length_a       39.5478
_cell_length_b       31.1474
_cell_length_c       47.2006
_cell_angle_alpha    90.1479
_cell_angle_beta     82.2091
_cell_angle_gamma    90.0911

_space_group_name_H-M_alt    "P 1"
_space_group_IT_number       1

loop_
  _space_group_symop_operation_xyz
  'x, y, z'

loop_
  _atom_site_type_symbol
  _atom_site_label
  _atom_site_symmetry_multiplicity
  _atom_site_fract_x
  _atom_site_fract_y
  _atom_site_fract_z
  _atom_site_occupancy
  S   S1        1.0  0.36447  0.10816  0.31148  1.0000
  S   S2        1.0  0.40264  0.22333  0.32512  1.0000
  Fe  Fe1       1.0  0.38735  0.05922  0.14904  1.0000
  S   S3        1.0  0.36017  0.10986  0.17807  1.0000
  Fe  Fe2       1.0  0.41512  0.03664  0.08687  1.0000
  H   H1        1.0  0.29292  0.06779  0.20386  1.0000
  C   C1        1.0  0.37624  0.07432  0.25781  1.0000
  S   S4        1.0  0.43345  0.08034  0.11949  1.0000
  H   H2        1.0  0.35227  0.17762  0.27270  1.0000
  S   S5        1.0  0.42828  0.05767  0.04078  1.0000
  H   H3        1.0  0.48932  0.11397  0.14168  1.0000
  H   H4        1.0  0.46595  0.12169  0.34477  1.0000
  H   H5        1.0  0.38262  0.04521  0.26836  1.0000
  C   C2        1.0  0.31483  0.00570  0.19390  1.0000
  H   H6        1.0  0.38152  0.04507  0.21615  1.0000
  N   N1        1.0  0.30120  0.03380  0.24156  1.0000
  N   N2        1.0  0.45644  0.11545  0.25883  1.0000
  H   H7        1.0  0.45762  0.09273  0.18850  1.0000
  C   C3        1.0  0.44902  0.15063  0.27939  1.0000
  C   C4        1.0  0.36758  0.11145  0.27402  1.0000
  C   C5        1.0  0.37583  0.07425  0.22814  1.0000
  C   C6        1.0  0.36597  0.11105  0.21449  1.0000
  C   C7        1.0  0.35805  0.14852  0.23061  1.0000
  C   C8        1.0  0.35925  0.14892  0.26029  1.0000
  H   H8        1.0  0.35026  0.17710  0.22022  1.0000
  H   H9        1.0  0.29973  0.06882  0.28077  1.0000
  C   C9        1.0  0.46777  0.07709  0.26796  1.0000
  H   H10       1.0  0.44401  0.15177  0.22332  1.0000
  H   H11       1.0  0.48451  0.01271  0.25601  1.0000
  H   H12       1.0  0.29267  0.10036  0.25072  1.0000
  S   S6        1.0  0.41321  0.00325  0.16664  1.0000
  H   H13       1.0  0.26564  0.36579  0.26413  1.0000
  H   H14       1.0  0.23896  0.36674  0.29851  1.0000
  C   C10       1.0  0.46082  0.08822  0.21077  1.0000
  H   H15       1.0  0.31595  0.01000  0.17100  1.0000
  Fe  Fe3       1.0  0.45830  0.02243  0.13509  1.0000
  S   S7        1.0  0.36559  0.02142  0.11468  1.0000
  C   C11       1.0  0.31253  0.99669  0.25255  1.0000
  Fe  Fe4       1.0  0.37025  0.16618  0.33961  1.0000
  C   C12       1.0  0.47217  0.04889  0.21992  1.0000
  C   C13       1.0  0.32162  0.46694  0.29552  1.0000
  C   C14       1.0  0.47573  0.04320  0.24869  1.0000
  C   C15       1.0  0.28744  0.06841  0.26088  1.0000
  H   H16       1.0  0.47815  0.02288  0.20471  1.0000
  N   N3        1.0  0.27647  0.41635  0.29168  1.0000
  H   H17       1.0  0.36710  0.00493  0.04113  1.0000
  C   C16       1.0  0.31043  0.42490  0.29173  1.0000
  H   H18       1.0  0.47305  0.16650  0.28356  1.0000
  C   C17       1.0  0.26524  0.37223  0.28730  1.0000
  H   H19       1.0  0.32894  0.39897  0.28973  1.0000
  H   H20       1.0  0.28200  0.34867  0.29632  1.0000
  H   H21       1.0  0.25947  0.06431  0.26667  1.0000
  S   S8        1.0  0.35003  0.32994  0.34718  1.0000
  C   C18       1.0  0.30167  0.03828  0.21267  1.0000
  C   C19       1.0  0.45318  0.12146  0.23060  1.0000
  H   H22       1.0  0.31184  0.99296  0.27547  1.0000
  H   H23       1.0  0.47047  0.07250  0.29033  1.0000
  H   H24       1.0  0.43198  0.17498  0.27157  1.0000
  H   H25       1.0  0.43546  0.13836  0.29998  1.0000
  C   C20       1.0  0.25307  0.44895  0.29470  1.0000
  S   S9        1.0  0.44312  0.97955  0.10063  1.0000
  H   H26       1.0  0.22612  0.44214  0.29485  1.0000
  H   H27       1.0  0.48166  0.10787  0.06249  1.0000
  C   C21       1.0  0.49322  0.12173  0.34506  1.0000
  C   C22       1.0  0.37748  0.01149  0.01919  1.0000
  C   C23       1.0  0.39872  0.26026  0.54564  1.0000
  C   C24       1.0  0.16746  0.44391  0.46281  1.0000
  H   H28       1.0  0.14220  0.45610  0.46081  1.0000
  C   C25       1.0  0.32622  0.26404  0.50213  1.0000
  H   H29       1.0  0.25661  0.29808  0.66320  1.0000
  H   H30       1.0  0.34094  0.26585  0.58120  1.0000
  H   H31       1.0  0.23921  0.40957  0.42110  1.0000
  Fe  Fe5       1.0  0.36334  0.19362  0.40250  1.0000
  S   S10       1.0  0.33956  0.18020  0.44793  1.0000
  S   S11       1.0  0.39608  0.25176  0.39254  1.0000
  Fe  Fe6       1.0  0.41943  0.15745  0.58710  1.0000
  S   S12       1.0  0.44530  0.21507  0.60262  1.0000
  S   S13       1.0  0.43757  0.14267  0.54063  1.0000
  Fe  Fe7       1.0  0.38605  0.13671  0.64792  1.0000
  S   S14       1.0  0.40909  0.19411  0.66698  1.0000
  Fe  Fe8       1.0  0.39452  0.22919  0.62858  1.0000
  S   S15       1.0  0.37880  0.29868  0.62361  1.0000
  Fe  Fe9       1.0  0.45682  0.17384  0.63883  1.0000
  S   S16       1.0  0.36784  0.17297  0.61121  1.0000
  S   S17       1.0  0.43450  0.11523  0.62154  1.0000
  C   C26       1.0  0.29781  0.37920  0.62478  1.0000
  C   C27       1.0  0.29831  0.26668  0.52357  1.0000
  C   C28       1.0  0.33699  0.26592  0.55893  1.0000
  C   C29       1.0  0.33683  0.31970  0.63004  1.0000
  C   C30       1.0  0.30985  0.29681  0.64526  1.0000
  C   C31       1.0  0.27719  0.31558  0.65084  1.0000
  N   N4        1.0  0.36424  0.26368  0.53777  1.0000
  C   C32       1.0  0.33059  0.36081  0.61969  1.0000
  H   H32       1.0  0.31429  0.26512  0.65332  1.0000
  C   C33       1.0  0.22205  0.41801  0.44024  1.0000
  H   H33       1.0  0.35127  0.37862  0.60771  1.0000
  Fe  Fe10      1.0  0.21468  0.44466  0.63292  1.0000
  H   H34       1.0  0.46242  0.14077  0.40770  1.0000
  S   S18       1.0  0.23010  0.38024  0.64979  1.0000
  C   C34       1.0  0.27106  0.35695  0.64082  1.0000
  H   H35       1.0  0.40219  0.22802  0.55475  1.0000
  H   H36       1.0  0.29338  0.41076  0.61656  1.0000
  H   H37       1.0  0.41333  0.17583  0.44395  1.0000
  C   C35       1.0  0.36707  0.16853  0.47325  1.0000
  C   C36       1.0  0.35319  0.16031  0.50169  1.0000
  C   C37       1.0  0.37459  0.15306  0.52265  1.0000
  C   C38       1.0  0.41001  0.15294  0.51510  1.0000
  C   C39       1.0  0.42392  0.16081  0.48662  1.0000
  C   C40       1.0  0.40252  0.16901  0.46577  1.0000
  H   H38       1.0  0.32577  0.15989  0.50755  1.0000
  H   H39       1.0  0.36365  0.14670  0.54451  1.0000
  H   H40       1.0  0.45132  0.16104  0.48076  1.0000
  N   N5        1.0  0.17810  0.44040  0.48913  1.0000
  S   S19       1.0  0.18439  0.44995  0.59610  1.0000
  Fe  Fe11      1.0  0.42962  0.20834  0.36275  1.0000
  H   H41       1.0  0.27259  0.26724  0.51799  1.0000
  C   C41       1.0  0.21014  0.42555  0.49154  1.0000
  C   C42       1.0  0.18923  0.43268  0.43801  1.0000
  H   H42       1.0  0.16849  0.46090  0.53272  1.0000
  C   C43       1.0  0.47315  0.11112  0.41608  1.0000
  C   C44       1.0  0.23269  0.41453  0.46715  1.0000
  C   C45       1.0  0.30367  0.26787  0.55219  1.0000
  H   H43       1.0  0.40276  0.28500  0.56191  1.0000
  H   H44       1.0  0.38066  0.25934  0.49282  1.0000
  H   H45       1.0  0.41872  0.26469  0.52696  1.0000
  S   S20       1.0  0.36123  0.08407  0.67640  1.0000
  H   H46       1.0  0.46813  0.08459  0.40142  1.0000
  H   H47       1.0  0.21881  0.42352  0.51237  1.0000
  C   C46       1.0  0.15445  0.45061  0.51495  1.0000
  H   H48       1.0  0.32238  0.26183  0.47980  1.0000
  C   C47       1.0  0.35923  0.26264  0.50965  1.0000
  H   H49       1.0  0.28222  0.26988  0.56914  1.0000
  S   S21       1.0  0.48720  0.20767  0.35999  1.0000
  H   H50       1.0  0.13866  0.42210  0.52195  1.0000
  H   H51       1.0  0.45942  0.10444  0.43775  1.0000
  S   S22       1.0  0.39932  0.14946  0.37585  1.0000
  S   S23       1.0  0.33062  0.20492  0.36766  1.0000
  C   C48       1.0  0.27962  0.32178  0.35645  1.0000
  H   H52       1.0  0.18083  0.43552  0.41716  1.0000
  C   C49       1.0  0.30774  0.34933  0.35501  1.0000
  H   H53       1.0  0.25838  0.40392  0.46910  1.0000
  H   H54       1.0  0.48614  0.08214  0.64860  1.0000
  H   H55       1.0  0.32381  0.41537  0.35633  1.0000
  H   H56       1.0  0.26507  0.44526  0.36045  1.0000
  Fe  Fe12      1.0  0.36548  0.26126  0.35615  1.0000
  S   S24       1.0  0.19928  0.40307  0.35799  1.0000
  C   C50       1.0  0.26891  0.41089  0.35956  1.0000
  C   C51       1.0  0.30217  0.39387  0.35720  1.0000
  C   C52       1.0  0.24096  0.38337  0.35944  1.0000
  H   H57       1.0  0.48290  0.07423  0.56212  1.0000
  H   H58       1.0  0.29080  0.45352  0.66280  1.0000
  C   C53       1.0  0.24640  0.33879  0.35857  1.0000
  H   H59       1.0  0.28355  0.28744  0.35480  1.0000
  H   H60       1.0  0.22488  0.31724  0.35865  1.0000
  H   H61       1.0  0.24936  0.45508  0.68412  1.0000
  C   C54       1.0  0.27729  0.45421  0.68502  1.0000
  H   H62       1.0  0.25592  0.06888  0.76486  1.0000
  S   S25       1.0  0.35126  0.98710  0.94033  1.0000
  C   C55       1.0  0.28424  0.06810  0.76187  1.0000
  H   H63       1.0  0.47448  0.08067  0.83843  1.0000
  Fe  Fe13      1.0  0.37831  0.03507  0.83502  1.0000
  H   H64       1.0  0.27947  0.45994  0.74114  1.0000
  S   S26       1.0  0.36452  0.09248  0.80978  1.0000
  C   C56       1.0  0.45695  0.10803  0.71350  1.0000
  N   N6        1.0  0.45353  0.13541  0.73642  1.0000
  H   H65       1.0  0.42173  0.18865  0.73131  1.0000
  H   H66       1.0  0.29368  0.08784  0.77888  1.0000
  C   C57       1.0  0.40717  0.03616  0.01323  1.0000
  S   S27       1.0  0.40835  0.04534  0.87175  1.0000
  H   H67       1.0  0.35886  0.15797  0.76842  1.0000
  H   H68       1.0  0.44812  0.14116  0.78193  1.0000
  H   H69       1.0  0.35806  0.15558  0.71597  1.0000
  N   N7        1.0  0.29620  0.02363  0.76265  1.0000
  H   H70       1.0  0.44313  0.06400  0.98000  1.0000
  C   C58       1.0  0.40367  0.02934  0.96211  1.0000
  H   H71       1.0  0.29903  0.02508  0.80751  1.0000
  H   H72       1.0  0.29408  0.08357  0.74114  1.0000
  C   C59       1.0  0.45614  0.07580  0.76829  1.0000
  Fe  Fe14      1.0  0.44034  0.99135  0.85144  1.0000
  H   H73       1.0  0.46405  0.19189  0.71126  1.0000
  C   C60       1.0  0.36716  0.08754  0.71262  1.0000
  C   C61       1.0  0.37300  0.05007  0.72762  1.0000
  C   C62       1.0  0.37387  0.05144  0.75729  1.0000
  C   C63       1.0  0.36823  0.09022  0.77218  1.0000
  C   C64       1.0  0.36342  0.12788  0.75701  1.0000
  C   C65       1.0  0.36315  0.12663  0.72729  1.0000
  H   H74       1.0  0.37619  0.01974  0.71634  1.0000
  H   H75       1.0  0.37756  0.02220  0.76872  1.0000
  H   H76       1.0  0.41372  0.03647  0.94019  1.0000
  C   C66       1.0  0.48285  0.08269  0.90850  1.0000
  C   C67       1.0  0.42024  0.04488  0.98465  1.0000
  H   H77       1.0  0.45494  0.06350  0.78990  1.0000
  C   C68       1.0  0.44915  0.18148  0.73184  1.0000
  C   C69       1.0  0.37361  0.00539  0.96805  1.0000
  C   C70       1.0  0.30210  0.00598  0.78806  1.0000
  C   C71       1.0  0.45242  0.11977  0.76362  1.0000
  H   H78       1.0  0.46312  0.04230  0.69913  1.0000
  H   H79       1.0  0.45658  0.12032  0.69206  1.0000
  H   H80       1.0  0.28348  0.42354  0.69515  1.0000
  C   C72       1.0  0.46064  0.06386  0.71740  1.0000
  Fe  Fe15      1.0  0.37541  0.99342  0.89416  1.0000
  C   C73       1.0  0.46036  0.04773  0.74500  1.0000
  C   C74       1.0  0.36066  0.99638  0.99664  1.0000
  H   H81       1.0  0.45839  0.20085  0.74904  1.0000
  H   H82       1.0  0.46265  0.01347  0.74842  1.0000
  H   H83       1.0  0.47294  0.05346  0.89880  1.0000
  H   H84       1.0  0.29596  0.01371  0.71790  1.0000
  H   H85       1.0  0.33736  0.97800  0.00136  1.0000
  S   S28       1.0  0.34140  0.98916  0.85962  1.0000
  H   H86       1.0  0.47679  0.11040  0.89529  1.0000
  S   S29       1.0  0.41217  0.98376  0.81358  1.0000
  H   H87       1.0  0.46925  0.08662  0.93052  1.0000
  C   C75       1.0  0.30037  0.99959  0.73810  1.0000
  C   C76       1.0  0.35139  0.86002  0.06851  1.0000
  H   H88       1.0  0.15660  0.64219  0.30551  1.0000
  H   H89       1.0  0.25461  0.88157  0.07508  1.0000
  S   S30       1.0  0.37688  0.89749  0.13529  1.0000
  H   H90       1.0  0.12430  0.68057  0.29865  1.0000
  C   C77       1.0  0.01292  0.66527  0.34441  1.0000
  Fe  Fe16      1.0  0.19612  0.56347  0.33609  1.0000
  S   S31       1.0  0.22781  0.60840  0.30567  1.0000
  Fe  Fe17      1.0  0.20860  0.76289  0.13929  1.0000
  S   S32       1.0  0.24508  0.70991  0.12389  1.0000
  S   S33       1.0  0.22329  0.83098  0.15039  1.0000
  Fe  Fe18      1.0  0.14624  0.70981  0.12758  1.0000
  S   S34       1.0  0.17829  0.65431  0.11006  1.0000
  S   S35       1.0  0.08898  0.70906  0.12870  1.0000
  Fe  Fe19      1.0  0.20592  0.66601  0.14812  1.0000
  S   S36       1.0  0.21205  0.60578  0.17358  1.0000
  Fe  Fe20      1.0  0.21367  0.70357  0.08764  1.0000
  S   S37       1.0  0.17184  0.71947  0.16670  1.0000
  S   S38       1.0  0.17913  0.75850  0.10195  1.0000
  C   C78       1.0  0.22272  0.60778  0.26906  1.0000
  C   C79       1.0  0.21058  0.57129  0.25634  1.0000
  C   C80       1.0  0.20779  0.57110  0.22700  1.0000
  C   C81       1.0  0.21614  0.60774  0.21027  1.0000
  C   C82       1.0  0.22754  0.64464  0.22305  1.0000
  C   C83       1.0  0.23132  0.64438  0.25229  1.0000
  H   H91       1.0  0.20410  0.54281  0.26882  1.0000
  H   H92       1.0  0.19900  0.54248  0.21719  1.0000
  H   H93       1.0  0.23424  0.67295  0.21025  1.0000
  H   H94       1.0  0.24092  0.67267  0.26193  1.0000
  C   C84       1.0  0.03084  0.58176  0.14220  1.0000
  C   C85       1.0  0.06568  0.58339  0.14517  1.0000
  C   C86       1.0  0.08385  0.62236  0.14147  1.0000
  C   C87       1.0  0.06710  0.65998  0.13510  1.0000
  C   C88       1.0  0.03220  0.65845  0.13274  1.0000
  H   H95       1.0  0.24496  0.51719  0.30101  1.0000
  H   H96       1.0  0.11079  0.62321  0.14338  1.0000
  H   H97       1.0  0.25015  0.80191  0.09323  1.0000
  H   H98       1.0  0.13517  0.63424  0.19441  1.0000
  C   C89       1.0  0.11263  0.56842  0.25120  1.0000
  C   C90       1.0  0.01025  0.61313  0.05975  1.0000
  H   H99       1.0  0.18098  0.65010  0.04215  1.0000
  C   C91       1.0  0.07387  0.58754  0.07185  1.0000
  C   C92       1.0  0.33393  0.87994  0.13991  1.0000
  C   C93       1.0  0.32714  0.83565  0.14090  1.0000
  C   C94       1.0  0.29340  0.82019  0.14384  1.0000
  C   C95       1.0  0.26609  0.84900  0.14640  1.0000
  C   C96       1.0  0.27284  0.89335  0.14569  1.0000
  C   C97       1.0  0.30664  0.90881  0.14212  1.0000
  H   H100      1.0  0.34812  0.81311  0.13928  1.0000
  H   H101      1.0  0.28852  0.78601  0.14464  1.0000
  H   H102      1.0  0.25178  0.91579  0.14760  1.0000
  H   H103      1.0  0.31153  0.94293  0.14094  1.0000
  H   H104      1.0  0.28161  0.76678  0.07481  1.0000
  H   H105      1.0  0.11926  0.58344  0.29448  1.0000
  C   C98       1.0  0.99505  0.62640  0.34563  1.0000
  C   C99       1.0  0.32795  0.82610  0.07002  1.0000
  H   H106      1.0  0.11571  0.65168  0.07680  1.0000
  H   H107      1.0  0.01911  0.68745  0.12788  1.0000
  H   H108      1.0  0.25549  0.79841  0.05468  1.0000
  H   H109      1.0  0.29517  0.94279  0.07181  1.0000
  H   H110      1.0  0.33729  0.79341  0.07024  1.0000
  C   C100      1.0  0.32701  0.96805  0.20485  1.0000
  H   H111      1.0  0.35752  0.92875  0.06843  1.0000
  H   H112      1.0  0.03346  0.67522  0.05239  1.0000
  C   C101      1.0  0.01422  0.61954  0.13617  1.0000
  N   N8        1.0  0.06874  0.62924  0.06445  1.0000
  C   C102      1.0  0.04866  0.58662  0.34097  1.0000
  H   H113      1.0  0.37844  0.85372  0.06803  1.0000
  S   S39       1.0  0.00911  0.53197  0.14517  1.0000
  H   H114      1.0  0.09853  0.57735  0.07703  1.0000
  H   H115      1.0  0.05086  0.52508  0.08064  1.0000
  C   C103      1.0  0.01518  0.57070  0.06755  1.0000
  C   C104      1.0  0.28186  0.87539  0.07264  1.0000
  H   H116      1.0  0.10999  0.56230  0.20595  1.0000
  C   C105      1.0  0.04714  0.55772  0.07368  1.0000
  H   H117      1.0  0.08821  0.69285  0.06759  1.0000
  S   S40       1.0  0.23946  0.70694  0.04182  1.0000
  C   C106      1.0  0.03750  0.64217  0.05824  1.0000
  C   C107      1.0  0.13098  0.62319  0.21642  1.0000
  N   N9        1.0  0.13689  0.63426  0.26594  1.0000
  H   H118      1.0  0.07880  0.55431  0.14981  1.0000
  C   C108      1.0  0.09726  0.65977  0.06183  1.0000
  H   H119      1.0  0.15204  0.67998  0.23297  1.0000
  C   C109      1.0  0.14667  0.66174  0.28876  1.0000
  H   H120      1.0  0.10175  0.53700  0.25663  1.0000
  C   C110      1.0  0.14065  0.64883  0.23835  1.0000
  C   C111      1.0  0.11704  0.58266  0.22291  1.0000
  C   C112      1.0  0.12265  0.59486  0.27258  1.0000
  C   C113      1.0  0.33959  0.90223  0.06888  1.0000
  C   C114      1.0  0.26915  0.79861  0.07375  1.0000
  H   H121      1.0  0.16762  0.68408  0.28044  1.0000
  N   N10       1.0  0.29368  0.83411  0.07209  1.0000
  C   C115      1.0  0.06649  0.62552  0.34020  1.0000
  H   H122      1.0  0.99413  0.54805  0.06912  1.0000
  S   S41       1.0  0.16832  0.50734  0.32037  1.0000
  C   C116      1.0  0.30462  0.91008  0.07088  1.0000
  C   C117      1.0  0.01290  0.58724  0.34351  1.0000
  H   H123      1.0  0.99891  0.55728  0.34416  1.0000
  C   C118      1.0  0.19008  0.65858  0.02024  1.0000
  H   H124      1.0  0.11078  0.65973  0.03962  1.0000
  H   H125      1.0  0.33498  0.93406  0.24307  1.0000
  C   C119      1.0  0.29790  0.50033  0.29882  1.0000
  C   C120      1.0  0.26345  0.49135  0.29836  1.0000
  H   H126      1.0  0.33756  0.94260  0.19050  1.0000
  H   H127      1.0  0.30603  0.53317  0.30184  1.0000
  Fe  Fe21      1.0  0.39484  0.96657  0.13050  1.0000
  S   S42       1.0  0.07022  0.53688  0.33781  1.0000
  C   C121      1.0  0.04870  0.66468  0.34160  1.0000
  H   H128      1.0  0.09397  0.62558  0.33819  1.0000
  C   C122      1.0  0.32572  0.96334  0.23437  1.0000
  H   H129      1.0  0.06266  0.69467  0.34080  1.0000
  Fe  Fe22      1.0  0.12347  0.53251  0.34997  1.0000
  H   H130      1.0  0.34846  0.47345  0.29616  1.0000
  C   C123      1.0  0.16763  0.56195  0.49848  1.0000
  Fe  Fe23      1.0  0.16556  0.54914  0.39829  1.0000
  H   H131      1.0  0.14290  0.57625  0.50515  1.0000
  H   H132      1.0  0.08829  0.61925  0.43479  1.0000
  S   S43       1.0  0.13553  0.49235  0.38664  1.0000
  S   S44       1.0  0.15025  0.59064  0.36339  1.0000
  N   N11       1.0  0.03414  0.62182  0.44166  1.0000
  S   S45       1.0  0.21492  0.52789  0.37261  1.0000
  H   H133      1.0  0.17812  0.55177  0.54166  1.0000
  S   S46       1.0  0.24326  0.50726  0.53607  1.0000
  S   S47       1.0  0.18484  0.55496  0.60595  1.0000
  Fe  Fe24      1.0  0.21888  0.50537  0.58223  1.0000
  H   H134      1.0  0.02588  0.60504  0.48594  1.0000
  S   S48       1.0  0.22836  0.59720  0.66929  1.0000
  Fe  Fe25      1.0  0.21367  0.54125  0.64286  1.0000
  H   H135      1.0  0.03684  0.64462  0.39892  1.0000
  S   S49       1.0  0.15224  0.57076  0.44408  1.0000
  Fe  Fe26      1.0  0.15250  0.49908  0.62260  1.0000
  H   H136      1.0  0.22053  0.53427  0.43832  1.0000
  C   C124      1.0  0.21942  0.52936  0.51075  1.0000
  C   C125      1.0  0.18760  0.54826  0.51919  1.0000
  C   C126      1.0  0.23153  0.52527  0.48152  1.0000
  C   C127      1.0  0.17917  0.55634  0.46927  1.0000
  C   C128      1.0  0.21130  0.53828  0.46080  1.0000
  S   S50       1.0  0.09506  0.49991  0.62428  1.0000
  C   C129      1.0  0.06597  0.59733  0.43547  1.0000
  H   H137      1.0  0.03116  0.52185  0.60596  1.0000
  H   H138      1.0  0.06730  0.58049  0.41452  1.0000
  C   C130      1.0  0.02284  0.64510  0.42028  1.0000
  C   C131      1.0  0.03571  0.62644  0.62650  1.0000
  C   C132      1.0  0.06852  0.62564  0.63479  1.0000
  C   C133      1.0  0.08777  0.58748  0.63283  1.0000
  C   C134      1.0  0.07413  0.54974  0.62288  1.0000
  C   C135      1.0  0.04178  0.55084  0.61386  1.0000
  C   C136      1.0  0.02272  0.58904  0.61554  1.0000
  H   H139      1.0  0.07894  0.65458  0.64295  1.0000
  H   H140      1.0  0.11283  0.58701  0.63949  1.0000
  H   H141      1.0  0.29417  0.53183  0.66382  1.0000
  S   S51       1.0  0.25142  0.49715  0.61749  1.0000
  C   C137      1.0  0.01677  0.62297  0.46881  1.0000
  S   S52       1.0  0.01093  0.67375  0.63187  1.0000
  H   H142      1.0  0.06834  0.57248  0.45195  1.0000
  H   H143      1.0  0.25627  0.51101  0.47488  1.0000
  S   S53       1.0  0.17905  0.48833  0.66115  1.0000
  Fe  Fe27      1.0  0.18382  0.47332  0.35868  1.0000
  H   H144      1.0  0.99786  0.58929  0.60861  1.0000
  H   H145      1.0  0.03254  0.50649  0.67683  1.0000
  H   H146      1.0  0.13746  0.47776  0.51102  1.0000
  C   C138      1.0  0.01113  0.52857  0.67833  1.0000
  H   H147      1.0  0.15000  0.62841  0.67040  1.0000
  Fe  Fe28      1.0  0.13198  0.67174  0.85013  1.0000
  S   S54       1.0  0.15788  0.61275  0.86280  1.0000
  S   S55       1.0  0.07709  0.67001  0.84102  1.0000
  Fe  Fe29      1.0  0.19549  0.72727  0.85520  1.0000
  S   S56       1.0  0.22580  0.67104  0.86814  1.0000
  S   S57       1.0  0.21133  0.79736  0.85715  1.0000
  Fe  Fe30      1.0  0.20302  0.63611  0.83306  1.0000
  S   S58       1.0  0.22602  0.58395  0.80306  1.0000
  Fe  Fe31      1.0  0.17730  0.65331  0.89642  1.0000
  S   S59       1.0  0.16678  0.62769  0.94160  1.0000
  S   S60       1.0  0.17604  0.69350  0.81816  1.0000
  S   S61       1.0  0.14827  0.71122  0.88568  1.0000
  H   H148      1.0  0.21087  0.52666  0.70903  1.0000
  C   C139      1.0  0.18650  0.65134  0.96920  1.0000
  C   C140      1.0  0.17454  0.64097  0.99774  1.0000
  H   H149      1.0  0.12456  0.56021  0.92110  1.0000
  C   C141      1.0  0.05013  0.61218  0.91602  1.0000
  C   C142      1.0  0.23023  0.69621  0.98570  1.0000
  C   C143      1.0  0.21422  0.67933  0.96322  1.0000
  H   H150      1.0  0.29312  0.52426  0.76850  1.0000
  H   H151      1.0  0.32674  0.90586  0.76505  1.0000
  C   C144      1.0  0.31878  0.85374  0.83295  1.0000
  H   H152      1.0  0.22378  0.68703  0.94126  1.0000
  H   H153      1.0  0.24996  0.76696  0.93867  1.0000
  C   C145      1.0  0.21543  0.55514  0.72106  1.0000
  C   C146      1.0  0.21495  0.55274  0.75085  1.0000
  C   C147      1.0  0.22194  0.58922  0.76659  1.0000
  C   C148      1.0  0.22841  0.62842  0.75256  1.0000
  C   C149      1.0  0.22964  0.63060  0.72271  1.0000
  H   H154      1.0  0.21002  0.52231  0.76164  1.0000
  H   H155      1.0  0.23407  0.65661  0.76454  1.0000
  H   H156      1.0  0.33225  0.79176  0.81434  1.0000
  C   C150      1.0  0.07552  0.52989  0.92034  1.0000
  C   C151      1.0  0.01936  0.62107  0.84074  1.0000
  C   C152      1.0  0.05448  0.62092  0.84267  1.0000
  C   C153      1.0  0.07064  0.58190  0.84651  1.0000
  C   C154      1.0  0.05174  0.54362  0.84938  1.0000
  C   C155      1.0  0.12787  0.57475  0.73286  1.0000
  H   H157      1.0  0.09763  0.58104  0.84757  1.0000
  H   H158      1.0  0.06440  0.51370  0.85294  1.0000
  C   C156      1.0  0.31204  0.81107  0.82569  1.0000
  C   C157      1.0  0.27933  0.79307  0.83312  1.0000
  C   C158      1.0  0.25293  0.81801  0.84737  1.0000
  C   C159      1.0  0.25966  0.86069  0.85455  1.0000
  C   C160      1.0  0.29248  0.87837  0.84766  1.0000
  H   H159      1.0  0.27442  0.76016  0.82748  1.0000
  H   H160      1.0  0.23937  0.88010  0.86569  1.0000
  C   C161      1.0  0.22353  0.59391  0.70686  1.0000
  C   C162      1.0  0.14390  0.64646  0.74202  1.0000
  H   H161      1.0  0.22538  0.79934  0.91705  1.0000
  H   H162      1.0  0.29184  0.91845  0.93863  1.0000
  C   C163      1.0  0.04085  0.53682  0.91879  1.0000
  C   C164      1.0  0.08484  0.60639  0.91774  1.0000
  H   H163      1.0  0.15341  0.61889  0.00241  1.0000
  H   H164      1.0  0.14892  0.67147  0.75696  1.0000
  H   H165      1.0  0.02392  0.50934  0.91872  1.0000
  C   C165      1.0  0.31315  0.96343  0.78916  1.0000
  C   C166      1.0  0.31794  0.93884  0.76425  1.0000
  C   C167      1.0  0.21819  0.68596  0.01426  1.0000
  S   S62       1.0  0.40979  0.93978  0.87651  1.0000
  H   H166      1.0  0.34873  0.90334  0.91185  1.0000
  C   C168      1.0  0.13329  0.58225  0.70335  1.0000
  H   H167      1.0  0.08527  0.49753  0.92166  1.0000
  H   H168      1.0  0.15932  0.68606  0.70493  1.0000
  C   C169      1.0  0.28688  0.48943  0.72978  1.0000
  N   N12       1.0  0.27759  0.81744  0.91588  1.0000
  C   C170      1.0  0.30916  0.80877  0.90126  1.0000
  C   C171      1.0  0.27126  0.85610  0.92941  1.0000
  C   C172      1.0  0.33521  0.83952  0.89951  1.0000
  C   C173      1.0  0.29678  0.88754  0.92816  1.0000
  C   C174      1.0  0.32889  0.87908  0.91310  1.0000
  C   C175      1.0  0.25076  0.78458  0.91819  1.0000
  H   H169      1.0  0.31412  0.77835  0.89023  1.0000
  C   C176      1.0  0.12772  0.59805  0.78254  1.0000
  H   H170      1.0  0.35986  0.83319  0.88704  1.0000
  Fe  Fe32      1.0  0.37756  0.93810  0.84086  1.0000
  H   H171      1.0  0.12016  0.54295  0.74054  1.0000
  H   H172      1.0  0.25492  0.76121  0.90018  1.0000
  H   H173      1.0  0.25222  0.71692  0.98101  1.0000
  H   H174      1.0  0.03803  0.57991  0.69588  1.0000
  H   H175      1.0  0.23598  0.66066  0.71180  1.0000
  S   S63       1.0  0.36032  0.87494  0.82340  1.0000
  H   H176      1.0  0.04068  0.64450  0.91377  1.0000
  N   N13       1.0  0.02865  0.57760  0.91651  1.0000
  H   H177      1.0  0.30839  0.59629  0.69027  1.0000
  C   C177      1.0  0.14971  0.65499  0.71265  1.0000
  H   H178      1.0  0.10615  0.57542  0.78833  1.0000
  H   H179      1.0  0.10189  0.63384  0.91717  1.0000
  C   C178      1.0  0.01644  0.54400  0.84870  1.0000
  C   C179      1.0  0.00035  0.58271  0.84373  1.0000
  H   H180      1.0  0.29731  0.91100  0.85378  1.0000
  N   N14       1.0  0.13276  0.60686  0.75175  1.0000
  C   C180      1.0  0.31150  0.95694  0.73849  1.0000
  H   H181      1.0  0.12141  0.62786  0.79516  1.0000
  H   H182      1.0  0.24629  0.86288  0.94108  1.0000
  H   H183      1.0  0.15129  0.58408  0.78911  1.0000
  C   C181      1.0  0.01417  0.57023  0.68889  1.0000
  H   H184      1.0  0.31824  0.94949  0.80914  1.0000
  C   C182      1.0  0.29482  0.52554  0.74535  1.0000
  H   H185      1.0  0.30795  0.59271  0.74304  1.0000
  C   C183      1.0  0.14438  0.62263  0.69325  1.0000
  C   C184      1.0  0.30313  0.56407  0.73105  1.0000
  C   C185      1.0  0.29528  0.52941  0.68661  1.0000
  C   C186      1.0  0.09757  0.56498  0.91991  1.0000
  H   H186      1.0  0.00673  0.65107  0.83738  1.0000
  H   H187      1.0  0.31531  0.93820  0.71892  1.0000
  C   C187      1.0  0.30348  0.56606  0.70148  1.0000
  N   N15       1.0  0.28751  0.49162  0.70076  1.0000
  H   H188      1.0  0.12976  0.55669  0.68834  1.0000
  H   H189      1.0  0.01761  0.65478  0.69426  1.0000
  C   C188      1.0  0.77260  0.30104  0.06909  1.0000
  Fe  Fe33      1.0  0.69427  0.06300  0.33671  1.0000
  S   S64       1.0  0.72273  0.11184  0.30704  1.0000
  Fe  Fe34      1.0  0.71622  0.19838  0.08562  1.0000
  S   S65       1.0  0.68103  0.25311  0.09895  1.0000
  Fe  Fe35      1.0  0.71022  0.16392  0.14681  1.0000
  S   S66       1.0  0.67550  0.21721  0.16455  1.0000
  S   S67       1.0  0.71939  0.10603  0.17361  1.0000
  Fe  Fe36      1.0  0.64934  0.20468  0.12603  1.0000
  S   S68       1.0  0.59190  0.20259  0.12874  1.0000
  Fe  Fe37      1.0  0.71105  0.26032  0.13584  1.0000
  S   S69       1.0  0.72487  0.32888  0.14644  1.0000
  S   S70       1.0  0.68207  0.14917  0.10952  1.0000
  S   S71       1.0  0.74822  0.20776  0.12120  1.0000
  C   C189      1.0  0.53402  0.07530  0.14339  1.0000
  H   H190      1.0  0.56170  0.19875  0.07023  1.0000
  C   C190      1.0  0.57610  0.13209  0.06876  1.0000
  S   S72       1.0  0.87748  0.39886  0.12973  1.0000
  C   C191      1.0  0.51662  0.11386  0.14099  1.0000
  C   C192      1.0  0.78233  0.02925  0.21307  1.0000
  H   H191      1.0  0.85447  0.40865  0.03962  1.0000
  C   C193      1.0  0.55318  0.16591  0.06794  1.0000
  C   C194      1.0  0.76744  0.34778  0.14281  1.0000
  C   C195      1.0  0.79517  0.31969  0.13807  1.0000
  C   C196      1.0  0.82870  0.33589  0.13453  1.0000
  C   C197      1.0  0.83485  0.38027  0.13537  1.0000
  C   C198      1.0  0.80716  0.40849  0.13986  1.0000
  C   C199      1.0  0.77358  0.39223  0.14383  1.0000
  H   H192      1.0  0.79080  0.28546  0.13730  1.0000
  H   H193      1.0  0.85001  0.31387  0.13105  1.0000
  C   C200      1.0  0.77685  0.00871  0.23966  1.0000
  H   H194      1.0  0.75221  0.41414  0.14734  1.0000
  C   C201      1.0  0.71714  0.11187  0.27058  1.0000
  C   C202      1.0  0.72579  0.14866  0.25403  1.0000
  C   C203      1.0  0.72461  0.14817  0.22436  1.0000
  C   C204      1.0  0.71553  0.11049  0.21107  1.0000
  H   H195      1.0  0.73421  0.17733  0.26405  1.0000
  H   H196      1.0  0.73226  0.17626  0.21160  1.0000
  C   C205      1.0  0.57019  0.15361  0.13648  1.0000
  C   C206      1.0  0.58766  0.11521  0.13958  1.0000
  C   C207      1.0  0.56956  0.07618  0.14315  1.0000
  C   C208      1.0  0.84994  0.39672  0.06197  1.0000
  H   H197      1.0  0.60955  0.06473  0.19859  1.0000
  C   C209      1.0  0.53459  0.15281  0.13772  1.0000
  H   H198      1.0  0.61511  0.11542  0.13868  1.0000
  S   S73       1.0  0.74215  0.19676  0.03978  1.0000
  H   H199      1.0  0.52091  0.18241  0.13547  1.0000
  C   C210      1.0  0.70646  0.07495  0.25742  1.0000
  N   N16       1.0  0.82329  0.36359  0.06489  1.0000
  N   N17       1.0  0.63001  0.12846  0.26463  1.0000
  C   C211      1.0  0.61593  0.08834  0.26813  1.0000
  C   C212      1.0  0.63607  0.14656  0.23801  1.0000
  C   C213      1.0  0.60839  0.06476  0.24449  1.0000
  C   C214      1.0  0.62882  0.12388  0.21390  1.0000
  C   C215      1.0  0.61499  0.08268  0.21720  1.0000
  C   C216      1.0  0.63711  0.15281  0.28979  1.0000
  H   H200      1.0  0.61069  0.07422  0.28928  1.0000
  H   H201      1.0  0.64718  0.17839  0.23515  1.0000
  C   C217      1.0  0.76399  0.34402  0.07422  1.0000
  H   H202      1.0  0.63439  0.13790  0.19273  1.0000
  H   H203      1.0  0.53880  0.01648  0.05103  1.0000
  H   H204      1.0  0.61355  0.16913  0.29990  1.0000
  H   H205      1.0  0.64659  0.13121  0.30572  1.0000
  H   H206      1.0  0.65747  0.17717  0.28406  1.0000
  H   H207      1.0  0.49870  0.05365  0.33691  1.0000
  N   N18       1.0  0.78297  0.02976  0.26395  1.0000
  C   C218      1.0  0.79414  0.07140  0.26261  1.0000
  C   C219      1.0  0.50833  0.11445  0.06399  1.0000
  C   C220      1.0  0.56375  0.12100  0.34668  1.0000
  H   H208      1.0  0.80772  0.12632  0.23554  1.0000
  H   H209      1.0  0.79733  0.08880  0.28204  1.0000
  H   H210      1.0  0.84277  0.42421  0.07664  1.0000
  C   C221      1.0  0.51936  0.03688  0.06382  1.0000
  H   H211      1.0  0.73761  0.35293  0.08112  1.0000
  C   C222      1.0  0.79993  0.09288  0.23638  1.0000
  C   C223      1.0  0.83191  0.32151  0.05951  1.0000
  C   C224      1.0  0.78980  0.37512  0.07184  1.0000
  C   C225      1.0  0.51904  0.15713  0.06561  1.0000
  C   C226      1.0  0.56443  0.08980  0.06745  1.0000
  H   H212      1.0  0.79339  0.01873  0.30652  1.0000
  C   C227      1.0  0.77504  0.00882  0.29185  1.0000
  C   C228      1.0  0.80670  0.28960  0.06157  1.0000
  H   H213      1.0  0.83578  0.47254  0.19347  1.0000
  H   H214      1.0  0.85843  0.31237  0.05397  1.0000
  H   H215      1.0  0.60239  0.13867  0.07167  1.0000
  N   N19       1.0  0.53106  0.08148  0.06462  1.0000
  H   H216      1.0  0.78295  0.40835  0.07646  1.0000
  H   H217      1.0  0.75293  0.27651  0.07137  1.0000
  S   S74       1.0  0.66730  0.00699  0.32001  1.0000
  H   H218      1.0  0.77654  0.01305  0.19392  1.0000
  C   C229      1.0  0.70599  0.07415  0.22775  1.0000
  H   H219      1.0  0.58323  0.04649  0.14509  1.0000
  H   H220      1.0  0.81344  0.25609  0.05774  1.0000
  H   H221      1.0  0.59765  0.03274  0.24738  1.0000
  H   H222      1.0  0.67160  0.16915  0.04199  1.0000
  H   H223      1.0  0.58211  0.06366  0.06922  1.0000
  H   H224      1.0  0.70018  0.04627  0.26976  1.0000
  H   H225      1.0  0.69907  0.04488  0.21753  1.0000
  C   C230      1.0  0.79387  0.07164  0.21150  1.0000
  H   H226      1.0  0.81161  0.44272  0.14017  1.0000
  S   S75       1.0  0.51216  0.02564  0.14646  1.0000
  H   H227      1.0  0.49546  0.03424  0.05393  1.0000
  H   H228      1.0  0.79681  0.08848  0.19118  1.0000
  H   H229      1.0  0.82998  0.46470  0.24436  1.0000
  H   H230      1.0  0.87426  0.38398  0.06800  1.0000
  S   S76       1.0  0.56924  0.03336  0.33810  1.0000
  H   H231      1.0  0.74892  0.01797  0.30173  1.0000
  Fe  Fe38      1.0  0.62241  0.02896  0.35090  1.0000
  C   C231      1.0  0.51180  0.08325  0.34061  1.0000
  C   C232      1.0  0.54704  0.08261  0.34194  1.0000
  H   H232      1.0  0.50083  0.18314  0.06562  1.0000
  H   H233      1.0  0.51442  0.02399  0.08590  1.0000
  H   H234      1.0  0.59084  0.12123  0.34727  1.0000
  Fe  Fe39      1.0  0.89382  0.46878  0.12715  1.0000
  H   H235      1.0  0.76698  0.97615  0.24081  1.0000
  H   H236      1.0  0.77643  0.97324  0.28991  1.0000
  C   C233      1.0  0.68359  0.16783  0.02000  1.0000
  C   C234      1.0  0.54525  0.15941  0.35110  1.0000
  C   C235      1.0  0.50985  0.15979  0.35092  1.0000
  H   H237      1.0  0.64475  0.07691  0.50598  1.0000
  S   S77       1.0  0.64853  0.08680  0.36562  1.0000
  C   C236      1.0  0.57880  0.12449  0.42235  1.0000
  C   C237      1.0  0.57432  0.10084  0.57670  1.0000
  S   S78       1.0  0.58814  0.99289  0.63936  1.0000
  C   C238      1.0  0.59216  0.02601  0.56762  1.0000
  C   C239      1.0  0.71788  0.99502  0.48675  1.0000
  S   S79       1.0  0.67706  0.04504  0.61195  1.0000
  Fe  Fe40      1.0  0.64568  0.99121  0.63310  1.0000
  Fe  Fe41      1.0  0.66551  0.04391  0.39915  1.0000
  H   H238      1.0  0.60577  0.12771  0.42425  1.0000
  S   S80       1.0  0.50908  0.17051  0.65332  1.0000
  Fe  Fe42      1.0  0.70875  0.03497  0.64762  1.0000
  N   N20       1.0  0.50981  0.11588  0.41736  1.0000
  C   C240      1.0  0.56515  0.08415  0.41777  1.0000
  S   S81       1.0  0.71480  0.02612  0.37188  1.0000
  H   H239      1.0  0.59992  0.10861  0.58091  1.0000
  H   H240      1.0  0.78549  0.04258  0.66716  1.0000
  C   C241      1.0  0.50858  0.08180  0.56635  1.0000
  H   H241      1.0  0.61288  0.03376  0.58053  1.0000
  C   C242      1.0  0.67488  0.04250  0.47183  1.0000
  C   C243      1.0  0.66492  0.05371  0.50060  1.0000
  C   C244      1.0  0.68130  0.03556  0.52240  1.0000
  C   C245      1.0  0.70805  0.00641  0.51551  1.0000
  S   S82       1.0  0.73023  0.98440  0.54218  1.0000
  C   C246      1.0  0.70122  0.01278  0.46498  1.0000
  C   C247      1.0  0.54974  0.13339  0.57866  1.0000
  H   H242      1.0  0.60346  0.02208  0.54489  1.0000
  H   H243      1.0  0.52716  0.01738  0.55942  1.0000
  S   S83       1.0  0.63612  0.98720  0.38633  1.0000
  C   C248      1.0  0.53096  0.12097  0.64987  1.0000
  C   C249      1.0  0.51673  0.12372  0.57338  1.0000
  C   C250      1.0  0.53132  0.04332  0.64463  1.0000
  C   C251      1.0  0.56686  0.04258  0.64351  1.0000
  C   C252      1.0  0.58453  0.08112  0.64574  1.0000
  C   C253      1.0  0.56655  0.12017  0.64929  1.0000
  H   H244      1.0  0.67382  0.04484  0.54443  1.0000
  H   H245      1.0  0.51750  0.01358  0.64299  1.0000
  H   H246      1.0  0.61198  0.08088  0.64460  1.0000
  H   H247      1.0  0.58029  0.14994  0.65101  1.0000
  H   H248      1.0  0.55602  0.16578  0.58473  1.0000
  C   C254      1.0  0.55765  0.16051  0.42436  1.0000
  H   H249      1.0  0.50673  0.18381  0.42318  1.0000
  S   S84       1.0  0.72533  0.09204  0.67206  1.0000
  S   S85       1.0  0.74460  0.98860  0.62222  1.0000
  N   N21       1.0  0.56599  0.05963  0.57022  1.0000
  H   H250      1.0  0.55829  0.18880  0.35542  1.0000
  C   C255      1.0  0.53369  0.04993  0.56484  1.0000
  H   H251      1.0  0.58153  0.05604  0.41597  1.0000
  Fe  Fe43      1.0  0.70904  0.99277  0.58884  1.0000
  C   C256      1.0  0.51347  0.08232  0.64764  1.0000
  H   H252      1.0  0.82639  0.03973  0.67991  1.0000
  S   S86       1.0  0.65427  0.06688  0.44502  1.0000
  C   C257      1.0  0.53038  0.08037  0.41535  1.0000
  C   C258      1.0  0.52297  0.15558  0.42195  1.0000
  H   H253      1.0  0.56809  0.19209  0.42760  1.0000
  H   H254      1.0  0.70913  0.00405  0.44289  1.0000
  S   S87       1.0  0.67544  0.98388  0.66995  1.0000
  C   C259      1.0  0.80426  0.02051  0.67488  1.0000
  H   H255      1.0  0.52009  0.04892  0.41147  1.0000
  H   H256      1.0  0.49742  0.14864  0.57477  1.0000
  H   H257      1.0  0.58115  0.99488  0.57594  1.0000
  H   H258      1.0  0.81387  0.99806  0.65726  1.0000
  H   H259      1.0  0.63973  0.09776  0.68571  1.0000
  Fe  Fe44      1.0  0.70136  0.13806  0.83467  1.0000
  S   S88       1.0  0.67665  0.19477  0.81656  1.0000
  S   S89       1.0  0.72644  0.08564  0.80605  1.0000
  Fe  Fe45      1.0  0.67050  0.15840  0.89638  1.0000
  S   S90       1.0  0.64329  0.21557  0.88205  1.0000
  S   S91       1.0  0.65434  0.14090  0.94278  1.0000
  Fe  Fe46      1.0  0.63019  0.17416  0.84626  1.0000
  S   S92       1.0  0.57647  0.17136  0.83455  1.0000
  Fe  Fe47      1.0  0.69282  0.23033  0.85427  1.0000
  S   S93       1.0  0.70862  0.30029  0.85750  1.0000
  S   S94       1.0  0.65406  0.11596  0.86237  1.0000
  S   S95       1.0  0.72100  0.17481  0.87065  1.0000
  H   H260      1.0  0.82565  0.44368  0.71291  1.0000
  C   C260      1.0  0.75036  0.32139  0.84913  1.0000
  C   C261      1.0  0.77731  0.29696  0.83524  1.0000
  C   C262      1.0  0.81005  0.31531  0.82885  1.0000
  H   H261      1.0  0.78460  0.26890  0.92262  1.0000
  C   C263      1.0  0.75659  0.36393  0.85700  1.0000
  H   H262      1.0  0.77285  0.26417  0.82907  1.0000
  H   H263      1.0  0.83068  0.29642  0.81771  1.0000
  H   H264      1.0  0.73588  0.38301  0.86781  1.0000
  C   C264      1.0  0.67962  0.15475  0.96951  1.0000
  C   C265      1.0  0.66451  0.15566  0.99821  1.0000
  C   C266      1.0  0.51973  0.12031  0.83532  1.0000
  C   C267      1.0  0.62567  0.12307  0.76644  1.0000
  C   C268      1.0  0.73341  0.17669  0.98461  1.0000
  C   C269      1.0  0.71416  0.16524  0.96275  1.0000
  C   C270      1.0  0.56907  0.03629  0.91360  1.0000
  H   H265      1.0  0.52756  0.14725  0.90741  1.0000
  H   H266      1.0  0.76014  0.18465  0.97929  1.0000
  H   H267      1.0  0.72609  0.16421  0.94074  1.0000
  C   C271      1.0  0.72342  0.09048  0.70962  1.0000
  C   C272      1.0  0.71014  0.05503  0.72557  1.0000
  C   C273      1.0  0.70941  0.05472  0.75543  1.0000
  C   C274      1.0  0.72195  0.08979  0.76954  1.0000
  C   C275      1.0  0.73424  0.12578  0.75372  1.0000
  C   C276      1.0  0.73510  0.12602  0.72385  1.0000
  C   C277      1.0  0.81628  0.35784  0.83679  1.0000
  H   H268      1.0  0.69990  0.02679  0.76759  1.0000
  H   H269      1.0  0.74426  0.15282  0.76441  1.0000
  H   H270      1.0  0.74525  0.15368  0.71170  1.0000
  C   C278      1.0  0.53895  0.11594  0.90945  1.0000
  H   H271      1.0  0.85975  0.39536  0.76444  1.0000
  C   C279      1.0  0.55517  0.12141  0.83563  1.0000
  C   C280      1.0  0.57283  0.08283  0.83725  1.0000
  C   C281      1.0  0.55506  0.04368  0.83973  1.0000
  C   C282      1.0  0.81582  0.46437  0.78348  1.0000
  H   H272      1.0  0.60014  0.08298  0.83671  1.0000
  H   H273      1.0  0.56887  0.01406  0.84160  1.0000
  C   C283      1.0  0.51950  0.04270  0.84064  1.0000
  C   C284      1.0  0.64707  0.14915  0.74789  1.0000
  C   C285      1.0  0.57377  0.11348  0.91184  1.0000
  H   H274      1.0  0.61582  0.07119  0.91605  1.0000
  H   H275      1.0  0.79383  0.41473  0.85732  1.0000
  H   H276      1.0  0.57093  0.05485  0.71017  1.0000
  H   H277      1.0  0.63782  0.14744  0.00356  1.0000
  C   C286      1.0  0.58882  0.07339  0.91409  1.0000
  C   C287      1.0  0.77278  0.99255  0.75104  1.0000
  H   H278      1.0  0.76260  0.28939  0.97187  1.0000
  H   H279      1.0  0.80010  0.04527  0.72948  1.0000
  H   H280      1.0  0.81646  0.37895  0.77620  1.0000
  C   C288      1.0  0.60910  0.08832  0.75543  1.0000
  H   H281      1.0  0.59217  0.06858  0.77004  1.0000
  H   H282      1.0  0.75583  0.26016  0.89707  1.0000
  N   N22       1.0  0.73180  0.27493  0.93930  1.0000
  C   C289      1.0  0.69982  0.26530  0.93318  1.0000
  C   C290      1.0  0.73727  0.28173  0.96698  1.0000
  C   C291      1.0  0.67251  0.26069  0.95510  1.0000
  C   C292      1.0  0.71048  0.27764  0.98945  1.0000
  C   C293      1.0  0.67797  0.26673  0.98342  1.0000
  C   C294      1.0  0.76010  0.27977  0.91602  1.0000
  H   H283      1.0  0.69539  0.26046  0.91127  1.0000
  H   H284      1.0  0.65728  0.26185  0.00070  1.0000
  H   H285      1.0  0.62196  0.12980  0.78922  1.0000
  C   C295      1.0  0.59599  0.04357  0.71541  1.0000
  H   H286      1.0  0.66880  0.15986  0.70405  1.0000
  C   C296      1.0  0.65167  0.14029  0.71865  1.0000
  C   C297      1.0  0.78838  0.01426  0.72679  1.0000
  N   N23       1.0  0.78812  0.99714  0.70008  1.0000
  H   H287      1.0  0.76246  0.31393  0.90930  1.0000
  S   S96       1.0  0.49794  0.99340  0.84709  1.0000
  C   C298      1.0  0.63519  0.10491  0.70839  1.0000
  C   C299      1.0  0.78943  0.38200  0.85108  1.0000
  C   C300      1.0  0.83314  0.39682  0.75932  1.0000
  H   H288      1.0  0.70103  0.02750  0.71498  1.0000
  H   H289      1.0  0.71517  0.28112  0.01148  1.0000
  C   C301      1.0  0.71810  0.17849  0.01324  1.0000
  H   H290      1.0  0.61062  0.03012  0.69560  1.0000
  S   S97       1.0  0.85733  0.38038  0.82692  1.0000
  H   H291      1.0  0.58910  0.14243  0.91182  1.0000
  N   N24       1.0  0.61433  0.07932  0.72674  1.0000
  H   H292      1.0  0.64753  0.25130  0.95012  1.0000
  Fe  Fe48      1.0  0.87369  0.44388  0.84464  1.0000
  H   H293      1.0  0.66035  0.17594  0.75617  1.0000
  N   N25       1.0  0.82215  0.44168  0.75847  1.0000
  S   S98       1.0  0.90239  0.44815  0.88255  1.0000
  C   C302      1.0  0.50190  0.08106  0.83784  1.0000
  H   H294      1.0  0.83196  0.37990  0.73874  1.0000
  H   H295      1.0  0.59184  0.01681  0.73103  1.0000
  C   C303      1.0  0.81966  0.46117  0.73285  1.0000
  H   H296      1.0  0.51910  0.01091  0.91068  1.0000
  H   H297      1.0  0.58066  0.00494  0.91485  1.0000
  N   N26       1.0  0.51969  0.07941  0.90926  1.0000
  H   H298      1.0  0.81865  0.44913  0.80369  1.0000
  C   C304      1.0  0.53427  0.03991  0.91131  1.0000
  H   H299      1.0  0.77254  0.00669  0.77216  1.0000
  H   H300      1.0  0.50594  0.15002  0.83382  1.0000
  S   S99       1.0  0.94221  0.48477  0.09828  1.0000
  C   C305      1.0  0.75221  0.84146  0.34637  1.0000
  S   S100      1.0  0.86228  0.61549  0.30848  1.0000
  S   S101      1.0  0.90622  0.72676  0.31327  1.0000
  Fe  Fe49      1.0  0.88323  0.56057  0.14692  1.0000
  S   S102      1.0  0.85290  0.60872  0.17599  1.0000
  H   H301      1.0  0.98758  0.61900  0.13393  1.0000
  H   H302      1.0  0.78471  0.57135  0.20759  1.0000
  C   C306      1.0  0.79180  0.55494  0.22617  1.0000
  S   S103      1.0  0.92920  0.58467  0.11848  1.0000
  C   C307      1.0  0.96820  0.60142  0.23646  1.0000
  H   H303      1.0  0.96965  0.67004  0.28969  1.0000
  N   N27       1.0  0.80796  0.51603  0.22324  1.0000
  H   H304      1.0  0.85859  0.53043  0.04072  1.0000
  C   C308      1.0  0.79612  0.55521  0.27670  1.0000
  C   C309      1.0  0.86505  0.61782  0.27096  1.0000
  C   C310      1.0  0.87568  0.58000  0.22536  1.0000
  C   C311      1.0  0.86040  0.61333  0.21192  1.0000
  C   C312      1.0  0.84861  0.64967  0.22793  1.0000
  C   C313      1.0  0.85128  0.65217  0.25733  1.0000
  H   H305      1.0  0.83663  0.67555  0.21772  1.0000
  H   H306      1.0  0.84110  0.67967  0.26971  1.0000
  C   C314      1.0  0.80544  0.90068  0.33648  1.0000
  S   S104      1.0  0.85596  0.83953  0.32912  1.0000
  C   C315      1.0  0.81295  0.85654  0.33606  1.0000
  H   H307      1.0  0.82079  0.51990  0.17798  1.0000
  C   C316      1.0  0.87773  0.58209  0.25480  1.0000
  N   N28       1.0  0.95743  0.63626  0.25299  1.0000
  S   S105      1.0  0.86356  0.52281  0.11150  1.0000
  C   C317      1.0  0.81407  0.49549  0.19501  1.0000
  C   C318      1.0  0.78583  0.57521  0.25288  1.0000
  C   C319      1.0  0.81185  0.51510  0.27364  1.0000
  H   H308      1.0  0.98531  0.62332  0.05513  1.0000
  H   H309      1.0  0.82607  0.92369  0.33268  1.0000
  C   C320      1.0  0.94618  0.63315  0.19613  1.0000
  H   H310      1.0  0.96750  0.62639  0.34800  1.0000
  S   S106      1.0  0.92817  0.56224  0.03901  1.0000
  S   S107      1.0  0.91026  0.50527  0.16419  1.0000
  H   H311      1.0  0.98076  0.57476  0.24543  1.0000
  C   C321      1.0  0.96292  0.59945  0.20776  1.0000
  C   C322      1.0  0.93503  0.66834  0.21318  1.0000
  Fe  Fe50      1.0  0.91317  0.54115  0.08483  1.0000
  Fe  Fe51      1.0  0.95540  0.52736  0.13357  1.0000
  C   C323      1.0  0.94077  0.66929  0.24178  1.0000
  H   H312      1.0  0.88818  0.55529  0.26528  1.0000
  S   S108      1.0  0.99155  0.71507  0.34683  1.0000
  H   H313      1.0  0.88456  0.55172  0.21347  1.0000
  Fe  Fe52      1.0  0.87169  0.67517  0.33376  1.0000
  Fe  Fe53      1.0  0.87173  0.77239  0.34086  1.0000
  H   H314      1.0  0.93138  0.69633  0.25504  1.0000
  H   H315      1.0  0.79295  0.57140  0.29732  1.0000
  C   C324      1.0  0.81743  0.49570  0.24661  1.0000
  H   H316      1.0  0.77444  0.60693  0.25490  1.0000
  C   C325      1.0  0.78618  0.82701  0.34117  1.0000
  C   C326      1.0  0.96204  0.63737  0.28328  1.0000
  H   H317      1.0  0.73165  0.81834  0.35008  1.0000
  H   H318      1.0  0.97137  0.57174  0.19473  1.0000
  H   H319      1.0  0.82045  0.49976  0.29201  1.0000
  H   H320      1.0  0.92126  0.69419  0.20449  1.0000
  H   H321      1.0  0.76594  0.94916  0.34309  1.0000
  H   H322      1.0  0.93781  0.62825  0.29673  1.0000
  H   H323      1.0  0.79155  0.79300  0.34064  1.0000
  C   C327      1.0  0.74468  0.88552  0.34689  1.0000
  C   C328      1.0  0.77145  0.91517  0.34215  1.0000
  H   H324      1.0  0.94114  0.63163  0.17413  1.0000
  Fe  Fe54      1.0  0.93388  0.71741  0.35131  1.0000
  H   H325      1.0  0.98243  0.61501  0.28796  1.0000
  H   H326      1.0  0.79086  0.47785  0.19073  1.0000
  H   H327      1.0  0.95226  0.69036  0.45767  1.0000
  S   S109      1.0  0.72646  0.87486  0.65876  1.0000
  C   C329      1.0  0.80744  0.78161  0.57265  1.0000
  H   H328      1.0  0.75447  0.90954  0.57705  1.0000
  H   H329      1.0  0.97870  0.48467  0.65910  1.0000
  Fe  Fe55      1.0  0.70880  0.93790  0.64191  1.0000
  H   H330      1.0  0.79785  0.90742  0.40647  1.0000
  S   S110      1.0  0.90082  0.66407  0.37098  1.0000
  C   C330      1.0  0.78123  0.87991  0.41118  1.0000
  C   C331      1.0  0.77349  0.80464  0.41711  1.0000
  Fe  Fe56      1.0  0.86771  0.71590  0.39328  1.0000
  S   S111      1.0  0.84376  0.72591  0.43914  1.0000
  S   S112      1.0  0.90353  0.76859  0.37671  1.0000
  Fe  Fe57      1.0  0.89110  0.72854  0.62147  1.0000
  S   S113      1.0  0.85962  0.67139  0.61150  1.0000
  S   S114      1.0  0.87470  0.79845  0.62018  1.0000
  Fe  Fe58      1.0  0.95589  0.67414  0.62295  1.0000
  S   S115      1.0  0.92902  0.61423  0.61271  1.0000
  Fe  Fe59      1.0  0.90594  0.65364  0.58055  1.0000
  S   S116      1.0  0.90848  0.62625  0.53584  1.0000
  Fe  Fe60      1.0  0.88601  0.63758  0.64482  1.0000
  S   S117      1.0  0.93602  0.71234  0.58847  1.0000
  S   S118      1.0  0.91408  0.69602  0.65706  1.0000
  C   C332      1.0  0.72420  0.85092  0.42036  1.0000
  H   H331      1.0  0.86114  0.85488  0.53747  1.0000
  C   C333      1.0  0.86216  0.69843  0.46589  1.0000
  C   C334      1.0  0.85650  0.71327  0.49428  1.0000
  C   C335      1.0  0.87077  0.69160  0.51596  1.0000
  C   C336      1.0  0.89016  0.65449  0.50941  1.0000
  C   C337      1.0  0.89536  0.63937  0.48112  1.0000
  C   C338      1.0  0.88180  0.66156  0.45935  1.0000
  H   H332      1.0  0.84115  0.74163  0.49946  1.0000
  H   H333      1.0  0.86648  0.70312  0.53777  1.0000
  H   H334      1.0  0.91001  0.61040  0.47602  1.0000
  H   H335      1.0  0.88593  0.64958  0.43764  1.0000
  C   C339      1.0  0.79357  0.87898  0.63295  1.0000
  C   C340      1.0  0.82631  0.86162  0.62511  1.0000
  C   C341      1.0  0.83340  0.81882  0.63155  1.0000
  C   C342      1.0  0.80748  0.79351  0.64615  1.0000
  C   C343      1.0  0.77485  0.81115  0.65448  1.0000
  H   H336      1.0  0.84625  0.88127  0.61372  1.0000
  H   H337      1.0  0.81268  0.76051  0.65122  1.0000
  H   H338      1.0  0.83729  0.80763  0.38957  1.0000
  H   H339      1.0  0.75519  0.79388  0.58955  1.0000
  C   C344      1.0  0.83145  0.83264  0.40626  1.0000
  N   N29       1.0  0.79452  0.83941  0.41167  1.0000
  H   H340      1.0  0.84114  0.82171  0.42606  1.0000
  H   H341      1.0  0.73529  0.91822  0.41413  1.0000
  C   C345      1.0  0.76773  0.85388  0.64785  1.0000
  C   C346      1.0  0.74795  0.87534  0.57362  1.0000
  C   C347      1.0  0.80794  0.86576  0.55355  1.0000
  S   S119      1.0  0.86619  0.58529  0.67621  1.0000
  H   H342      1.0  0.80731  0.74907  0.58086  1.0000
  C   C348      1.0  0.83746  0.79891  0.55822  1.0000
  H   H343      1.0  0.78849  0.91176  0.62751  1.0000
  C   C349      1.0  0.73802  0.80981  0.42135  1.0000
  H   H344      1.0  0.75501  0.79152  0.66605  1.0000
  H   H345      1.0  0.77043  0.94621  0.67551  1.0000
  C   C350      1.0  0.97522  0.67108  0.45317  1.0000
  H   H346      1.0  0.73111  0.86480  0.59319  1.0000
  H   H347      1.0  0.72140  0.78206  0.42489  1.0000
  C   C351      1.0  0.98099  0.51640  0.66817  1.0000
  H   H348      1.0  0.73358  0.87362  0.55500  1.0000
  H   H349      1.0  0.84549  0.86198  0.39805  1.0000
  H   H350      1.0  0.86071  0.77994  0.55531  1.0000
  C   C352      1.0  0.83775  0.84116  0.54845  1.0000
  C   C353      1.0  0.77815  0.80720  0.57759  1.0000
  H   H351      1.0  0.80833  0.89869  0.54601  1.0000
  C   C354      1.0  0.74589  0.88628  0.41561  1.0000
  N   N30       1.0  0.77884  0.84890  0.56840  1.0000
  S   S120      1.0  0.67506  0.93938  0.60738  1.0000
  H   H352      1.0  0.69675  0.85543  0.42261  1.0000
  H   H353      1.0  0.78423  0.77258  0.41768  1.0000
  H   H354      1.0  0.93069  0.53685  0.66097  1.0000
  H   H355      1.0  0.97289  0.64784  0.49641  1.0000
  H   H356      1.0  0.98430  0.68822  0.40851  1.0000
  C   C355      1.0  0.98693  0.64735  0.47493  1.0000
  H   H357      1.0  0.73860  0.97261  0.48127  1.0000
  C   C356      1.0  0.95419  0.54566  0.66905  1.0000
  S   S121      1.0  0.83461  0.72131  0.35825  1.0000
  H   H358      1.0  0.93721  0.60955  0.68032  1.0000
  C   C357      1.0  0.95806  0.58692  0.67992  1.0000
  S   S122      1.0  0.70164  0.90191  0.35481  1.0000
  Fe  Fe61      1.0  0.68435  0.97139  0.35705  1.0000
  C   C358      1.0  0.99319  0.66992  0.42563  1.0000
  H   H359      1.0  0.80938  0.58539  0.86406  1.0000
  H   H360      1.0  0.80571  0.64050  0.85387  1.0000
  S   S123      1.0  0.90413  0.55308  0.87281  1.0000
  C   C359      1.0  0.80569  0.61860  0.87246  1.0000
  C   C360      1.0  0.88752  0.66178  0.89299  1.0000
  H   H361      1.0  0.98571  0.64163  0.72457  1.0000
  H   H362      1.0  0.91217  0.53699  0.93929  1.0000
  Fe  Fe62      1.0  0.87648  0.54049  0.83502  1.0000
  S   S124      1.0  0.86064  0.59751  0.81038  1.0000
  C   C361      1.0  0.90427  0.54506  0.01215  1.0000
  C   C362      1.0  0.75609  0.95370  0.74774  1.0000
  H   H363      1.0  0.74335  0.93696  0.76633  1.0000
  H   H364      1.0  0.90605  0.65440  0.93368  1.0000
  N   N31       1.0  0.83303  0.62941  0.88934  1.0000
  H   H365      1.0  0.80980  0.59521  0.92610  1.0000
  C   C363      1.0  0.86630  0.52297  0.96782  1.0000
  C   C364      1.0  0.83119  0.61481  0.91682  1.0000
  C   C365      1.0  0.90045  0.53548  0.96134  1.0000
  H   H366      1.0  0.85567  0.61196  0.95495  1.0000
  H   H367      1.0  0.97320  0.58324  0.84274  1.0000
  C   C366      1.0  0.87054  0.59188  0.71264  1.0000
  C   C367      1.0  0.86013  0.62972  0.72724  1.0000
  C   C368      1.0  0.85841  0.63164  0.75719  1.0000
  C   C369      1.0  0.86765  0.59606  0.77262  1.0000
  C   C370      1.0  0.88002  0.55913  0.75780  1.0000
  C   C371      1.0  0.88113  0.55692  0.72793  1.0000
  H   H368      1.0  0.85176  0.65676  0.71563  1.0000
  H   H369      1.0  0.84895  0.66041  0.76846  1.0000
  H   H370      1.0  0.88723  0.53154  0.76939  1.0000
  H   H371      1.0  0.88916  0.52753  0.71677  1.0000
  C   C372      1.0  0.80604  0.50752  0.78332  1.0000
  C   C373      1.0  0.77144  0.95934  0.69666  1.0000
  S   S125      1.0  0.84113  0.51266  0.94046  1.0000
  H   H372      1.0  0.79629  0.56123  0.75681  1.0000
  Fe  Fe63      1.0  0.86859  0.50445  0.89561  1.0000
  C   C374      1.0  0.91923  0.54690  0.98346  1.0000
  S   S126      1.0  0.99307  0.49631  0.85668  1.0000
  C   C375      1.0  0.88553  0.64764  0.92122  1.0000
  S   S127      1.0  0.83746  0.49714  0.85938  1.0000
  H   H373      1.0  0.82487  0.51163  0.00160  1.0000
  N   N32       1.0  0.98791  0.59889  0.68932  1.0000
  C   C376      1.0  0.80279  0.52740  0.75736  1.0000
  H   H374      1.0  0.94549  0.55704  0.97845  1.0000
  C   C377      1.0  0.85135  0.52098  0.99652  1.0000
  H   H375      1.0  0.86303  0.66234  0.85506  1.0000
  H   H376      1.0  0.78029  0.62099  0.88567  1.0000
  C   C378      1.0  0.85722  0.62400  0.93323  1.0000
  C   C379      1.0  0.86094  0.65214  0.87722  1.0000
  H   H377      1.0  0.80868  0.52001  0.71154  1.0000
  H   H378      1.0  0.90970  0.67947  0.88318  1.0000
  C   C380      1.0  0.75529  0.93698  0.72037  1.0000
  H   H379      1.0  0.80190  0.52579  0.80309  1.0000
  Fe  Fe64      1.0  0.93590  0.49642  0.85666  1.0000
  H   H380      1.0  0.98784  0.61167  0.90173  1.0000
  H   H381      1.0  0.97391  0.66514  0.69228  1.0000
  H   H382      1.0  0.74209  0.90701  0.71736  1.0000
  C   C381      1.0  0.99143  0.64213  0.70090  1.0000
  C   C382      1.0  0.80977  0.50421  0.73192  1.0000
  C   C383      1.0  0.87039  0.53154  0.01868  1.0000
  H   H383      1.0  0.97983  0.55577  0.90771  1.0000
  H   H384      1.0  0.97937  0.59155  0.93799  1.0000
  C   C384      1.0  0.99206  0.58453  0.91606  1.0000
  S   S128      1.0  0.91068  0.48685  0.81723  1.0000
