data_image0
_chemical_formula_structural       FeSNFeS2FeHFeS3CHCHSCFeS2HCSHCH2CHC6H4C6HFeH2C2H2CHNHCSCSCHC3FeCH2CHCHCHC3SC2H2CH4C2HC3HSHSH6NHNHC2FeSFeSFe2SFeS3H3C3HSCFeHNCHCSHSNHCH2CHC3HCHFeC5HSC3H2CSH2C2HCH2CH5FeH2FeS2FeS2FeSFeHS2FeS2C2FeHFeSHSHSC5H2C2HNSHC7H4C2H2C2SFeNC6H11C2S3CHFeH3C3HCSCH2CH2FeS2FeS2FeSFeCS2CH3C3H3C2HC2SH2CH2NHCH2C2HC7H4C3H2CH3C3H2SNHCHC3H2C2H2CH3NH2C4HCHC2HCNHCHFeS2CFeHFeHFeSFeSFeSFeSFeCS2CH2SCHSHSH2CHC2H2C3H2SC10H4CHC2SH4C3HC2H4C2H3C2H2CHSNH2CNC4HCSHNC3HCHSFeH2C3HCHCS3CHSHFeS2FeSCFeSFeS3HSHC6H2CNC6H4C6H3N2C3H5CNHCHNCH6C2H2SFeCS2H2CH3C2HC3HC2H3CH3C2H2C3H2CH4C2FeH2CH2SHC3HCS2C2FeSC3HC2HFeSHSC3H5CHNC6H8C2FeHFeC3HC2HCSH2C2SHCHC3HSHCSHNHC2HC2HCNCSHCS2C4HCSFeSHFeSNFeS2Fe2S2CSC6H2CS2FeHC6HC2HNHNCH3CFeHSHCHCHCHC2H4FeCH2C4HCHCSHCNSH2CH2CH4C2HC3H5CSC2HSFeCSFeHSCFeHSHSC8H3C2HC2HCH2NSHCH3SC2HCHCH3SNC3HCHC2HCHC2HCHNH3CH3CH2CHFeCHSHSH2C2HC4NCHCH5CH3FeSCHS2HCH4CH3Fe2CHFeH3S2CSFeCH3CH2CNCH3S
_chemical_formula_sum              "Fe64 S128 N32 H384 C384"
_cell_length_a       26.8893
_cell_length_b       37.279
_cell_length_c       48.1789
_cell_angle_alpha    92.6682
_cell_angle_beta     81.9098
_cell_angle_gamma    83.0299

_space_group_name_H-M_alt    "P 1"
_space_group_IT_number       1

loop_
  _space_group_symop_operation_xyz
  'x, y, z'

loop_
  _atom_site_type_symbol
  _atom_site_label
  _atom_site_symmetry_multiplicity
  _atom_site_fract_x
  _atom_site_fract_y
  _atom_site_fract_z
  _atom_site_occupancy
  Fe  Fe1       1.0  0.27309  0.06794  0.17399  1.0000
  S   S1        1.0  0.35213  0.08316  0.16928  1.0000
  N   N1        1.0  0.23943  0.17363  0.06585  1.0000
  Fe  Fe2       1.0  0.22392  0.14483  0.16881  1.0000
  S   S2        1.0  0.29859  0.16610  0.16426  1.0000
  S   S3        1.0  0.14908  0.17871  0.16728  1.0000
  Fe  Fe3       1.0  0.32605  0.11694  0.13511  1.0000
  H   H1        1.0  0.10062  0.29447  0.25391  1.0000
  Fe  Fe4       1.0  0.31632  0.13064  0.19881  1.0000
  S   S4        1.0  0.34596  0.15573  0.23559  1.0000
  S   S5        1.0  0.24996  0.09765  0.13753  1.0000
  S   S6        1.0  0.23905  0.11317  0.20581  1.0000
  C   C1        1.0  0.44790  0.24214  0.32741  1.0000
  H   H2        1.0  0.20498  0.20193  0.10421  1.0000
  C   C2        1.0  0.03734  0.44949  0.26382  1.0000
  H   H3        1.0  0.14045  0.39203  0.02864  1.0000
  S   S7        1.0  0.00110  0.46475  0.09184  1.0000
  C   C3        1.0  0.17848  0.23483  0.23001  1.0000
  Fe  Fe5       1.0  0.06985  0.37978  0.16272  1.0000
  S   S8        1.0  0.14605  0.34749  0.16266  1.0000
  S   S9        1.0  0.06468  0.44063  0.16254  1.0000
  H   H4        1.0  0.05367  0.43236  0.24522  1.0000
  C   C4        1.0  0.48539  0.17959  0.32091  1.0000
  S   S10       1.0  0.41355  0.05442  0.32946  1.0000
  H   H5        1.0  0.33493  0.19296  0.01757  1.0000
  C   C5        1.0  0.36616  0.09762  0.01210  1.0000
  H   H6        1.0  0.48210  0.15092  0.32197  1.0000
  H   H7        1.0  0.09447  0.41552  0.07562  1.0000
  C   C6        1.0  0.07921  0.42318  0.05681  1.0000
  H   H8        1.0  0.25838  0.16855  0.10712  1.0000
  C   C7        1.0  0.14886  0.22516  0.16236  1.0000
  C   C8        1.0  0.19398  0.24055  0.15836  1.0000
  C   C9        1.0  0.19282  0.27806  0.15684  1.0000
  C   C10       1.0  0.14649  0.30043  0.15953  1.0000
  C   C11       1.0  0.10129  0.28502  0.16215  1.0000
  C   C12       1.0  0.10253  0.24737  0.16357  1.0000
  H   H9        1.0  0.22981  0.22382  0.15698  1.0000
  H   H10       1.0  0.22786  0.28992  0.15454  1.0000
  H   H11       1.0  0.06535  0.30218  0.16405  1.0000
  H   H12       1.0  0.06746  0.23557  0.16637  1.0000
  C   C13       1.0  0.36370  0.12679  0.26141  1.0000
  C   C14       1.0  0.37368  0.14211  0.28684  1.0000
  C   C15       1.0  0.38842  0.11994  0.30778  1.0000
  C   C16       1.0  0.39407  0.08228  0.30334  1.0000
  C   C17       1.0  0.38425  0.06681  0.27786  1.0000
  C   C18       1.0  0.36866  0.08904  0.25699  1.0000
  H   H13       1.0  0.36980  0.17125  0.29034  1.0000
  Fe  Fe6       1.0  0.01323  0.43405  0.13017  1.0000
  H   H14       1.0  0.39613  0.13198  0.32724  1.0000
  H   H15       1.0  0.36128  0.07707  0.23734  1.0000
  C   C19       1.0  0.35704  0.10468  0.06317  1.0000
  C   C20       1.0  0.32774  0.07615  0.06503  1.0000
  H   H16       1.0  0.08943  0.26864  0.22309  1.0000
  H   H17       1.0  0.31290  0.06781  0.08535  1.0000
  C   C21       1.0  0.20473  0.29238  0.22128  1.0000
  H   H18       1.0  0.39986  0.13692  0.03515  1.0000
  N   N2        1.0  0.16695  0.27109  0.22697  1.0000
  H   H19       1.0  0.29728  0.03503  0.04194  1.0000
  C   C22       1.0  0.22465  0.17467  0.09636  1.0000
  S   S11       1.0  0.06764  0.46527  0.34352  1.0000
  C   C23       1.0  0.20661  0.16411  0.04834  1.0000
  S   S12       1.0  0.02409  0.37350  0.12761  1.0000
  C   C24       1.0  0.10514  0.40986  0.03021  1.0000
  H   H20       1.0  0.41218  0.42203  0.01867  1.0000
  C   C25       1.0  0.03826  0.46848  0.31295  1.0000
  C   C26       1.0  0.31890  0.05770  0.04046  1.0000
  C   C27       1.0  0.28474  0.18433  0.05509  1.0000
  Fe  Fe7       1.0  0.99654  0.43961  0.19532  1.0000
  C   C28       1.0  0.44284  0.20531  0.32858  1.0000
  H   H21       1.0  0.19558  0.32104  0.21840  1.0000
  H   H22       1.0  0.23816  0.19024  0.22963  1.0000
  C   C29       1.0  0.26773  0.24034  0.22111  1.0000
  H   H23       1.0  0.28549  0.29405  0.21287  1.0000
  C   C30       1.0  0.11383  0.28750  0.23121  1.0000
  H   H24       1.0  0.09235  0.42704  0.28906  1.0000
  C   C31       1.0  0.01502  0.45694  0.03438  1.0000
  H   H25       1.0  0.30702  0.22810  0.21862  1.0000
  C   C32       1.0  0.33785  0.06854  0.01396  1.0000
  C   C33       1.0  0.37659  0.11516  0.03668  1.0000
  C   C34       1.0  0.05915  0.44647  0.28867  1.0000
  S   S13       1.0  0.36954  0.12793  0.09355  1.0000
  C   C35       1.0  0.22898  0.21898  0.22724  1.0000
  C   C36       1.0  0.25565  0.27728  0.21801  1.0000
  H   H26       1.0  0.14863  0.21779  0.23413  1.0000
  H   H27       1.0  0.10884  0.31254  0.21961  1.0000
  C   C37       1.0  0.03441  0.44714  0.05892  1.0000
  H   H28       1.0  0.38881  0.03767  0.27427  1.0000
  H   H29       1.0  0.03897  0.35086  0.04818  1.0000
  H   H30       1.0  0.17032  0.15623  0.05688  1.0000
  H   H31       1.0  0.31093  0.19165  0.06898  1.0000
  C   C38       1.0  0.29856  0.18514  0.02605  1.0000
  C   C39       1.0  0.42538  0.44776  0.01404  1.0000
  H   H32       1.0  0.19881  0.15430  0.10241  1.0000
  C   C40       1.0  0.21938  0.16443  0.01917  1.0000
  C   C41       1.0  0.42940  0.47266  0.03589  1.0000
  C   C42       1.0  0.00524  0.35779  0.03854  1.0000
  H   H33       1.0  0.40631  0.19688  0.33605  1.0000
  S   S14       1.0  0.25063  0.01296  0.18229  1.0000
  H   H34       1.0  0.46963  0.30849  0.33322  1.0000
  S   S15       1.0  0.00474  0.37920  0.19759  1.0000
  H   H35       1.0  0.31708  0.01204  0.23772  1.0000
  H   H36       1.0  0.28305  0.05891  0.33499  1.0000
  H   H37       1.0  0.27378  0.01318  0.10694  1.0000
  H   H38       1.0  0.41992  0.46625  0.05762  1.0000
  H   H39       1.0  0.41468  0.26188  0.33382  1.0000
  H   H40       1.0  0.35626  0.00578  0.15596  1.0000
  N   N3        1.0  0.00240  0.34396  0.01210  1.0000
  H   H41       1.0  0.06303  0.30103  0.01090  1.0000
  N   N4        1.0  0.49425  0.25308  0.31929  1.0000
  H   H42       1.0  0.49455  0.30021  0.29625  1.0000
  C   C43       1.0  0.44814  0.50512  0.02976  1.0000
  C   C44       1.0  0.46168  0.23892  0.46163  1.0000
  Fe  Fe8       1.0  0.40459  0.08358  0.37240  1.0000
  S   S16       1.0  0.33977  0.12816  0.38189  1.0000
  Fe  Fe9       1.0  0.42668  0.08770  0.43335  1.0000
  S   S17       1.0  0.36253  0.13207  0.44616  1.0000
  Fe  Fe10      1.0  0.46416  0.02709  0.65338  1.0000
  Fe  Fe11      1.0  0.31935  0.09885  0.42053  1.0000
  S   S18       1.0  0.23964  0.08879  0.43576  1.0000
  Fe  Fe12      1.0  0.39191  0.15572  0.40595  1.0000
  S   S19       1.0  0.39688  0.21604  0.40474  1.0000
  S   S20       1.0  0.38133  0.05295  0.41008  1.0000
  S   S21       1.0  0.45869  0.11277  0.39403  1.0000
  H   H43       1.0  0.35737  0.02272  0.53176  1.0000
  H   H44       1.0  0.47436  0.34102  0.46567  1.0000
  H   H45       1.0  0.27256  0.10126  0.48959  1.0000
  C   C45       1.0  0.41616  0.10682  0.55828  1.0000
  C   C46       1.0  0.28652  0.10141  0.55846  1.0000
  C   C47       1.0  0.31706  0.06827  0.55783  1.0000
  H   H46       1.0  0.33109  0.05946  0.57679  1.0000
  S   S22       1.0  0.46962  0.06379  0.46682  1.0000
  C   C48       1.0  0.42322  0.30096  0.47145  1.0000
  Fe  Fe13      1.0  0.41710  0.09485  0.62967  1.0000
  H   H47       1.0  0.38167  0.25488  0.47411  1.0000
  N   N5        1.0  0.27320  0.00944  0.35393  1.0000
  C   C49       1.0  0.28523  0.09177  0.50869  1.0000
  H   H48       1.0  0.27664  0.11821  0.57795  1.0000
  C   C50       1.0  0.01984  0.49001  0.56354  1.0000
  S   S23       1.0  0.38367  0.04993  0.65230  1.0000
  H   H49       1.0  0.32081  0.00951  0.48425  1.0000
  S   S24       1.0  0.38963  0.12252  0.59290  1.0000
  N   N6        1.0  0.31561  0.05943  0.50826  1.0000
  H   H50       1.0  0.44571  0.35554  0.66608  1.0000
  C   C51       1.0  0.45522  0.23284  0.39535  1.0000
  H   H51       1.0  0.39000  0.32076  0.47773  1.0000
  H   H52       1.0  0.49551  0.17628  0.64586  1.0000
  C   C52       1.0  0.41862  0.26405  0.46973  1.0000
  H   H53       1.0  0.45505  0.05662  0.56918  1.0000
  C   C53       1.0  0.45589  0.27042  0.39520  1.0000
  C   C54       1.0  0.01127  0.49348  0.51393  1.0000
  C   C55       1.0  0.46317  0.06046  0.52413  1.0000
  H   H54       1.0  0.42095  0.28852  0.40112  1.0000
  C   C56       1.0  0.33189  0.04772  0.53233  1.0000
  H   H55       1.0  0.31374  0.04869  0.46443  1.0000
  Fe  Fe14      1.0  0.49538  0.10168  0.66821  1.0000
  C   C57       1.0  0.21797  0.04620  0.43169  1.0000
  C   C58       1.0  0.16565  0.04553  0.43564  1.0000
  C   C59       1.0  0.44607  0.07319  0.55226  1.0000
  C   C60       1.0  0.27038  0.11329  0.53377  1.0000
  C   C61       1.0  0.14559  0.01296  0.43244  1.0000
  H   H56       1.0  0.14023  0.07048  0.44097  1.0000
  S   S25       1.0  0.02131  0.46719  0.65268  1.0000
  C   C62       1.0  0.40460  0.12792  0.53618  1.0000
  C   C63       1.0  0.42187  0.11528  0.50818  1.0000
  C   C64       1.0  0.45037  0.08121  0.50196  1.0000
  H   H57       1.0  0.38177  0.15406  0.54070  1.0000
  H   H58       1.0  0.41366  0.13222  0.49150  1.0000
  C   C65       1.0  0.25050  0.01352  0.42492  1.0000
  S   S26       1.0  0.41645  0.12959  0.66925  1.0000
  H   H59       1.0  0.24696  0.13915  0.53395  1.0000
  H   H60       1.0  0.00513  0.48343  0.58448  1.0000
  C   C66       1.0  0.47093  0.31225  0.46449  1.0000
  C   C67       1.0  0.06746  0.50192  0.55848  1.0000
  H   H61       1.0  0.24725  0.06401  0.37019  1.0000
  C   C68       1.0  0.27947  0.04795  0.35613  1.0000
  H   H62       1.0  0.37348  0.03523  0.47604  1.0000
  H   H63       1.0  0.29102  0.01361  0.42183  1.0000
  C   C69       1.0  0.33172  0.03713  0.48195  1.0000
  H   H64       1.0  0.10489  0.01312  0.43520  1.0000
  H   H65       1.0  0.48566  0.03420  0.51951  1.0000
  H   H66       1.0  0.45819  0.21023  0.45954  1.0000
  H   H67       1.0  0.49212  0.14502  0.59634  1.0000
  H   H68       1.0  0.31414  0.05186  0.36536  1.0000
  Fe  Fe15      1.0  0.03074  0.50276  0.38090  1.0000
  H   H69       1.0  0.19250  0.01917  0.36336  1.0000
  H   H70       1.0  0.45582  0.28875  0.66964  1.0000
  Fe  Fe16      1.0  0.30892  0.07538  0.94719  1.0000
  S   S27       1.0  0.22510  0.08552  0.94793  1.0000
  S   S28       1.0  0.32893  0.04361  0.98359  1.0000
  Fe  Fe17      1.0  0.32886  0.10310  0.88790  1.0000
  S   S29       1.0  0.24614  0.11514  0.88486  1.0000
  S   S30       1.0  0.03107  0.35717  0.93373  1.0000
  Fe  Fe18      1.0  0.23969  0.13786  0.92937  1.0000
  S   S31       1.0  0.19887  0.19121  0.94900  1.0000
  Fe  Fe19      1.0  0.24144  0.06144  0.90366  1.0000
  H   H71       1.0  0.02493  0.45047  0.98907  1.0000
  S   S32       1.0  0.32317  0.12959  0.93147  1.0000
  S   S33       1.0  0.32462  0.04806  0.90398  1.0000
  Fe  Fe20      1.0  0.06327  0.35035  0.88830  1.0000
  S   S34       1.0  0.11292  0.39434  0.89027  1.0000
  S   S35       1.0  0.09271  0.29459  0.86828  1.0000
  C   C70       1.0  0.04573  0.31992  0.99672  1.0000
  C   C71       1.0  0.05040  0.46575  0.81459  1.0000
  Fe  Fe21      1.0  0.04493  0.43077  0.88070  1.0000
  H   H72       1.0  0.18421  0.00788  0.96946  1.0000
  Fe  Fe22      1.0  0.07635  0.40340  0.93557  1.0000
  S   S36       1.0  0.11942  0.40278  0.97264  1.0000
  H   H73       1.0  0.00561  0.38397  0.72587  1.0000
  S   S37       1.0  0.99796  0.38587  0.87534  1.0000
  H   H74       1.0  0.44211  0.11741  0.79615  1.0000
  S   S38       1.0  0.20142  0.01563  0.89014  1.0000
  C   C72       1.0  0.06338  0.43005  0.80328  1.0000
  C   C73       1.0  0.07169  0.42267  0.77396  1.0000
  C   C74       1.0  0.06665  0.45083  0.75579  1.0000
  C   C75       1.0  0.05295  0.48648  0.76713  1.0000
  C   C76       1.0  0.47343  0.49526  0.95104  1.0000
  H   H75       1.0  0.06783  0.40819  0.81710  1.0000
  H   H76       1.0  0.08254  0.39504  0.76535  1.0000
  C   C77       1.0  0.40577  0.10906  0.79356  1.0000
  C   C78       1.0  0.34694  0.09189  0.76291  1.0000
  H   H77       1.0  0.07495  0.33637  0.98739  1.0000
  N   N7        1.0  0.45802  0.48786  0.98040  1.0000
  S   S39       1.0  0.38671  0.11277  0.85119  1.0000
  H   H78       1.0  0.42116  0.10574  0.74818  1.0000
  C   C79       1.0  0.04500  0.49389  0.79642  1.0000
  C   C80       1.0  0.16661  0.21898  0.92704  1.0000
  C   C81       1.0  0.15567  0.20521  0.90139  1.0000
  C   C82       1.0  0.13147  0.22837  0.88379  1.0000
  C   C83       1.0  0.11868  0.26539  0.89165  1.0000
  C   C84       1.0  0.12967  0.27907  0.91732  1.0000
  C   C85       1.0  0.15303  0.25585  0.93511  1.0000
  H   H79       1.0  0.16537  0.17673  0.89520  1.0000
  H   H80       1.0  0.12308  0.21767  0.86395  1.0000
  H   H81       1.0  0.12164  0.30772  0.92313  1.0000
  H   H82       1.0  0.16184  0.26669  0.95480  1.0000
  C   C86       1.0  0.32413  0.09381  0.81376  1.0000
  C   C87       1.0  0.31190  0.08800  0.78667  1.0000
  H   H83       1.0  0.29741  0.08948  0.83177  1.0000
  H   H84       1.0  0.27552  0.07970  0.78409  1.0000
  C   C88       1.0  0.37095  0.10463  0.81734  1.0000
  C   C89       1.0  0.26570  0.17498  0.00804  1.0000
  S   S40       1.0  0.33113  0.08227  0.72935  1.0000
  Fe  Fe23      1.0  0.39190  0.08193  0.69187  1.0000
  N   N8        1.0  0.26335  0.21005  0.84085  1.0000
  C   C90       1.0  0.23607  0.24357  0.84097  1.0000
  C   C91       1.0  0.28796  0.20087  0.86301  1.0000
  C   C92       1.0  0.23360  0.26907  0.86353  1.0000
  C   C93       1.0  0.28531  0.22541  0.88619  1.0000
  C   C94       1.0  0.25803  0.25976  0.88636  1.0000
  C   C95       1.0  0.26546  0.18314  0.81739  1.0000
  H   H85       1.0  0.21500  0.25063  0.82396  1.0000
  H   H86       1.0  0.30929  0.17423  0.86298  1.0000
  H   H87       1.0  0.21072  0.29526  0.86389  1.0000
  H   H88       1.0  0.30334  0.21753  0.90415  1.0000
  H   H89       1.0  0.25444  0.27875  0.90452  1.0000
  H   H90       1.0  0.24582  0.15997  0.82473  1.0000
  H   H91       1.0  0.24716  0.19453  0.79987  1.0000
  H   H92       1.0  0.30553  0.17284  0.80886  1.0000
  H   H93       1.0  0.44144  0.49406  0.93887  1.0000
  H   H94       1.0  0.27599  0.17533  0.98547  1.0000
  H   H95       1.0  0.30141  0.00814  0.85788  1.0000
  C   C96       1.0  0.39394  0.01269  0.80262  1.0000
  C   C97       1.0  0.49531  0.36446  0.69644  1.0000
  S   S41       1.0  0.04070  0.47629  0.85121  1.0000
  S   S42       1.0  0.01388  0.44463  0.92645  1.0000
  S   S43       1.0  0.07820  0.44063  0.71908  1.0000
  C   C98       1.0  0.39397  0.10246  0.76639  1.0000
  H   H96       1.0  0.43828  0.43595  0.96933  1.0000
  Fe  Fe24      1.0  0.05592  0.48402  0.69032  1.0000
  H   H97       1.0  0.38165  0.10567  0.99171  1.0000
  H   H98       1.0  0.39147  0.02067  0.82481  1.0000
  H   H99       1.0  0.38129  0.00809  0.70566  1.0000
  C   C99       1.0  0.46960  0.34311  0.68029  1.0000
  C   C100      1.0  0.04014  0.44275  0.00786  1.0000
  C   C101      1.0  0.08570  0.41960  0.00567  1.0000
  H   H100      1.0  0.00304  0.40092  0.69166  1.0000
  C   C102      1.0  0.47519  0.30568  0.68233  1.0000
  S   S44       1.0  0.47088  0.05656  0.69412  1.0000
  C   C103      1.0  0.44020  0.45579  0.98624  1.0000
  H   H101      1.0  0.03447  0.30319  0.97951  1.0000
  H   H102      1.0  0.19353  0.15682  0.00517  1.0000
  C   C104      1.0  0.43907  0.01333  0.78451  1.0000
  H   H103      1.0  0.47184  0.02173  0.79258  1.0000
  H   H104      1.0  0.49116  0.39365  0.69510  1.0000
  Fe  Fe25      1.0  0.29887  0.78929  0.11512  1.0000
  S   S45       1.0  0.37963  0.79524  0.10014  1.0000
  S   S46       1.0  0.23412  0.80301  0.09105  1.0000
  Fe  Fe26      1.0  0.32078  0.76822  0.17367  1.0000
  S   S47       1.0  0.40374  0.77222  0.16302  1.0000
  S   S48       1.0  0.28502  0.75162  0.21556  1.0000
  Fe  Fe27      1.0  0.37767  0.82302  0.14280  1.0000
  S   S49       1.0  0.41171  0.87517  0.14654  1.0000
  Fe  Fe28      1.0  0.39693  0.74395  0.12171  1.0000
  C   C105      1.0  0.34441  0.98119  0.08924  1.0000
  S   S50       1.0  0.29502  0.82059  0.15632  1.0000
  S   S51       1.0  0.31561  0.73605  0.13380  1.0000
  C   C106      1.0  0.09424  0.62108  0.33189  1.0000
  H   H105      1.0  0.41541  0.58801  0.15263  1.0000
  H   H106      1.0  0.28140  0.87211  0.23667  1.0000
  H   H107      1.0  0.23848  0.88831  0.09385  1.0000
  C   C107      1.0  0.36998  0.94619  0.08346  1.0000
  C   C108      1.0  0.26731  0.89038  0.10808  1.0000
  C   C109      1.0  0.36338  0.71524  0.04209  1.0000
  H   H108      1.0  0.44721  0.63260  0.23082  1.0000
  H   H109      1.0  0.05846  0.55771  0.28827  1.0000
  H   H110      1.0  0.29320  0.86448  0.10517  1.0000
  C   C110      1.0  0.06996  0.60670  0.31098  1.0000
  C   C111      1.0  0.49206  0.68074  0.14481  1.0000
  H   H111      1.0  0.24611  0.93826  0.18850  1.0000
  C   C112      1.0  0.43303  0.60627  0.19275  1.0000
  C   C113      1.0  0.34592  0.97928  0.16022  1.0000
  S   S52       1.0  0.31237  0.83831  0.32792  1.0000
  H   H112      1.0  0.43384  0.92172  0.21552  1.0000
  H   H113      1.0  0.36471  0.64664  0.14589  1.0000
  C   C114      1.0  0.38183  0.64300  0.16483  1.0000
  H   H114      1.0  0.45328  0.52385  0.04674  1.0000
  H   H115      1.0  0.27701  0.88947  0.27271  1.0000
  N   N9        1.0  0.31043  0.92231  0.24236  1.0000
  H   H116      1.0  0.48025  0.70874  0.15197  1.0000
  C   C115      1.0  0.18951  0.81128  0.01519  1.0000
  H   H117      1.0  0.11328  0.51795  0.31419  1.0000
  H   H118      1.0  0.04603  0.62449  0.29970  1.0000
  C   C116      1.0  0.41008  0.61014  0.16865  1.0000
  C   C117      1.0  0.35983  0.90900  0.23262  1.0000
  H   H119      1.0  0.35781  0.70003  0.24314  1.0000
  C   C118      1.0  0.26911  0.95579  0.10775  1.0000
  C   C119      1.0  0.29249  0.77652  0.24645  1.0000
  C   C120      1.0  0.26125  0.77229  0.27167  1.0000
  C   C121      1.0  0.26689  0.79121  0.29674  1.0000
  C   C122      1.0  0.30448  0.81400  0.29685  1.0000
  C   C123      1.0  0.33619  0.81793  0.27168  1.0000
  C   C124      1.0  0.32995  0.79951  0.24648  1.0000
  H   H120      1.0  0.23229  0.75449  0.27180  1.0000
  H   H121      1.0  0.24228  0.78799  0.31602  1.0000
  H   H122      1.0  0.36573  0.83519  0.27176  1.0000
  H   H123      1.0  0.35457  0.80262  0.22720  1.0000
  C   C125      1.0  0.23689  0.80532  0.05440  1.0000
  C   C126      1.0  0.28235  0.80300  0.03563  1.0000
  C   C127      1.0  0.29527  0.95889  0.24483  1.0000
  H   H124      1.0  0.35509  0.69708  0.18214  1.0000
  H   H125      1.0  0.22997  0.95985  0.11784  1.0000
  C   C128      1.0  0.19077  0.80983  0.04400  1.0000
  H   H126      1.0  0.31817  0.80003  0.04359  1.0000
  H   H127      1.0  0.40973  0.94207  0.07448  1.0000
  H   H128      1.0  0.15554  0.81189  0.05831  1.0000
  C   C129      1.0  0.31955  0.91054  0.17112  1.0000
  C   C130      1.0  0.36805  0.91384  0.15761  1.0000
  C   C131      1.0  0.38157  0.94836  0.15262  1.0000
  H   H129      1.0  0.30982  0.88460  0.17686  1.0000
  H   H130      1.0  0.41933  0.95115  0.14247  1.0000
  S   S53       1.0  0.44563  0.69549  0.09842  1.0000
  N   N10       1.0  0.40081  0.66794  0.20845  1.0000
  H   H131      1.0  0.39662  0.72443  0.21916  1.0000
  C   C132      1.0  0.37714  0.67165  0.18521  1.0000
  H   H132      1.0  0.25604  0.96955  0.25216  1.0000
  C   C133      1.0  0.29682  0.97555  0.17281  1.0000
  C   C134      1.0  0.28381  0.94118  0.17831  1.0000
  C   C135      1.0  0.39510  0.69843  0.22950  1.0000
  H   H133      1.0  0.34293  0.92679  0.34051  1.0000
  H   H134      1.0  0.23449  0.90922  0.24992  1.0000
  C   C136      1.0  0.37991  0.96978  0.22637  1.0000
  C   C137      1.0  0.27403  0.89716  0.25091  1.0000
  H   H135      1.0  0.28443  0.71932  0.03718  1.0000
  H   H136      1.0  0.37184  0.88001  0.23047  1.0000
  C   C138      1.0  0.41289  0.71439  0.02821  1.0000
  H   H137      1.0  0.08954  0.65011  0.33699  1.0000
  H   H138      1.0  0.45641  0.58117  0.19549  1.0000
  H   H139      1.0  0.24821  0.89293  0.13022  1.0000
  N   N11       1.0  0.29443  0.92157  0.10190  1.0000
  H   H140      1.0  0.36485  0.88941  0.08604  1.0000
  H   H141      1.0  0.35636  0.71429  0.06480  1.0000
  C   C139      1.0  0.34429  0.91649  0.09000  1.0000
  C   C140      1.0  0.42809  0.63565  0.21254  1.0000
  C   C141      1.0  0.10753  0.54687  0.31953  1.0000
  C   C142      1.0  0.39519  0.93248  0.22427  1.0000
  H   H142      1.0  0.44382  0.71251  0.04055  1.0000
  C   C143      1.0  0.07689  0.56935  0.30456  1.0000
  H   H143      1.0  0.42573  0.69593  0.24280  1.0000
  C   C144      1.0  0.32315  0.71773  0.02657  1.0000
  C   C145      1.0  0.29367  0.98610  0.10155  1.0000
  H   H144      1.0  0.48876  0.62098  0.08981  1.0000
  C   C146      1.0  0.32970  0.98314  0.23680  1.0000
  N   N12       1.0  0.12942  0.56106  0.34080  1.0000
  H   H145      1.0  0.36417  0.00445  0.08466  1.0000
  C   C147      1.0  0.48092  0.66755  0.11904  1.0000
  H   H146      1.0  0.40663  0.98827  0.21938  1.0000
  Fe  Fe29      1.0  0.22748  0.81105  0.62749  1.0000
  S   S54       1.0  0.29737  0.77104  0.61616  1.0000
  S   S55       1.0  0.18759  0.83618  0.59328  1.0000
  C   C148      1.0  0.17741  0.98029  0.42567  1.0000
  Fe  Fe30      1.0  0.32791  0.80306  0.64913  1.0000
  H   H147      1.0  0.12344  0.51919  0.52714  1.0000
  Fe  Fe31      1.0  0.26255  0.74021  0.65135  1.0000
  H   H148      1.0  0.38902  0.95216  0.65398  1.0000
  Fe  Fe32      1.0  0.06339  0.50825  0.63004  1.0000
  S   S56       1.0  0.08586  0.61500  0.41781  1.0000
  Fe  Fe33      1.0  0.18500  0.88348  0.40975  1.0000
  S   S57       1.0  0.26749  0.86374  0.40731  1.0000
  Fe  Fe34      1.0  0.15846  0.80789  0.39358  1.0000
  S   S58       1.0  0.23961  0.78280  0.38938  1.0000
  Fe  Fe35      1.0  0.24080  0.81620  0.42956  1.0000
  S   S59       1.0  0.27435  0.78981  0.46541  1.0000
  Fe  Fe36      1.0  0.25767  0.83280  0.36748  1.0000
  C   C149      1.0  0.15203  0.61336  0.66480  1.0000
  S   S60       1.0  0.15858  0.83826  0.43493  1.0000
  S   S61       1.0  0.17632  0.85560  0.36874  1.0000
  C   C150      1.0  0.08813  0.65889  0.40583  1.0000
  H   H149      1.0  0.14332  0.60904  0.36265  1.0000
  H   H150      1.0  0.14118  0.73322  0.61512  1.0000
  S   S62       1.0  0.14814  0.94106  0.42045  1.0000
  C   C151      1.0  0.10445  0.70685  0.47440  1.0000
  H   H151      1.0  0.25506  0.95527  0.41694  1.0000
  S   S63       1.0  0.26012  0.84484  0.65877  1.0000
  H   H152      1.0  0.05507  0.66513  0.47483  1.0000
  S   S64       1.0  0.40768  0.81719  0.64345  1.0000
  H   H153      1.0  0.26544  0.88588  0.60132  1.0000
  H   H154      1.0  0.15263  0.78355  0.48025  1.0000
  C   C152      1.0  0.09117  0.69226  0.62149  1.0000
  H   H155      1.0  0.41542  0.80418  0.58196  1.0000
  C   C153      1.0  0.13202  0.67524  0.40771  1.0000
  C   C154      1.0  0.13441  0.71125  0.40079  1.0000
  H   H156      1.0  0.16402  0.66025  0.41518  1.0000
  H   H157      1.0  0.16806  0.72376  0.40283  1.0000
  C   C155      1.0  0.13645  0.70500  0.61113  1.0000
  C   C156      1.0  0.19763  0.62683  0.65532  1.0000
  C   C157      1.0  0.02643  0.75131  0.45655  1.0000
  H   H158      1.0  0.25702  0.90782  0.34853  1.0000
  H   H159      1.0  0.18127  0.75489  0.44952  1.0000
  S   S65       1.0  0.25987  0.67967  0.64784  1.0000
  C   C158      1.0  0.01981  0.71577  0.46249  1.0000
  C   C159      1.0  0.05901  0.69332  0.47147  1.0000
  C   C160      1.0  0.39235  0.80773  0.54088  1.0000
  C   C161      1.0  0.30983  0.94711  0.34514  1.0000
  C   C162      1.0  0.20885  0.82148  0.55767  1.0000
  C   C163      1.0  0.19232  0.84236  0.53639  1.0000
  C   C164      1.0  0.21130  0.83263  0.50792  1.0000
  C   C165      1.0  0.24677  0.80179  0.50058  1.0000
  C   C166      1.0  0.26203  0.78032  0.52179  1.0000
  C   C167      1.0  0.24317  0.79009  0.55019  1.0000
  H   H160      1.0  0.16545  0.86655  0.54195  1.0000
  H   H161      1.0  0.19926  0.84943  0.49175  1.0000
  H   H162      1.0  0.28918  0.75628  0.51626  1.0000
  H   H163      1.0  0.25535  0.77330  0.56620  1.0000
  C   C168      1.0  0.42781  0.86070  0.64493  1.0000
  H   H164      1.0  0.42052  0.78580  0.53111  1.0000
  C   C169      1.0  0.41435  0.92701  0.65035  1.0000
  C   C170      1.0  0.39466  0.89335  0.64994  1.0000
  S   S66       1.0  0.06792  0.51907  0.41769  1.0000
  H   H165      1.0  0.14663  0.51001  0.35799  1.0000
  H   H166      1.0  0.21214  0.69049  0.58898  1.0000
  H   H167      1.0  0.10094  0.58953  0.57944  1.0000
  H   H168      1.0  0.18151  0.95429  0.35982  1.0000
  C   C171      1.0  0.35876  0.82586  0.52504  1.0000
  C   C172      1.0  0.08644  0.65553  0.61696  1.0000
  C   C173      1.0  0.38938  0.81790  0.56937  1.0000
  H   H169      1.0  0.15709  0.57622  0.59496  1.0000
  C   C174      1.0  0.17012  0.64452  0.59203  1.0000
  C   C175      1.0  0.04955  0.71446  0.38900  1.0000
  H   H170      1.0  0.13539  0.68881  0.48035  1.0000
  H   H171      1.0  0.20157  0.62597  0.58092  1.0000
  H   H172      1.0  0.35419  0.89269  0.65343  1.0000
  H   H173      1.0  0.29720  0.91798  0.58051  1.0000
  C   C176      1.0  0.46706  0.92781  0.64584  1.0000
  C   C177      1.0  0.32223  0.85375  0.53809  1.0000
  H   H174      1.0  0.05164  0.64560  0.62578  1.0000
  H   H175      1.0  0.29588  0.86735  0.52568  1.0000
  H   H176      1.0  0.35014  0.85348  0.60389  1.0000
  C   C178      1.0  0.35224  0.84580  0.58173  1.0000
  C   C179      1.0  0.23017  0.98043  0.42220  1.0000
  H   H177      1.0  0.14831  0.58539  0.65991  1.0000
  H   H178      1.0  0.36015  0.81790  0.50292  1.0000
  C   C180      1.0  0.07234  0.76393  0.45972  1.0000
  H   H179      1.0  0.06045  0.71047  0.63364  1.0000
  S   S67       1.0  0.19053  0.77849  0.66077  1.0000
  N   N13       1.0  0.12586  0.63215  0.60265  1.0000
  H   H180      1.0  0.24722  0.89572  0.56818  1.0000
  H   H181      1.0  0.15762  0.54830  0.37886  1.0000
  C   C181      1.0  0.48001  0.86201  0.64048  1.0000
  N   N14       1.0  0.11041  0.74187  0.46882  1.0000
  C   C182      1.0  0.12001  0.59381  0.59813  1.0000
  C   C183      1.0  0.28048  0.89224  0.57964  1.0000
  C   C184      1.0  0.04718  0.67831  0.39589  1.0000
  C   C185      1.0  0.16025  0.53703  0.35681  1.0000
  H   H182      1.0  0.07344  0.51241  0.48800  1.0000
  C   C186      1.0  0.21914  0.96249  0.35560  1.0000
  S   S68       1.0  0.10556  0.51965  0.66599  1.0000
  H   H183      1.0  0.09713  0.58415  0.61667  1.0000
  N   N15       1.0  0.31874  0.86288  0.56621  1.0000
  C   C187      1.0  0.15886  0.75531  0.47079  1.0000
  C   C188      1.0  0.20299  0.66325  0.66118  1.0000
  C   C189      1.0  0.17621  0.68105  0.59629  1.0000
  H   H184      1.0  0.18195  0.73886  0.48417  1.0000
  C   C190      1.0  0.09279  0.73127  0.39196  1.0000
  H   H185      1.0  0.22864  0.60908  0.64309  1.0000
  S   S69       1.0  0.09206  0.77786  0.38656  1.0000
  Fe  Fe37      1.0  0.02955  0.57520  0.41276  1.0000
  H   H186      1.0  0.01726  0.72984  0.38210  1.0000
  H   H187      1.0  0.07788  0.79110  0.45391  1.0000
  C   C191      1.0  0.05828  0.50631  0.50901  1.0000
  C   C192      1.0  0.31501  0.98405  0.34727  1.0000
  C   C193      1.0  0.08653  0.51013  0.53119  1.0000
  H   H188      1.0  0.35270  0.99233  0.34396  1.0000
  C   C194      1.0  0.26155  0.93637  0.34950  1.0000
  H   H189      1.0  0.01321  0.66594  0.39433  1.0000
  C   C195      1.0  0.22566  0.99915  0.35767  1.0000
  S   S70       1.0  0.10438  0.50590  0.58570  1.0000
  S   S71       1.0  0.00114  0.55423  0.64199  1.0000
  S   S72       1.0  0.49617  0.96800  0.64606  1.0000
  C   C196      1.0  0.12440  0.59771  0.34648  1.0000
  H   H190      1.0  0.20044  0.53343  0.34677  1.0000
  S   S73       1.0  0.99684  0.55902  0.37419  1.0000
  H   H191      1.0  0.99717  0.76856  0.44833  1.0000
  Fe  Fe38      1.0  0.35340  0.82907  0.87876  1.0000
  S   S74       1.0  0.27552  0.81320  0.88208  1.0000
  S   S75       1.0  0.37033  0.88100  0.85976  1.0000
  Fe  Fe39      1.0  0.39598  0.75842  0.90145  1.0000
  S   S76       1.0  0.32071  0.73734  0.90643  1.0000
  C   C197      1.0  0.33283  0.71935  0.99744  1.0000
  Fe  Fe40      1.0  0.31394  0.75902  0.86404  1.0000
  S   S77       1.0  0.29449  0.72817  0.82643  1.0000
  Fe  Fe41      1.0  0.29077  0.79398  0.92399  1.0000
  S   S78       1.0  0.22853  0.80981  0.96028  1.0000
  S   S79       1.0  0.39162  0.77598  0.85789  1.0000
  S   S80       1.0  0.36635  0.81378  0.92192  1.0000
  H   H192      1.0  0.15333  0.81447  0.00756  1.0000
  S   S81       1.0  0.20233  0.82464  0.73609  1.0000
  H   H193      1.0  0.34987  0.82754  0.81390  1.0000
  C   C198      1.0  0.28230  0.88290  0.80574  1.0000
  C   C199      1.0  0.43159  0.66244  0.90617  1.0000
  C   C200      1.0  0.43737  0.62460  0.90236  1.0000
  C   C201      1.0  0.30590  0.85922  0.75663  1.0000
  C   C202      1.0  0.34512  0.82950  0.79200  1.0000
  C   C203      1.0  0.45060  0.60931  0.83039  1.0000
  H   H194      1.0  0.39492  0.67766  0.90609  1.0000
  H   H195      1.0  0.40499  0.61101  0.89932  1.0000
  C   C204      1.0  0.21584  0.61496  0.72293  1.0000
  N   N16       1.0  0.31139  0.85635  0.78429  1.0000
  C   C205      1.0  0.26620  0.75453  0.80193  1.0000
  C   C206      1.0  0.23992  0.78909  0.80969  1.0000
  C   C207      1.0  0.21860  0.80978  0.78960  1.0000
  C   C208      1.0  0.22430  0.79640  0.76150  1.0000
  C   C209      1.0  0.24900  0.76134  0.75400  1.0000
  C   C210      1.0  0.26995  0.74053  0.77410  1.0000
  H   H196      1.0  0.23529  0.79973  0.83123  1.0000
  H   H197      1.0  0.19821  0.83642  0.79577  1.0000
  H   H198      1.0  0.25152  0.75003  0.73280  1.0000
  H   H199      1.0  0.28966  0.71367  0.76800  1.0000
  C   C211      1.0  0.24604  0.97757  0.87871  1.0000
  C   C212      1.0  0.23539  0.94306  0.88575  1.0000
  C   C213      1.0  0.27335  0.91326  0.88009  1.0000
  C   C214      1.0  0.32168  0.91768  0.86669  1.0000
  C   C215      1.0  0.33141  0.95188  0.85826  1.0000
  C   C216      1.0  0.29365  0.98174  0.86426  1.0000
  H   H200      1.0  0.19839  0.93956  0.89656  1.0000
  H   H201      1.0  0.26523  0.88717  0.88667  1.0000
  H   H202      1.0  0.36853  0.95540  0.84762  1.0000
  N   N17       1.0  0.18130  0.64158  0.73762  1.0000
  N   N18       1.0  0.39942  0.99451  0.74552  1.0000
  C   C217      1.0  0.37300  0.80373  0.77188  1.0000
  C   C218      1.0  0.33378  0.83427  0.73591  1.0000
  C   C219      1.0  0.36720  0.80620  0.74365  1.0000
  H   H203      1.0  0.39849  0.78184  0.77822  1.0000
  H   H204      1.0  0.31559  0.00410  0.80557  1.0000
  H   H205      1.0  0.38820  0.78630  0.72777  1.0000
  H   H206      1.0  0.38999  0.69542  0.83965  1.0000
  H   H207      1.0  0.22532  0.68384  0.72510  1.0000
  C   C220      1.0  0.28108  0.80430  0.00639  1.0000
  N   N19       1.0  0.42202  0.71610  0.99964  1.0000
  H   H208      1.0  0.31592  0.80245  0.99183  1.0000
  C   C221      1.0  0.23435  0.80809  0.99621  1.0000
  H   H209      1.0  0.47708  0.73983  0.97303  1.0000
  N   N20       1.0  0.23111  0.95825  0.95515  1.0000
  C   C222      1.0  0.32521  0.91680  0.94056  1.0000
  H   H210      1.0  0.28495  0.87093  0.94934  1.0000
  H   H211      1.0  0.30466  0.90537  0.80937  1.0000
  H   H212      1.0  0.37256  0.63246  0.83091  1.0000
  H   H213      1.0  0.27853  0.88007  0.75050  1.0000
  H   H214      1.0  0.20181  0.90795  0.96153  1.0000
  H   H215      1.0  0.44260  0.58174  0.82700  1.0000
  C   C223      1.0  0.12114  0.59908  0.74583  1.0000
  C   C224      1.0  0.23512  0.92135  0.95586  1.0000
  H   H216      1.0  0.16683  0.71365  0.68252  1.0000
  H   H217      1.0  0.44116  0.97992  0.70437  1.0000
  S   S82       1.0  0.46742  0.72785  0.91266  1.0000
  Fe  Fe42      1.0  0.23226  0.80678  0.69072  1.0000
  C   C225      1.0  0.28222  0.90014  0.94885  1.0000
  S   S83       1.0  0.05358  0.62051  0.69249  1.0000
  S   S84       1.0  0.30269  0.76692  0.68276  1.0000
  H   H218      1.0  0.16192  0.69903  0.74114  1.0000
  H   H219      1.0  0.36176  0.90061  0.93424  1.0000
  C   C226      1.0  0.27307  0.97480  0.94713  1.0000
  H   H220      1.0  0.35367  0.96780  0.93322  1.0000
  H   H221      1.0  0.24555  0.89398  0.79946  1.0000
  H   H222      1.0  0.27322  0.87016  0.82597  1.0000
  C   C227      1.0  0.13463  0.63395  0.74926  1.0000
  C   C228      1.0  0.11738  0.67235  0.68680  1.0000
  H   H223      1.0  0.23059  0.55895  0.70690  1.0000
  C   C229      1.0  0.42065  0.67324  0.83746  1.0000
  C   C230      1.0  0.32070  0.95441  0.93979  1.0000
  C   C231      1.0  0.19491  0.67817  0.74189  1.0000
  H   H224      1.0  0.20807  0.68137  0.76262  1.0000
  C   C232      1.0  0.38282  0.71851  0.98424  1.0000
  C   C233      1.0  0.20360  0.57978  0.71913  1.0000
  H   H225      1.0  0.47750  0.70730  0.84466  1.0000
  H   H226      1.0  0.25270  0.62105  0.71347  1.0000
  H   H227      1.0  0.10708  0.65506  0.76074  1.0000
  C   C234      1.0  0.15583  0.57190  0.73058  1.0000
  H   H228      1.0  0.08643  0.69011  0.69907  1.0000
  H   H229      1.0  0.32852  0.83620  0.71407  1.0000
  H   H230      1.0  0.39011  0.72010  0.96160  1.0000
  C   C235      1.0  0.18117  0.97999  0.96120  1.0000
  C   C236      1.0  0.47334  0.68029  0.90945  1.0000
  H   H231      1.0  0.30165  0.72212  0.98526  1.0000
  H   H232      1.0  0.32092  0.98901  0.75459  1.0000
  C   C237      1.0  0.46979  0.67990  0.84003  1.0000
  C   C238      1.0  0.47391  0.71530  0.98514  1.0000
  C   C239      1.0  0.41086  0.63777  0.83260  1.0000
  H   H233      1.0  0.03527  0.52157  0.80505  1.0000
  H   H234      1.0  0.16395  0.98208  0.94156  1.0000
  C   C240      1.0  0.35139  0.00332  0.79185  1.0000
  H   H235      1.0  0.15555  0.96776  0.97715  1.0000
  H   H236      1.0  0.38360  0.96051  0.71194  1.0000
  H   H237      1.0  0.48406  0.69103  0.97019  1.0000
  H   H238      1.0  0.14537  0.54493  0.72733  1.0000
  C   C241      1.0  0.48492  0.60437  0.90180  1.0000
  C   C242      1.0  0.40152  0.98533  0.71542  1.0000
  Fe  Fe43      1.0  0.04111  0.56380  0.67896  1.0000
  H   H239      1.0  0.08345  0.59345  0.75420  1.0000
  H   H240      1.0  0.26979  0.00394  0.94605  1.0000
  C   C243      1.0  0.35465  0.99474  0.76302  1.0000
  H   H241      1.0  0.48573  0.52254  0.94895  1.0000
  H   H242      1.0  0.47792  0.53732  0.99717  1.0000
  S   S85       1.0  0.49110  0.55741  0.89428  1.0000
  H   H243      1.0  0.47630  0.00504  0.74185  1.0000
  C   C244      1.0  0.44120  0.00409  0.75583  1.0000
  C   C245      1.0  0.46241  0.51235  0.00171  1.0000
  C   C246      1.0  0.11163  0.63615  0.68046  1.0000
  H   H244      1.0  0.04954  0.50842  0.75338  1.0000
  C   C247      1.0  0.16286  0.68584  0.67722  1.0000
  S   S86       1.0  0.88858  0.35252  0.15954  1.0000
  S   S87       1.0  0.62873  0.43588  0.12687  1.0000
  C   C248      1.0  0.57995  0.44670  0.29828  1.0000
  C   C249      1.0  0.68668  0.39765  0.03938  1.0000
  Fe  Fe44      1.0  0.59971  0.45685  0.17148  1.0000
  S   S88       1.0  0.59692  0.41489  0.20398  1.0000
  C   C250      1.0  0.59003  0.42794  0.24015  1.0000
  C   C251      1.0  0.58680  0.41028  0.28848  1.0000
  C   C252      1.0  0.59136  0.40098  0.25954  1.0000
  H   H245      1.0  0.59540  0.37278  0.25218  1.0000
  C   C253      1.0  0.82315  0.43203  0.30869  1.0000
  C   C254      1.0  0.71242  0.45740  0.03757  1.0000
  H   H246      1.0  0.57682  0.49979  0.03855  1.0000
  Fe  Fe45      1.0  0.95837  0.37911  0.16229  1.0000
  S   S89       1.0  0.75759  0.47484  0.10673  1.0000
  H   H247      1.0  0.72317  0.48112  0.04802  1.0000
  S   S90       1.0  0.96655  0.47979  0.23230  1.0000
  C   C255      1.0  0.85128  0.38111  0.14043  1.0000
  C   C256      1.0  0.79839  0.38427  0.14590  1.0000
  C   C257      1.0  0.76903  0.41264  0.13512  1.0000
  H   H248      1.0  0.78023  0.36596  0.15956  1.0000
  H   H249      1.0  0.72835  0.41605  0.14059  1.0000
  H   H250      1.0  0.67749  0.37499  0.05158  1.0000
  H   H251      1.0  0.91520  0.40126  0.11732  1.0000
  H   H252      1.0  0.58726  0.38932  0.30325  1.0000
  C   C258      1.0  0.49879  0.29178  0.31769  1.0000
  H   H253      1.0  0.86393  0.45071  0.09787  1.0000
  N   N21       1.0  0.77800  0.41956  0.20848  1.0000
  C   C259      1.0  0.81688  0.39574  0.21494  1.0000
  C   C260      1.0  0.72960  0.41086  0.21171  1.0000
  C   C261      1.0  0.80821  0.36151  0.22372  1.0000
  C   C262      1.0  0.71959  0.37688  0.22049  1.0000
  C   C263      1.0  0.75922  0.35203  0.22640  1.0000
  C   C264      1.0  0.78866  0.45461  0.19817  1.0000
  H   H254      1.0  0.85542  0.40239  0.21195  1.0000
  H   H255      1.0  0.69856  0.42976  0.20678  1.0000
  H   H256      1.0  0.83971  0.34204  0.22731  1.0000
  H   H257      1.0  0.68145  0.36966  0.22208  1.0000
  H   H258      1.0  0.75208  0.32531  0.23262  1.0000
  H   H259      1.0  0.75765  0.46715  0.18731  1.0000
  H   H260      1.0  0.79354  0.47316  0.21599  1.0000
  H   H261      1.0  0.82369  0.45093  0.18241  1.0000
  C   C265      1.0  0.84533  0.43219  0.11112  1.0000
  C   C266      1.0  0.57863  0.47369  0.27891  1.0000
  Fe  Fe46      1.0  0.67580  0.48147  0.12617  1.0000
  H   H262      1.0  0.89224  0.41182  0.05163  1.0000
  Fe  Fe47      1.0  0.56917  0.47693  0.11461  1.0000
  C   C267      1.0  0.92284  0.39247  0.04063  1.0000
  C   C268      1.0  0.79265  0.43705  0.11816  1.0000
  C   C269      1.0  0.87447  0.40423  0.12219  1.0000
  H   H263      1.0  0.53622  0.29778  0.32271  1.0000
  C   C270      1.0  0.57034  0.47366  0.03006  1.0000
  C   C271      1.0  0.77831  0.50139  0.32764  1.0000
  H   H264      1.0  0.67409  0.48914  0.32082  1.0000
  C   C272      1.0  0.58407  0.46436  0.24988  1.0000
  S   S91       1.0  0.94467  0.43940  0.16306  1.0000
  H   H265      1.0  0.57301  0.23674  0.30546  1.0000
  H   H266      1.0  0.74864  0.41690  0.31959  1.0000
  C   C273      1.0  0.53615  0.22805  0.31157  1.0000
  C   C274      1.0  0.54722  0.44981  0.04789  1.0000
  S   S92       1.0  0.57219  0.45924  0.33457  1.0000
  H   H267      1.0  0.51885  0.39834  0.05016  1.0000
  C   C275      1.0  0.69504  0.48054  0.33820  1.0000
  H   H268      1.0  0.98030  0.47535  0.03584  1.0000
  C   C276      1.0  0.99538  0.49356  0.31219  1.0000
  C   C277      1.0  0.53769  0.41651  0.03663  1.0000
  C   C278      1.0  0.99489  0.47495  0.26304  1.0000
  H   H269      1.0  0.84050  0.40457  0.30222  1.0000
  S   S93       1.0  0.51936  0.46391  0.08256  1.0000
  H   H270      1.0  0.57301  0.50192  0.28639  1.0000
  C   C279      1.0  0.85282  0.46029  0.30825  1.0000
  S   S94       1.0  0.65159  0.49958  0.17153  1.0000
  H   H271      1.0  0.89336  0.45495  0.30122  1.0000
  N   N22       1.0  0.74959  0.47346  0.32817  1.0000
  H   H272      1.0  0.58276  0.48534  0.23512  1.0000
  C   C280      1.0  0.77121  0.43918  0.31861  1.0000
  C   C281      1.0  0.53238  0.19096  0.31229  1.0000
  H   H273      1.0  0.56579  0.17119  0.30662  1.0000
  C   C282      1.0  0.70079  0.42798  0.05296  1.0000
  C   C283      1.0  0.97421  0.49709  0.28724  1.0000
  H   H274      1.0  0.70292  0.42866  0.07527  1.0000
  C   C284      1.0  0.96530  0.38180  0.05332  1.0000
  N   N23       1.0  0.68445  0.39659  0.01116  1.0000
  C   C285      1.0  0.83033  0.49523  0.31777  1.0000
  S   S95       1.0  0.53485  0.49377  0.15938  1.0000
  H   H275      1.0  0.96825  0.39308  0.07407  1.0000
  C   C286      1.0  0.92046  0.37862  0.01353  1.0000
  S   S96       1.0  0.65736  0.37261  0.34817  1.0000
  S   S97       1.0  0.60326  0.27847  0.36556  1.0000
  C   C287      1.0  0.79147  0.44008  0.38581  1.0000
  C   C288      1.0  0.62400  0.19802  0.58501  1.0000
  C   C289      1.0  0.65459  0.17764  0.60119  1.0000
  C   C290      1.0  0.60500  0.22986  0.66140  1.0000
  H   H276      1.0  0.90850  0.48620  0.60007  1.0000
  C   C291      1.0  0.56538  0.39046  0.52308  1.0000
  S   S98       1.0  0.62774  0.43527  0.40154  1.0000
  Fe  Fe48      1.0  0.62321  0.32883  0.63811  1.0000
  S   S99       1.0  0.58041  0.38374  0.63419  1.0000
  H   H277      1.0  0.83539  0.38209  0.58157  1.0000
  Fe  Fe49      1.0  0.71727  0.36236  0.65027  1.0000
  S   S100      1.0  0.68021  0.41858  0.64683  1.0000
  N   N24       1.0  0.56957  0.15136  0.58534  1.0000
  Fe  Fe50      1.0  0.65257  0.39564  0.60893  1.0000
  S   S101      1.0  0.66965  0.42360  0.56867  1.0000
  S   S102      1.0  0.69374  0.34008  0.61059  1.0000
  Fe  Fe51      1.0  0.61321  0.33693  0.37605  1.0000
  Fe  Fe52      1.0  0.68934  0.38987  0.38650  1.0000
  S   S103      1.0  0.77233  0.39674  0.38171  1.0000
  S   S104      1.0  0.65326  0.34899  0.41257  1.0000
  C   C292      1.0  0.86982  0.48056  0.60017  1.0000
  S   S105      1.0  0.96375  0.48881  0.40907  1.0000
  C   C293      1.0  0.63647  0.41342  0.54082  1.0000
  C   C294      1.0  0.65383  0.42316  0.51369  1.0000
  C   C295      1.0  0.62731  0.41626  0.49125  1.0000
  C   C296      1.0  0.58264  0.40032  0.49599  1.0000
  C   C297      1.0  0.52325  0.13831  0.57839  1.0000
  C   C298      1.0  0.59253  0.39661  0.54539  1.0000
  H   H278      1.0  0.68763  0.43632  0.51012  1.0000
  H   H279      1.0  0.64049  0.42417  0.47046  1.0000
  C   C299      1.0  0.57044  0.24408  0.64435  1.0000
  S   S106      1.0  0.54684  0.37969  0.38873  1.0000
  S   S107      1.0  0.79930  0.35737  0.65716  1.0000
  Fe  Fe53      1.0  0.61328  0.40032  0.67251  1.0000
  H   H280      1.0  0.58080  0.20597  0.37305  1.0000
  C   C300      1.0  0.82182  0.39937  0.66221  1.0000
  C   C301      1.0  0.85806  0.46677  0.66850  1.0000
  C   C302      1.0  0.77991  0.49999  0.61009  1.0000
  C   C303      1.0  0.89145  0.43592  0.65769  1.0000
  C   C304      1.0  0.87333  0.40234  0.65446  1.0000
  C   C305      1.0  0.78565  0.46553  0.46285  1.0000
  H   H281      1.0  0.58869  0.10595  0.60900  1.0000
  C   C306      1.0  0.52581  0.19116  0.65042  1.0000
  C   C307      1.0  0.60057  0.19580  0.67235  1.0000
  H   H282      1.0  0.95587  0.47534  0.54509  1.0000
  N   N25       1.0  0.83503  0.47178  0.46140  1.0000
  H   H283      1.0  0.89914  0.37874  0.64560  1.0000
  N   N26       1.0  0.51268  0.28745  0.45572  1.0000
  C   C308      1.0  0.80031  0.40165  0.58670  1.0000
  H   H284      1.0  0.66427  0.12870  0.62316  1.0000
  H   H285      1.0  0.68679  0.18844  0.60814  1.0000
  H   H286      1.0  0.55734  0.32272  0.43349  1.0000
  C   C309      1.0  0.77388  0.43101  0.45585  1.0000
  Fe  Fe54      1.0  0.58840  0.39311  0.42447  1.0000
  H   H287      1.0  0.52923  0.10849  0.57373  1.0000
  S   S108      1.0  0.54709  0.39324  0.46859  1.0000
  H   H288      1.0  0.77689  0.39163  0.60485  1.0000
  C   C310      1.0  0.87356  0.44399  0.45417  1.0000
  H   H289      1.0  0.91268  0.44862  0.45387  1.0000
  C   C311      1.0  0.81298  0.40285  0.44740  1.0000
  H   H290      1.0  0.93090  0.43798  0.65114  1.0000
  C   C312      1.0  0.85977  0.44575  0.59263  1.0000
  H   H291      1.0  0.63600  0.24444  0.66533  1.0000
  C   C313      1.0  0.64213  0.14410  0.60951  1.0000
  C   C314      1.0  0.86318  0.40925  0.44670  1.0000
  H   H292      1.0  0.57631  0.31050  0.46654  1.0000
  H   H293      1.0  0.89806  0.48083  0.37224  1.0000
  H   H294      1.0  0.63206  0.22489  0.57956  1.0000
  H   H295      1.0  0.57880  0.38914  0.56625  1.0000
  Fe  Fe55      1.0  0.59402  0.41657  0.36402  1.0000
  C   C315      1.0  0.56145  0.17611  0.66649  1.0000
  H   H296      1.0  0.80429  0.37632  0.44089  1.0000
  H   H297      1.0  0.89134  0.42461  0.58642  1.0000
  C   C316      1.0  0.77123  0.46501  0.60208  1.0000
  C   C317      1.0  0.54603  0.22410  0.37947  1.0000
  C   C318      1.0  0.85941  0.47792  0.38038  1.0000
  C   C319      1.0  0.54655  0.26165  0.37886  1.0000
  H   H298      1.0  0.73479  0.42631  0.45610  1.0000
  C   C320      1.0  0.84243  0.44401  0.37757  1.0000
  H   H299      1.0  0.71809  0.46788  0.40344  1.0000
  C   C321      1.0  0.75745  0.47050  0.39691  1.0000
  S   S109      1.0  0.57666  0.28456  0.62754  1.0000
  H   H300      1.0  0.73252  0.45920  0.60274  1.0000
  C   C322      1.0  0.99210  0.48541  0.54125  1.0000
  N   N27       1.0  0.81089  0.43832  0.59388  1.0000
  S   S110      1.0  0.97631  0.48596  0.48630  1.0000
  H   H301      1.0  0.54171  0.23151  0.44735  1.0000
  H   H302      1.0  0.77911  0.40175  0.56848  1.0000
  C   C323      1.0  0.58120  0.18447  0.57734  1.0000
  H   H303      1.0  0.89391  0.38759  0.44011  1.0000
  H   H304      1.0  0.86887  0.42083  0.36849  1.0000
  C   C324      1.0  0.56172  0.30022  0.44762  1.0000
  H   H305      1.0  0.68637  0.50185  0.35573  1.0000
  H   H306      1.0  0.55662  0.20110  0.56567  1.0000
  H   H307      1.0  0.59023  0.27874  0.43586  1.0000
  H   H308      1.0  0.53078  0.37825  0.52690  1.0000
  C   C325      1.0  0.53045  0.22492  0.63931  1.0000
  C   C326      1.0  0.59910  0.13138  0.60147  1.0000
  H   H309      1.0  0.75506  0.48747  0.46883  1.0000
  C   C327      1.0  0.78895  0.42995  0.67393  1.0000
  C   C328      1.0  0.80678  0.46359  0.67659  1.0000
  C   C329      1.0  0.50874  0.25116  0.45461  1.0000
  H   H310      1.0  0.68023  0.45596  0.34646  1.0000
  H   H311      1.0  0.50077  0.18077  0.38800  1.0000
  H   H312      1.0  0.50108  0.31373  0.38671  1.0000
  H   H313      1.0  0.50349  0.23589  0.62622  1.0000
  H   H314      1.0  0.51082  0.15059  0.55952  1.0000
  C   C330      1.0  0.50064  0.20973  0.38785  1.0000
  S   S111      1.0  0.49752  0.06949  0.62741  1.0000
  C   C331      1.0  0.50139  0.28479  0.38720  1.0000
  C   C332      1.0  0.77479  0.50438  0.40036  1.0000
  H   H315      1.0  0.88815  0.38719  0.00310  1.0000
  S   S112      1.0  0.89057  0.39794  0.94165  1.0000
  Fe  Fe56      1.0  0.60610  0.45789  0.92141  1.0000
  C   C333      1.0  0.50753  0.29002  0.70005  1.0000
  S   S113      1.0  0.58541  0.41809  0.95361  1.0000
  Fe  Fe57      1.0  0.64223  0.46689  0.85851  1.0000
  H   H316      1.0  0.72605  0.46941  0.94177  1.0000
  S   S114      1.0  0.68100  0.43818  0.81740  1.0000
  C   C334      1.0  0.98216  0.38695  0.70865  1.0000
  Fe  Fe58      1.0  0.97117  0.39749  0.92141  1.0000
  H   H317      1.0  0.89046  0.36394  0.71531  1.0000
  S   S115      1.0  0.68223  0.45294  0.89504  1.0000
  H   H318      1.0  0.74996  0.42762  0.68174  1.0000
  S   S116      1.0  0.56878  0.43419  0.70999  1.0000
  C   C335      1.0  0.81698  0.43742  0.85321  1.0000
  C   C336      1.0  0.64900  0.43780  0.78785  1.0000
  C   C337      1.0  0.59922  0.45462  0.78909  1.0000
  C   C338      1.0  0.57491  0.45362  0.76506  1.0000
  C   C339      1.0  0.60022  0.43584  0.73974  1.0000
  C   C340      1.0  0.65003  0.41916  0.73852  1.0000
  C   C341      1.0  0.67428  0.42014  0.76250  1.0000
  C   C342      1.0  0.86822  0.42828  0.85521  1.0000
  H   H319      1.0  0.70550  0.34269  0.99378  1.0000
  H   H320      1.0  0.67004  0.40564  0.71909  1.0000
  H   H321      1.0  0.71272  0.40707  0.76143  1.0000
  C   C343      1.0  0.84275  0.41263  0.73198  1.0000
  C   C344      1.0  0.83009  0.50027  0.85217  1.0000
  H   H322      1.0  0.80443  0.46568  0.74659  1.0000
  C   C345      1.0  0.85131  0.43753  0.93644  1.0000
  C   C346      1.0  0.79880  0.43832  0.94244  1.0000
  H   H323      1.0  0.54218  0.38148  0.99936  1.0000
  C   C347      1.0  0.57182  0.43130  0.98975  1.0000
  H   H324      1.0  0.54749  0.29030  0.75379  1.0000
  H   H325      1.0  0.78322  0.41483  0.95047  1.0000
  N   N28       1.0  0.88025  0.49106  0.85424  1.0000
  S   S117      1.0  0.56594  0.46496  0.88379  1.0000
  H   H326      1.0  0.79193  0.41665  0.85323  1.0000
  C   C348      1.0  0.76655  0.46888  0.93709  1.0000
  H   H327      1.0  0.50549  0.47482  0.94146  1.0000
  H   H328      1.0  0.97801  0.35959  0.69984  1.0000
  H   H329      1.0  0.91195  0.46787  0.92171  1.0000
  S   S118      1.0  0.56023  0.13172  0.67747  1.0000
  C   C349      1.0  0.58220  0.46454  0.00092  1.0000
  C   C350      1.0  0.69625  0.42518  0.99582  1.0000
  H   H330      1.0  0.80811  0.40016  0.73320  1.0000
  C   C351      1.0  0.52742  0.34791  0.71390  1.0000
  H   H331      1.0  0.58768  0.26723  0.72321  1.0000
  C   C352      1.0  0.89962  0.45560  0.85531  1.0000
  H   H332      1.0  0.88345  0.40030  0.85704  1.0000
  H   H333      1.0  0.65986  0.36921  0.97646  1.0000
  H   H334      1.0  0.57945  0.46822  0.80856  1.0000
  S   S119      1.0  0.65132  0.34474  0.67826  1.0000
  N   N29       1.0  0.93311  0.40825  0.71923  1.0000
  C   C353      1.0  0.87151  0.46802  0.92611  1.0000
  C   C354      1.0  0.79785  0.47359  0.85142  1.0000
  C   C355      1.0  0.93154  0.44420  0.72690  1.0000
  H   H335      1.0  0.59940  0.31086  0.73571  1.0000
  C   C356      1.0  0.84071  0.44944  0.73948  1.0000
  H   H336      1.0  0.54760  0.36473  0.72622  1.0000
  C   C357      1.0  0.83915  0.49876  0.92106  1.0000
  C   C358      1.0  0.88954  0.39231  0.72177  1.0000
  H   H337      1.0  0.96615  0.45671  0.72493  1.0000
  C   C359      1.0  0.56879  0.29402  0.73287  1.0000
  H   H338      1.0  0.75799  0.48098  0.85006  1.0000
  C   C360      1.0  0.88534  0.46541  0.73688  1.0000
  C   C361      1.0  0.71019  0.45608  0.00879  1.0000
  H   H339      1.0  0.93945  0.44850  0.85680  1.0000
  C   C362      1.0  0.78663  0.49864  0.92551  1.0000
  H   H340      1.0  0.62830  0.18420  0.68475  1.0000
  N   N30       1.0  0.53423  0.31105  0.71491  1.0000
  H   H341      1.0  0.53637  0.46653  0.76611  1.0000
  H   H342      1.0  0.69386  0.42448  0.97351  1.0000
  H   H343      1.0  0.59925  0.48322  0.98721  1.0000
  C   C363      1.0  0.67194  0.36376  0.99720  1.0000
  H   H344      1.0  0.88410  0.49423  0.74182  1.0000
  H   H345      1.0  0.51218  0.26082  0.70120  1.0000
  H   H346      1.0  0.78079  0.48715  0.68536  1.0000
  C   C364      1.0  0.96063  0.35405  0.99957  1.0000
  H   H347      1.0  0.95807  0.34347  0.97855  1.0000
  H   H348      1.0  0.71906  0.47885  0.99661  1.0000
  C   C365      1.0  0.55037  0.40718  0.00781  1.0000
  H   H349      1.0  0.63988  0.35324  0.01005  1.0000
  Fe  Fe59      1.0  0.58916  0.53512  0.15575  1.0000
  C   C366      1.0  0.52391  0.60817  0.12632  1.0000
  H   H350      1.0  0.76136  0.52847  0.33564  1.0000
  S   S120      1.0  0.61872  0.52106  0.11014  1.0000
  H   H351      1.0  0.94152  0.51691  0.28675  1.0000
  S   S121      1.0  0.56566  0.59237  0.17403  1.0000
  H   H352      1.0  0.85332  0.51717  0.31842  1.0000
  H   H353      1.0  0.87886  0.55705  0.08548  1.0000
  C   C367      1.0  0.89753  0.53232  0.17930  1.0000
  C   C368      1.0  0.84993  0.53024  0.17135  1.0000
  H   H354      1.0  0.53520  0.58006  0.11929  1.0000
  C   C369      1.0  0.84485  0.52892  0.14280  1.0000
  C   C370      1.0  0.53508  0.62134  0.15209  1.0000
  C   C371      1.0  0.51936  0.65773  0.16121  1.0000
  C   C372      1.0  0.49731  0.63132  0.10971  1.0000
  N   N31       1.0  0.88602  0.53006  0.12277  1.0000
  C   C373      1.0  0.93239  0.53353  0.13045  1.0000
  H   H355      1.0  0.52799  0.66806  0.18110  1.0000
  C   C374      1.0  0.88024  0.52926  0.09294  1.0000
  H   H356      1.0  0.80782  0.52693  0.13675  1.0000
  H   H357      1.0  0.90250  0.53239  0.20130  1.0000
  H   H358      1.0  0.81717  0.52964  0.18715  1.0000
  H   H359      1.0  0.84514  0.51802  0.08911  1.0000
  H   H360      1.0  0.97843  0.51027  0.33080  1.0000
  C   C375      1.0  0.93905  0.53407  0.15874  1.0000
  H   H361      1.0  0.96486  0.53512  0.11459  1.0000
  H   H362      1.0  0.97635  0.53533  0.16464  1.0000
  H   H363      1.0  0.91260  0.51164  0.08020  1.0000
  Fe  Fe60      1.0  0.93057  0.54556  0.40431  1.0000
  S   S122      1.0  0.84807  0.55022  0.39820  1.0000
  C   C376      1.0  0.49938  0.89514  0.64096  1.0000
  H   H364      1.0  0.83699  0.53437  0.61624  1.0000
  S   S123      1.0  0.95894  0.56855  0.44238  1.0000
  S   S124      1.0  0.87841  0.50981  0.67174  1.0000
  H   H365      1.0  0.50594  0.83712  0.63659  1.0000
  C   C377      1.0  0.82613  0.50804  0.39258  1.0000
  H   H366      1.0  0.74856  0.52765  0.40947  1.0000
  H   H367      1.0  0.54000  0.89538  0.63745  1.0000
  H   H368      1.0  0.98514  0.70519  0.45910  1.0000
  H   H369      1.0  0.74830  0.52077  0.61735  1.0000
  C   C378      1.0  0.84638  0.50821  0.46874  1.0000
  H   H370      1.0  0.88544  0.51202  0.45946  1.0000
  H   H371      1.0  0.82054  0.52917  0.46027  1.0000
  H   H372      1.0  0.84313  0.51274  0.49189  1.0000
  Fe  Fe61      1.0  0.96204  0.51414  0.66760  1.0000
  Fe  Fe62      1.0  0.99575  0.51192  0.44531  1.0000
  C   C379      1.0  0.82957  0.50770  0.60921  1.0000
  H   H373      1.0  0.56579  0.58995  0.84586  1.0000
  Fe  Fe63      1.0  0.56695  0.52429  0.89404  1.0000
  H   H374      1.0  0.56348  0.60650  0.90544  1.0000
  H   H375      1.0  0.55319  0.67369  0.91239  1.0000
  H   H376      1.0  0.85481  0.52215  0.91284  1.0000
  S   S125      1.0  0.64049  0.52693  0.86590  1.0000
  S   S126      1.0  0.74648  0.53411  0.91430  1.0000
  C   C380      1.0  0.52663  0.62201  0.90578  1.0000
  S   S127      1.0  0.60239  0.51694  0.93321  1.0000
  Fe  Fe64      1.0  0.67608  0.51280  0.90415  1.0000
  C   C381      1.0  0.52075  0.65999  0.90970  1.0000
  H   H377      1.0  0.54655  0.65619  0.84019  1.0000
  H   H378      1.0  0.52618  0.55972  0.83350  1.0000
  H   H379      1.0  0.81429  0.52842  0.85190  1.0000
  C   C382      1.0  0.54035  0.58622  0.82994  1.0000
  H   H380      1.0  0.56245  0.58479  0.80855  1.0000
  H   H381      1.0  0.89285  0.54668  0.85860  1.0000
  C   C383      1.0  0.50863  0.65083  0.83765  1.0000
  N   N32       1.0  0.49869  0.61608  0.83304  1.0000
  C   C384      1.0  0.91408  0.51900  0.85505  1.0000
  H   H382      1.0  0.94078  0.51719  0.83506  1.0000
  H   H383      1.0  0.93684  0.51491  0.87252  1.0000
  H   H384      1.0  0.50211  0.71451  0.99997  1.0000
  S   S128      1.0  0.99448  0.52916  0.70630  1.0000
