data_image0
_chemical_formula_structural       HC2SHFeSFeSHC2H2C2HFeSHCHS2CSC4HCSCSH2FeC2H3CHFeC3H3CNFeC2FeHSC2FeH2S2FeCHC2HCH2C3HCHCHCSHC4FeHCS2CHC6HSH5NHFeCHC3HCSHC3H3FeCNFeHSHC2SFeHSFe2SFeCHS2CHNCHSCH2C2NH4CSC5SH2C2HCHCHSC2SH2CHCSCHSCH2CSC2HCHFeHFeS2FeS2FeSFeS3FeS2FeSFeSHSCHCHCHCH2C6H4CHC3H2CH2C3H2SHSHSFeSHFeSFeSCH2CH2SC3H3CHCSHNH3C2H3CH2C4HC2HCH4CHNFeC2HCH2C2NC2HSH2CHS2C3H2FeH3C2H2C3FeHCH3CSC2H2C2NHCNC2H2NHCNC2HSH4CH2C4NCH3C3Fe2C3HS2FeSCFeS2FeS2FeCFeS3C2HC3HC3H5C3H2CH2C2H2NC3HC4H3CHC2SCFeHC6H3FeS2FeSFeS2FeCSFeNHCHCS2HCH2CHSH2C6H2CH2CNSCHCHCHCH8SC4HC2H2NH2NHNCH5CHFeCH3CH3CHCSHC2HC3H2C3SH2C2H2NH2C4HCH2CHCHCNH3C4H2NCH2C2HCFeHCS2FeSHFeSFeSCSFeSFeS2FeSFeS3CSCHS2FeSFeSFeC7H4C4FeH2CHC7HCH4C3H6CHNCNCSC2HCH4C2HCHCFeC3H3CH3C2HC2HC4H4S2HC2H5C2FeNCH2CH3CHCH2CH2SHC6H4CHCHSHCHCH2CH3C2HC3H2CHCNCHC2H2NH3CN2C6HS2FeSHFeS2FeS2FeSFeS3HSC2SCFeSFeSCSH2C2HC2H2C6H4NCSH5C3HSCHC5HC3H4C3HC2HC6H3SH2CHCHC3HCHNCHSH7CNHCHC2HCH2NHC2H2CHSCHC3HCN2Fe2CH2CH3C2SC3H4SFeC3HSHCH2CHCHSCH2CHCNCH4CFeC2H2FeC2HCHCHCHSHS2C2FeSNC6SHSFe2HFeHCHNHC2HCH2CHS2C2HSH4C3H3SCH2CH2C3HCH3SC4H2CS2H2S3C3FeCHCHFeH2CSHS2HFeCHSHS2CHSCFe2C2SCSH4CHFeC3HC2H3S3HCH3C2HNC3HCH2C4FeCFeH2C2FeS2FeS2FeSFeS3FeS2FeSFeSH4C3H3C7H5CSH2CSCHC4H3S2HSCSHC2FeSH2C2H2C4H2FeCH2CH2C2SCH8CNC2HNC2H3CNH3C2HCH2C4H2CHCN2CHC2H4FeCH2CSCH3CHCHSHCNC3H2C2H4SH2C4HCH4CHCSHC3SC3S2FeSCFeS2FeS2FeHFeS3CH2C3HC3HNCH2C2H2SC3H4C3H3C2NH3C5HCHC6H3FeS2FeSFeS2FeHSFeCH3CS2C2HCH5C6H2C2HNH2C4HC3H2CH4CHCHSCH3CH2C2HC2H2C2SCH3CH3FeHNCHCHSH2NCNC2HCHSCSHCH4CH3CHC2HC2HCSCFeS2FeSFeSHCFeSFeS2FeSFeS3HSHCSCFeSFeSCHC6H4C3H2CHNHC7H4SH2CH2CHSH2CH4CH6SCHSCHSH3SH3CHCH2CHCH2CH4C3NC2NCHCH2CHCHNC2HCSCFeHSH3NC3H2C2H2C2FeHCH2CHC2HNCSHS2FeSHFeS2FeS2FeSFeS3CS2HSHFeSFeHCHC3HSHCNHC6H4C2H2C2H3SHC4HC2HSNC3H4C3H2NHC7H2NC6H2NH2C2SHC3HCSH2C3FeCHFeSH2C2HCH8SC2H3NHCH2C2HC2HFeCHCFeNC3SC2H4SCHCHCH2C2HSH4FeH3CHCHFeH2C4HCH2
_chemical_formula_sum              "H768 C768 S256 Fe128 N64"
_cell_length_a       48.8285
_cell_length_b       48.8239
_cell_length_c       43.892
_cell_angle_alpha    85.2002
_cell_angle_beta     84.1193
_cell_angle_gamma    91.8791

_space_group_name_H-M_alt    "P 1"
_space_group_IT_number       1

loop_
  _space_group_symop_operation_xyz
  'x, y, z'

loop_
  _atom_site_type_symbol
  _atom_site_label
  _atom_site_symmetry_multiplicity
  _atom_site_fract_x
  _atom_site_fract_y
  _atom_site_fract_z
  _atom_site_occupancy
  H   H1        1.0  0.42238  0.29998  0.34531  1.0000
  C   C1        1.0  0.46417  0.30102  0.07341  1.0000
  C   C2        1.0  0.46868  0.19700  0.22333  1.0000
  S   S1        1.0  0.05510  0.07237  0.17395  1.0000
  H   H2        1.0  0.43078  0.20798  0.16351  1.0000
  Fe  Fe1       1.0  0.03719  0.04291  0.14369  1.0000
  S   S2        1.0  0.04849  0.04707  0.09234  1.0000
  Fe  Fe2       1.0  0.06083  0.03471  0.20540  1.0000
  S   S3        1.0  0.09859  0.02565  0.22933  1.0000
  H   H3        1.0  0.03931  0.13127  0.17811  1.0000
  C   C3        1.0  0.40692  0.30281  0.30091  1.0000
  C   C4        1.0  0.00063  0.01886  0.08298  1.0000
  H   H4        1.0  0.06423  0.10893  0.32189  1.0000
  H   H5        1.0  0.45583  0.21368  0.22972  1.0000
  C   C5        1.0  0.38593  0.31221  0.28384  1.0000
  C   C6        1.0  0.45210  0.17109  0.15364  1.0000
  H   H6        1.0  0.04988  0.12758  0.02513  1.0000
  Fe  Fe3       1.0  0.42673  0.30161  0.21688  1.0000
  S   S4        1.0  0.43606  0.27164  0.18112  1.0000
  H   H7        1.0  0.42326  0.29125  0.29032  1.0000
  C   C7        1.0  0.03324  0.03104  0.03823  1.0000
  H   H8        1.0  0.05737  0.17964  0.16790  1.0000
  S   S5        1.0  0.08567  0.01315  0.37482  1.0000
  S   S6        1.0  0.45916  0.06028  0.17563  1.0000
  C   C8        1.0  0.07195  0.10555  0.29851  1.0000
  S   S7        1.0  0.46414  0.11359  0.23525  1.0000
  C   C9        1.0  0.02862  0.12178  0.28058  1.0000
  C   C10       1.0  0.03274  0.24399  0.10518  1.0000
  C   C11       1.0  0.10802  0.08980  0.26318  1.0000
  C   C12       1.0  0.48530  0.28451  0.08245  1.0000
  H   H9        1.0  0.43987  0.16519  0.24545  1.0000
  C   C13       1.0  0.04881  0.10494  0.02413  1.0000
  S   S8        1.0  0.46812  0.29975  0.23505  1.0000
  C   C14       1.0  0.45983  0.30453  0.04226  1.0000
  S   S9        1.0  0.01937  0.03542  0.23201  1.0000
  H   H10       1.0  0.09894  0.09045  0.21617  1.0000
  H   H11       1.0  0.37008  0.02009  0.35871  1.0000
  Fe  Fe4       1.0  0.00482  0.32788  0.19487  1.0000
  C   C15       1.0  0.00510  0.23769  0.11590  1.0000
  C   C16       1.0  0.99787  0.31223  0.07762  1.0000
  H   H12       1.0  0.41842  0.99746  0.32481  1.0000
  H   H13       1.0  0.43634  0.15760  0.16697  1.0000
  H   H14       1.0  0.02449  0.12820  0.30424  1.0000
  C   C17       1.0  0.40629  0.30764  0.33208  1.0000
  H   H15       1.0  0.44325  0.00441  0.07077  1.0000
  Fe  Fe5       1.0  0.48249  0.07834  0.21119  1.0000
  C   C18       1.0  0.07002  0.03056  0.31875  1.0000
  C   C19       1.0  0.07224  0.03287  0.28650  1.0000
  C   C20       1.0  0.09427  0.02140  0.26978  1.0000
  H   H16       1.0  0.05321  0.03988  0.33158  1.0000
  H   H17       1.0  0.05747  0.04441  0.27467  1.0000
  H   H18       1.0  0.01274  0.10579  0.27712  1.0000
  C   C21       1.0  0.08932  0.01602  0.33446  1.0000
  N   N1        1.0  0.05622  0.11110  0.27481  1.0000
  Fe  Fe6       1.0  0.00729  0.26506  0.19323  1.0000
  C   C22       1.0  0.09173  0.09527  0.23925  1.0000
  C   C23       1.0  0.46936  0.21704  0.13547  1.0000
  Fe  Fe7       1.0  0.47860  0.27269  0.19659  1.0000
  H   H19       1.0  0.44324  0.31695  0.03529  1.0000
  S   S10       1.0  0.38598  0.30642  0.24476  1.0000
  C   C24       1.0  0.02103  0.24350  0.05318  1.0000
  C   C25       1.0  0.45867  0.02045  0.06248  1.0000
  Fe  Fe8       1.0  0.45180  0.30868  0.14975  1.0000
  H   H20       1.0  0.11026  0.08978  0.31195  1.0000
  H   H21       1.0  0.04783  0.24658  0.12136  1.0000
  S   S11       1.0  0.03649  0.23059  0.18646  1.0000
  S   S12       1.0  0.01284  0.30039  0.15688  1.0000
  Fe  Fe9       1.0  0.01229  0.07094  0.19820  1.0000
  C   C26       1.0  0.00274  0.14146  0.20592  1.0000
  H   H22       1.0  0.13083  0.99815  0.27272  1.0000
  C   C27       1.0  0.37114  0.99734  0.36065  1.0000
  C   C28       1.0  0.47619  0.14775  0.22398  1.0000
  H   H23       1.0  0.06191  0.25262  0.06492  1.0000
  C   C29       1.0  0.01593  0.31332  0.05053  1.0000
  H   H24       1.0  0.46743  0.23915  0.13448  1.0000
  H   H25       1.0  0.46947  0.12104  0.16466  1.0000
  C   C30       1.0  0.04066  0.24715  0.07359  1.0000
  C   C31       1.0  0.45970  0.16954  0.23221  1.0000
  C   C32       1.0  0.00171  0.08791  0.04270  1.0000
  H   H26       1.0  0.02625  0.14005  0.26427  1.0000
  C   C33       1.0  0.03782  0.17503  0.18165  1.0000
  H   H27       1.0  0.99912  0.23520  0.14049  1.0000
  C   C34       1.0  0.02768  0.14760  0.18753  1.0000
  H   H28       1.0  0.12779  0.08055  0.25871  1.0000
  C   C35       1.0  0.02617  0.03053  0.07003  1.0000
  S   S13       1.0  0.00460  0.29297  0.23135  1.0000
  H   H29       1.0  0.46653  0.03029  0.10800  1.0000
  C   C36       1.0  0.06567  0.10587  0.24555  1.0000
  C   C37       1.0  0.11367  0.00700  0.28553  1.0000
  C   C38       1.0  0.09812  0.09492  0.29304  1.0000
  C   C39       1.0  0.02282  0.19651  0.19349  1.0000
  Fe  Fe10      1.0  0.46954  0.01948  0.19796  1.0000
  H   H30       1.0  0.05283  0.10953  0.22702  1.0000
  C   C40       1.0  0.00262  0.32644  0.33964  1.0000
  S   S14       1.0  0.48872  0.03732  0.23648  1.0000
  S   S15       1.0  0.04764  0.00542  0.17245  1.0000
  C   C41       1.0  0.99754  0.19045  0.21113  1.0000
  H   H31       1.0  0.48894  0.28184  0.10634  1.0000
  C   C42       1.0  0.47184  0.03505  0.08356  1.0000
  C   C43       1.0  0.36454  0.32677  0.29799  1.0000
  C   C44       1.0  0.11098  0.00392  0.31783  1.0000
  C   C45       1.0  0.44879  0.19952  0.15173  1.0000
  C   C46       1.0  0.38529  0.32278  0.34603  1.0000
  C   C47       1.0  0.47811  0.13059  0.14167  1.0000
  H   H32       1.0  0.00703  0.08766  0.06615  1.0000
  S   S16       1.0  0.44321  0.31774  0.10052  1.0000
  H   H33       1.0  0.00015  0.31551  0.36237  1.0000
  H   H34       1.0  0.03716  0.32033  0.05075  1.0000
  H   H35       1.0  0.00517  0.31900  0.09813  1.0000
  H   H36       1.0  0.05454  0.09484  0.04616  1.0000
  H   H37       1.0  0.05304  0.03988  0.02811  1.0000
  N   N2        1.0  0.47530  0.16047  0.13977  1.0000
  H   H38       1.0  0.46718  0.12146  0.12370  1.0000
  Fe  Fe11      1.0  0.00567  0.00843  0.19724  1.0000
  C   C48       1.0  0.46520  0.02672  0.03071  1.0000
  H   H39       1.0  0.02689  0.24638  0.02853  1.0000
  C   C49       1.0  0.49285  0.20604  0.12124  1.0000
  C   C50       1.0  0.00693  0.30480  0.02340  1.0000
  C   C51       1.0  0.49146  0.05613  0.07291  1.0000
  H   H40       1.0  0.99500  0.01839  0.10747  1.0000
  C   C52       1.0  0.49447  0.20277  0.20665  1.0000
  S   S17       1.0  0.01929  0.09301  0.90133  1.0000
  H   H41       1.0  0.49051  0.05217  0.99568  1.0000
  C   C53       1.0  0.01444  0.02103  0.01928  1.0000
  C   C54       1.0  0.47669  0.29179  0.02017  1.0000
  C   C55       1.0  0.00181  0.24341  0.79199  1.0000
  H   H42       1.0  0.45050  0.14613  0.94713  1.0000
  H   H43       1.0  0.37144  0.00170  0.82238  1.0000
  H   H44       1.0  0.04319  0.14609  0.90795  1.0000
  Fe  Fe12      1.0  0.44383  0.02893  0.88917  1.0000
  C   C56       1.0  0.00415  0.12500  0.90527  1.0000
  N   N3        1.0  0.48431  0.14245  0.97425  1.0000
  Fe  Fe13      1.0  0.46151  0.02017  0.95439  1.0000
  H   H45       1.0  0.47319  0.29451  0.99620  1.0000
  S   S18       1.0  0.48027  0.21432  0.87446  1.0000
  H   H46       1.0  0.07883  0.20313  0.83494  1.0000
  C   C57       1.0  0.08925  0.30592  0.80700  1.0000
  C   C58       1.0  0.10151  0.31898  0.77863  1.0000
  S   S19       1.0  0.45040  0.05767  0.92574  1.0000
  Fe  Fe14      1.0  0.99838  0.30960  0.88666  1.0000
  H   H47       1.0  0.05128  0.17964  0.85181  1.0000
  S   S20       1.0  0.03527  0.25039  0.92749  1.0000
  Fe  Fe15      1.0  0.48910  0.30979  0.90601  1.0000
  Fe  Fe16      1.0  0.04934  0.27649  0.88364  1.0000
  S   S21       1.0  0.08949  0.26718  0.85753  1.0000
  Fe  Fe17      1.0  0.02117  0.28986  0.94572  1.0000
  C   C59       1.0  0.02999  0.25033  0.78712  1.0000
  H   H48       1.0  0.48356  0.22150  0.97486  1.0000
  S   S22       1.0  0.03961  0.31608  0.90366  1.0000
  S   S23       1.0  0.47502  0.26946  0.93206  1.0000
  C   C60       1.0  0.12576  0.27355  0.80655  1.0000
  H   H49       1.0  0.13548  0.25615  0.81723  1.0000
  N   N4        1.0  0.03837  0.21535  0.82659  1.0000
  C   C61       1.0  0.10181  0.28345  0.82118  1.0000
  H   H50       1.0  0.02931  0.10298  0.96953  1.0000
  S   S24       1.0  0.00949  0.27185  0.86333  1.0000
  C   C62       1.0  0.13764  0.28620  0.77838  1.0000
  H   H51       1.0  0.03779  0.26699  0.77020  1.0000
  H   H52       1.0  0.06440  0.09917  0.00575  1.0000
  C   C63       1.0  0.47560  0.15816  0.87906  1.0000
  C   C64       1.0  0.48416  0.11239  0.97489  1.0000
  N   N5        1.0  0.02101  0.09586  0.01843  1.0000
  H   H53       1.0  0.15634  0.27838  0.76749  1.0000
  H   H54       1.0  0.45683  0.16078  0.86816  1.0000
  H   H55       1.0  0.47320  0.11380  0.88010  1.0000
  H   H56       1.0  0.15121  0.30976  0.85085  1.0000
  C   C65       1.0  0.46518  0.15677  0.95944  1.0000
  S   S25       1.0  0.14356  0.32454  0.72997  1.0000
  C   C66       1.0  0.41714  0.01872  0.75911  1.0000
  C   C67       1.0  0.43785  0.03159  0.77347  1.0000
  C   C68       1.0  0.43499  0.03306  0.80549  1.0000
  C   C69       1.0  0.41100  0.02239  0.82322  1.0000
  C   C70       1.0  0.49085  0.18132  0.88579  1.0000
  S   S26       1.0  0.48749  0.03283  0.86702  1.0000
  H   H57       1.0  0.45622  0.04035  0.75977  1.0000
  H   H58       1.0  0.45101  0.04311  0.81628  1.0000
  C   C71       1.0  0.01079  0.20846  0.83152  1.0000
  C   C72       1.0  0.01427  0.09620  0.98890  1.0000
  H   H59       1.0  0.45015  0.19686  0.94662  1.0000
  C   C73       1.0  0.04806  0.23604  0.80480  1.0000
  H   H60       1.0  0.47253  0.10297  0.99651  1.0000
  C   C74       1.0  0.05733  0.20179  0.84626  1.0000
  H   H61       1.0  0.47458  0.10493  0.95506  1.0000
  S   S27       1.0  0.44803  0.00857  0.00467  1.0000
  C   C75       1.0  0.12591  0.30911  0.76445  1.0000
  C   C76       1.0  0.01001  0.17421  0.91024  1.0000
  S   S28       1.0  0.42172  0.01685  0.71899  1.0000
  H   H62       1.0  0.00297  0.19247  0.84918  1.0000
  H   H63       1.0  0.07061  0.31359  0.81818  1.0000
  C   C77       1.0  0.02120  0.14821  0.90788  1.0000
  H   H64       1.0  0.05719  0.21203  0.86796  1.0000
  C   C78       1.0  0.48513  0.04748  0.02011  1.0000
  S   S29       1.0  0.40644  0.02436  0.86337  1.0000
  C   C79       1.0  0.00062  0.01172  0.78458  1.0000
  H   H65       1.0  0.02330  0.19196  0.91218  1.0000
  S   S30       1.0  0.03137  0.30410  0.99104  1.0000
  C   C80       1.0  0.48371  0.19932  0.97470  1.0000
  H   H66       1.0  0.06985  0.24186  0.80128  1.0000
  H   H67       1.0  0.37722  0.99779  0.76596  1.0000
  C   C81       1.0  0.39337  0.00755  0.77690  1.0000
  S   S31       1.0  0.01426  0.01914  0.93265  1.0000
  C   C82       1.0  0.48478  0.13159  0.88587  1.0000
  C   C83       1.0  0.46475  0.18543  0.95921  1.0000
  H   H68       1.0  0.01992  0.02219  0.99481  1.0000
  C   C84       1.0  0.39014  0.00980  0.80881  1.0000
  H   H69       1.0  0.00983  0.03232  0.78392  1.0000
  Fe  Fe18      1.0  0.49422  0.99674  0.90014  1.0000
  H   H70       1.0  0.17142  0.40955  0.48732  1.0000
  Fe  Fe19      1.0  0.11232  0.47446  0.37199  1.0000
  S   S32       1.0  0.11150  0.43330  0.35296  1.0000
  S   S33       1.0  0.12858  0.51260  0.34238  1.0000
  Fe  Fe20      1.0  0.09317  0.45026  0.43755  1.0000
  S   S34       1.0  0.09006  0.40744  0.42316  1.0000
  S   S35       1.0  0.08204  0.45961  0.48673  1.0000
  Fe  Fe21      1.0  0.13069  0.41853  0.39538  1.0000
  S   S36       1.0  0.16429  0.38790  0.39543  1.0000
  Fe  Fe22      1.0  0.07115  0.42665  0.38254  1.0000
  S   S37       1.0  0.03516  0.40472  0.36529  1.0000
  S   S38       1.0  0.13500  0.46027  0.41228  1.0000
  S   S39       1.0  0.07078  0.46893  0.39911  1.0000
  Fe  Fe23      1.0  0.33971  0.39042  0.46067  1.0000
  S   S40       1.0  0.33897  0.43261  0.43668  1.0000
  S   S41       1.0  0.36405  0.40634  0.37359  1.0000
  Fe  Fe24      1.0  0.38054  0.42395  0.41378  1.0000
  S   S42       1.0  0.41611  0.45501  0.40677  1.0000
  Fe  Fe25      1.0  0.32225  0.41095  0.39905  1.0000
  S   S43       1.0  0.28788  0.43274  0.37775  1.0000
  H   H71       1.0  0.43886  0.37856  0.10875  1.0000
  S   S44       1.0  0.00538  0.55463  0.21893  1.0000
  C   C85       1.0  0.19123  0.40392  0.49465  1.0000
  H   H72       1.0  0.16960  0.41750  0.32480  1.0000
  C   C86       1.0  0.44812  0.44064  0.39821  1.0000
  H   H73       1.0  0.46456  0.39231  0.46101  1.0000
  C   C87       1.0  0.01320  0.43527  0.45487  1.0000
  H   H74       1.0  0.02246  0.46156  0.37387  1.0000
  C   C88       1.0  0.24210  0.38926  0.51231  1.0000
  H   H75       1.0  0.43190  0.39890  0.40099  1.0000
  H   H76       1.0  0.44364  0.46027  0.29687  1.0000
  C   C89       1.0  0.19841  0.40068  0.39516  1.0000
  C   C90       1.0  0.20482  0.42894  0.39110  1.0000
  C   C91       1.0  0.23244  0.43861  0.38719  1.0000
  C   C92       1.0  0.25377  0.42010  0.38760  1.0000
  C   C93       1.0  0.24739  0.39189  0.39321  1.0000
  C   C94       1.0  0.21972  0.38221  0.39687  1.0000
  H   H77       1.0  0.18861  0.44333  0.38969  1.0000
  H   H78       1.0  0.23731  0.46047  0.38289  1.0000
  H   H79       1.0  0.26375  0.37747  0.39329  1.0000
  H   H80       1.0  0.21485  0.36029  0.40000  1.0000
  C   C95       1.0  0.01390  0.39726  0.20394  1.0000
  H   H81       1.0  0.27141  0.39674  0.45011  1.0000
  C   C96       1.0  0.46419  0.64726  0.14104  1.0000
  C   C97       1.0  0.00885  0.46095  0.13116  1.0000
  C   C98       1.0  0.02985  0.42090  0.20743  1.0000
  H   H82       1.0  0.45470  0.35893  0.24877  1.0000
  H   H83       1.0  0.07277  0.61031  0.25381  1.0000
  C   C99       1.0  0.42279  0.37516  0.31581  1.0000
  H   H84       1.0  0.05208  0.42013  0.20591  1.0000
  H   H85       1.0  0.02968  0.46352  0.21637  1.0000
  C   C100      1.0  0.11495  0.52566  0.30854  1.0000
  C   C101      1.0  0.11884  0.56061  0.26534  1.0000
  C   C102      1.0  0.12825  0.54910  0.29241  1.0000
  H   H86       1.0  0.12956  0.57866  0.25314  1.0000
  H   H87       1.0  0.14606  0.55845  0.30088  1.0000
  S   S45       1.0  0.46899  0.61929  0.22077  1.0000
  H   H88       1.0  0.10714  0.40661  0.48487  1.0000
  S   S46       1.0  0.38291  0.38363  0.44130  1.0000
  H   H89       1.0  0.43521  0.42931  0.10712  1.0000
  S   S47       1.0  0.04203  0.51115  0.17795  1.0000
  Fe  Fe26      1.0  0.47992  0.33523  0.19963  1.0000
  S   S48       1.0  0.04130  0.57575  0.15264  1.0000
  H   H90       1.0  0.17545  0.47579  0.34370  1.0000
  Fe  Fe27      1.0  0.02979  0.53523  0.13601  1.0000
  S   S49       1.0  0.04440  0.52465  0.08793  1.0000
  Fe  Fe28      1.0  0.04865  0.55174  0.19688  1.0000
  S   S50       1.0  0.08557  0.56517  0.21961  1.0000
  C   C103      1.0  0.26608  0.41320  0.46536  1.0000
  H   H91       1.0  0.25355  0.39356  0.31629  1.0000
  H   H92       1.0  0.45224  0.47220  0.12586  1.0000
  C   C104      1.0  0.01994  0.51667  0.06280  1.0000
  H   H93       1.0  0.01369  0.48268  0.13192  1.0000
  H   H94       1.0  0.43756  0.36727  0.36021  1.0000
  S   S51       1.0  0.44976  0.48820  0.19224  1.0000
  C   C105      1.0  0.09185  0.51370  0.29729  1.0000
  C   C106      1.0  0.08225  0.52542  0.26990  1.0000
  C   C107      1.0  0.09590  0.54895  0.25387  1.0000
  H   H95       1.0  0.08141  0.49559  0.30966  1.0000
  H   H96       1.0  0.06448  0.51629  0.26119  1.0000
  H   H97       1.0  0.07837  0.62244  0.18940  1.0000
  C   C108      1.0  0.46620  0.52402  0.05577  1.0000
  H   H98       1.0  0.47941  0.47485  0.09414  1.0000
  C   C109      1.0  0.17997  0.47177  0.31917  1.0000
  S   S52       1.0  0.32031  0.36883  0.42438  1.0000
  H   H99       1.0  0.44989  0.50946  0.06574  1.0000
  N   N6        1.0  0.20016  0.45031  0.31636  1.0000
  H   H100      1.0  0.05920  0.37869  0.26931  1.0000
  H   H101      1.0  0.48170  0.35742  0.12286  1.0000
  H   H102      1.0  0.99676  0.47416  0.46465  1.0000
  C   C110      1.0  0.05068  0.37962  0.29371  1.0000
  C   C111      1.0  0.24732  0.43713  0.31185  1.0000
  H   H103      1.0  0.26195  0.38305  0.51909  1.0000
  H   H104      1.0  0.01199  0.36545  0.25909  1.0000
  H   H105      1.0  0.49023  0.34491  0.28225  1.0000
  C   C112      1.0  0.46094  0.40663  0.20254  1.0000
  H   H106      1.0  0.02381  0.39481  0.44279  1.0000
  H   H107      1.0  0.00465  0.36292  0.13882  1.0000
  C   C113      1.0  0.47754  0.40926  0.46659  1.0000
  C   C114      1.0  0.02877  0.51427  0.03173  1.0000
  C   C115      1.0  0.10626  0.41255  0.50808  1.0000
  C   C116      1.0  0.48138  0.47687  0.27124  1.0000
  H   H108      1.0  0.16031  0.46567  0.31036  1.0000
  C   C117      1.0  0.45590  0.39151  0.11421  1.0000
  C   C118      1.0  0.45023  0.41222  0.39723  1.0000
  H   H109      1.0  0.34814  0.33389  0.28490  1.0000
  C   C119      1.0  0.21041  0.40240  0.31949  1.0000
  H   H110      1.0  0.20334  0.38098  0.32372  1.0000
  H   H111      1.0  0.23473  0.47886  0.31088  1.0000
  H   H112      1.0  0.18755  0.49139  0.30584  1.0000
  H   H113      1.0  0.46749  0.42700  0.33004  1.0000
  C   C120      1.0  0.00419  0.42209  0.36734  1.0000
  H   H114      1.0  0.36404  0.42862  0.49836  1.0000
  N   N7        1.0  0.02801  0.35909  0.30230  1.0000
  Fe  Fe29      1.0  0.48916  0.58482  0.19692  1.0000
  C   C121      1.0  0.43605  0.43460  0.48001  1.0000
  C   C122      1.0  0.46527  0.45650  0.19770  1.0000
  H   H115      1.0  0.48576  0.61501  0.11950  1.0000
  C   C123      1.0  0.48071  0.53954  0.07491  1.0000
  H   H116      1.0  0.42985  0.45578  0.47321  1.0000
  H   H117      1.0  0.48720  0.47596  0.13334  1.0000
  C   C124      1.0  0.47926  0.44047  0.31216  1.0000
  C   C125      1.0  0.07108  0.64694  0.27771  1.0000
  N   N8        1.0  0.42727  0.37210  0.28503  1.0000
  C   C126      1.0  0.47350  0.46625  0.11824  1.0000
  C   C127      1.0  0.40676  0.38086  0.26446  1.0000
  H   H118      1.0  0.47109  0.49133  0.25655  1.0000
  S   S53       1.0  0.43815  0.33844  0.18359  1.0000
  H   H119      1.0  0.40473  0.36583  0.24699  1.0000
  H   H120      1.0  0.38599  0.38176  0.27722  1.0000
  C   C128      1.0  0.21568  0.41197  0.47606  1.0000
  H   H121      1.0  0.26386  0.43260  0.45079  1.0000
  S   S54       1.0  0.32424  0.38275  0.51104  1.0000
  S   S55       1.0  0.46813  0.56527  0.16059  1.0000
  C   C129      1.0  0.01721  0.44566  0.21279  1.0000
  C   C130      1.0  0.47137  0.35346  0.29204  1.0000
  C   C131      1.0  0.09524  0.43760  0.51517  1.0000
  H   H122      1.0  0.44908  0.63333  0.15484  1.0000
  H   H123      1.0  0.42721  0.43328  0.19668  1.0000
  Fe  Fe30      1.0  0.36382  0.36611  0.40229  1.0000
  H   H124      1.0  0.47036  0.47984  0.39319  1.0000
  H   H125      1.0  0.04720  0.63957  0.18128  1.0000
  H   H126      1.0  0.21451  0.42379  0.45423  1.0000
  C   C132      1.0  0.45124  0.36158  0.27306  1.0000
  C   C133      1.0  0.48248  0.45414  0.48296  1.0000
  H   H127      1.0  0.47568  0.53677  0.09957  1.0000
  H   H128      1.0  0.41295  0.40143  0.25260  1.0000
  C   C134      1.0  0.19138  0.42321  0.32009  1.0000
  C   C135      1.0  0.06865  0.63208  0.25215  1.0000
  C   C136      1.0  0.44216  0.36662  0.33559  1.0000
  Fe  Fe31      1.0  0.47900  0.52514  0.18416  1.0000
  H   H129      1.0  0.40358  0.38296  0.32553  1.0000
  C   C137      1.0  0.02338  0.41449  0.12764  1.0000
  H   H130      1.0  0.28358  0.41673  0.47912  1.0000
  H   H131      1.0  0.03404  0.58054  0.04356  1.0000
  H   H132      1.0  0.99883  0.66189  0.25030  1.0000
  C   C138      1.0  0.23854  0.40946  0.31541  1.0000
  S   S56       1.0  0.38648  0.33019  0.38445  1.0000
  C   C139      1.0  0.00945  0.35464  0.28177  1.0000
  C   C140      1.0  0.48496  0.63694  0.12152  1.0000
  H   H133      1.0  0.03989  0.40015  0.12616  1.0000
  H   H134      1.0  0.26916  0.44277  0.31012  1.0000
  C   C141      1.0  0.22772  0.45742  0.31251  1.0000
  C   C142      1.0  0.44904  0.43225  0.19890  1.0000
  N   N9        1.0  0.99647  0.40520  0.12922  1.0000
  H   H135      1.0  0.44813  0.38828  0.20330  1.0000
  C   C143      1.0  0.47194  0.45780  0.39293  1.0000
  N   N10       1.0  0.47544  0.43626  0.12059  1.0000
  C   C144      1.0  0.46591  0.45923  0.29368  1.0000
  C   C145      1.0  0.05782  0.62837  0.19948  1.0000
  H   H136      1.0  0.05127  0.44992  0.12755  1.0000
  H   H137      1.0  0.04314  0.40055  0.29683  1.0000
  N   N11       1.0  0.24069  0.40504  0.48528  1.0000
  H   H138      1.0  0.03907  0.34942  0.34765  1.0000
  C   C146      1.0  0.45398  0.42011  0.11343  1.0000
  N   N12       1.0  0.46609  0.43279  0.47589  1.0000
  C   C147      1.0  0.48244  0.65333  0.21277  1.0000
  C   C148      1.0  0.00733  0.40893  0.44659  1.0000
  H   H139      1.0  0.42586  0.42090  0.46520  1.0000
  S   S57       1.0  0.03065  0.36683  0.19626  1.0000
  H   H140      1.0  0.03416  0.44159  0.45809  1.0000
  H   H141      1.0  0.48171  0.34885  0.33877  1.0000
  H   H142      1.0  0.06782  0.37625  0.30826  1.0000
  H   H143      1.0  0.42815  0.42865  0.50437  1.0000
  C   C149      1.0  0.47619  0.40095  0.39185  1.0000
  H   H144      1.0  0.47782  0.37890  0.39182  1.0000
  H   H145      1.0  0.34815  0.34408  0.33951  1.0000
  C   C150      1.0  0.48912  0.40501  0.20536  1.0000
  C   C151      1.0  0.02469  0.34550  0.33109  1.0000
  C   C152      1.0  0.02997  0.44250  0.12857  1.0000
  C   C153      1.0  0.49351  0.45507  0.20039  1.0000
  N   N13       1.0  0.06083  0.64467  0.22557  1.0000
  C   C154      1.0  0.46667  0.35583  0.32358  1.0000
  H   H146      1.0  0.07703  0.63674  0.29882  1.0000
  H   H147      1.0  0.04517  0.60925  0.20730  1.0000
  H   H148      1.0  0.47338  0.47269  0.49060  1.0000
  C   C155      1.0  0.36449  0.33253  0.32886  1.0000
  C   C156      1.0  0.00358  0.44988  0.37279  1.0000
  C   C157      1.0  0.47245  0.52758  0.02377  1.0000
  Fe  Fe32      1.0  0.99746  0.57578  0.17331  1.0000
  Fe  Fe33      1.0  0.99808  0.51523  0.19710  1.0000
  C   C158      1.0  0.47998  0.37955  0.12222  1.0000
  C   C159      1.0  0.19251  0.38845  0.52264  1.0000
  C   C160      1.0  0.36218  0.42242  0.52274  1.0000
  H   H149      1.0  0.05051  0.51664  0.02373  1.0000
  S   S58       1.0  0.37558  0.39868  0.67421  1.0000
  S   S59       1.0  0.30507  0.39908  0.71999  1.0000
  Fe  Fe34      1.0  0.40714  0.41034  0.70502  1.0000
  S   S60       1.0  0.43881  0.38088  0.71925  1.0000
  C   C161      1.0  0.02336  0.58254  0.96803  1.0000
  Fe  Fe35      1.0  0.15838  0.42044  0.68271  1.0000
  S   S61       1.0  0.16369  0.37954  0.66406  1.0000
  S   S62       1.0  0.19468  0.45018  0.68290  1.0000
  Fe  Fe36      1.0  0.09617  0.41116  0.69470  1.0000
  S   S63       1.0  0.09660  0.36939  0.67676  1.0000
  S   S64       1.0  0.05768  0.43182  0.71190  1.0000
  Fe  Fe37      1.0  0.13288  0.36363  0.70373  1.0000
  C   C162      1.0  0.47718  0.42351  0.71997  1.0000
  Fe  Fe38      1.0  0.12700  0.38945  0.63890  1.0000
  S   S65       1.0  0.12693  0.37904  0.58969  1.0000
  S   S66       1.0  0.13047  0.40399  0.72451  1.0000
  S   S67       1.0  0.12381  0.43175  0.65465  1.0000
  C   C163      1.0  0.03412  0.40548  0.86587  1.0000
  C   C164      1.0  0.30244  0.43658  0.62453  1.0000
  H   H150      1.0  0.43350  0.40048  0.98723  1.0000
  C   C165      1.0  0.34417  0.40046  0.53498  1.0000
  C   C166      1.0  0.11485  0.40217  0.56150  1.0000
  C   C167      1.0  0.44427  0.43961  0.79561  1.0000
  H   H151      1.0  0.36980  0.48884  0.83420  1.0000
  C   C168      1.0  0.09428  0.44500  0.54548  1.0000
  C   C169      1.0  0.10437  0.42750  0.56853  1.0000
  C   C170      1.0  0.01797  0.42851  0.86846  1.0000
  H   H152      1.0  0.10412  0.43369  0.59160  1.0000
  H   H153      1.0  0.28238  0.36403  0.67280  1.0000
  H   H154      1.0  0.47416  0.48849  0.78953  1.0000
  H   H155      1.0  0.08602  0.46449  0.55101  1.0000
  H   H156      1.0  0.44777  0.35670  0.96614  1.0000
  C   C171      1.0  0.01703  0.43375  0.78878  1.0000
  C   C172      1.0  0.21806  0.38088  0.53148  1.0000
  C   C173      1.0  0.43702  0.41246  0.79086  1.0000
  H   H157      1.0  0.10139  0.37977  0.83734  1.0000
  H   H158      1.0  0.49087  0.35616  0.71480  1.0000
  C   C174      1.0  0.46125  0.40042  0.89040  1.0000
  H   H159      1.0  0.49210  0.36136  0.61751  1.0000
  H   H160      1.0  0.01659  0.50845  0.98682  1.0000
  C   C175      1.0  0.46907  0.65578  0.95865  1.0000
  C   C176      1.0  0.47705  0.37704  0.89179  1.0000
  H   H161      1.0  0.43898  0.39818  0.89300  1.0000
  H   H162      1.0  0.46177  0.44456  0.88390  1.0000
  N   N14       1.0  0.48878  0.64038  0.97104  1.0000
  C   C177      1.0  0.01160  0.39950  0.94404  1.0000
  C   C178      1.0  0.37522  0.42902  0.57383  1.0000
  C   C179      1.0  0.36131  0.56264  0.81651  1.0000
  H   H163      1.0  0.39147  0.57459  0.73152  1.0000
  C   C180      1.0  0.35869  0.55507  0.76323  1.0000
  C   C181      1.0  0.34184  0.39271  0.56669  1.0000
  C   C182      1.0  0.35764  0.40673  0.58600  1.0000
  C   C183      1.0  0.39516  0.58387  0.77834  1.0000
  H   H164      1.0  0.34936  0.54472  0.74565  1.0000
  H   H165      1.0  0.32820  0.37551  0.57618  1.0000
  H   H166      1.0  0.35652  0.40012  0.61019  1.0000
  C   C184      1.0  0.47233  0.39530  0.71820  1.0000
  H   H167      1.0  0.04839  0.35505  0.61670  1.0000
  C   C185      1.0  0.02537  0.38531  0.70779  1.0000
  C   C186      1.0  0.02633  0.41368  0.71017  1.0000
  S   S68       1.0  0.01092  0.59336  0.88201  1.0000
  C   C187      1.0  0.45421  0.40856  0.97935  1.0000
  Fe  Fe39      1.0  0.00247  0.49105  0.88859  1.0000
  H   H168      1.0  0.04395  0.37400  0.70788  1.0000
  C   C188      1.0  0.27413  0.41459  0.71258  1.0000
  C   C189      1.0  0.27376  0.44215  0.70114  1.0000
  C   C190      1.0  0.24899  0.45325  0.69322  1.0000
  C   C191      1.0  0.22468  0.43668  0.69610  1.0000
  C   C192      1.0  0.22498  0.40924  0.70794  1.0000
  C   C193      1.0  0.24956  0.39836  0.71664  1.0000
  H   H169      1.0  0.24880  0.47452  0.68409  1.0000
  H   H170      1.0  0.20638  0.39632  0.70984  1.0000
  H   H171      1.0  0.24978  0.37702  0.72552  1.0000
  Fe  Fe40      1.0  0.38782  0.46811  0.70821  1.0000
  S   S69       1.0  0.37714  0.42911  0.73843  1.0000
  S   S70       1.0  0.40244  0.50777  0.72517  1.0000
  Fe  Fe41      1.0  0.38575  0.44000  0.64890  1.0000
  S   S71       1.0  0.39491  0.44740  0.59739  1.0000
  Fe  Fe42      1.0  0.34623  0.42128  0.70504  1.0000
  S   S72       1.0  0.35425  0.46224  0.67741  1.0000
  S   S73       1.0  0.41999  0.44969  0.67702  1.0000
  Fe  Fe43      1.0  0.44275  0.52807  0.88716  1.0000
  C   C194      1.0  0.48645  0.44747  0.96806  1.0000
  S   S74       1.0  0.40335  0.52469  0.86501  1.0000
  Fe  Fe44      1.0  0.46481  0.51921  0.94952  1.0000
  N   N15       1.0  0.38461  0.57911  0.80850  1.0000
  H   H172      1.0  0.36941  0.48155  0.77892  1.0000
  C   C195      1.0  0.26909  0.36807  0.65388  1.0000
  H   H173      1.0  0.46888  0.35306  0.99787  1.0000
  C   C196      1.0  0.37743  0.43682  0.54219  1.0000
  S   S75       1.0  0.45123  0.55676  0.92303  1.0000
  S   S76       1.0  0.45193  0.49033  0.91619  1.0000
  H   H174      1.0  0.09228  0.33664  0.76787  1.0000
  C   C197      1.0  0.47605  0.47458  0.81050  1.0000
  H   H175      1.0  0.12354  0.37514  0.52563  1.0000
  H   H176      1.0  0.31574  0.39847  0.64504  1.0000
  C   C198      1.0  0.45988  0.43693  0.97815  1.0000
  H   H177      1.0  0.44382  0.45078  0.98489  1.0000
  S   S77       1.0  0.45404  0.50796  0.00022  1.0000
  H   H178      1.0  0.46006  0.43695  0.72233  1.0000
  H   H179      1.0  0.29256  0.45484  0.69815  1.0000
  C   C199      1.0  0.40599  0.50712  0.76461  1.0000
  C   C200      1.0  0.42723  0.52312  0.77441  1.0000
  C   C201      1.0  0.42789  0.52666  0.80573  1.0000
  C   C202      1.0  0.40682  0.51485  0.82726  1.0000
  C   C203      1.0  0.38623  0.49790  0.81762  1.0000
  C   C204      1.0  0.38603  0.49369  0.78636  1.0000
  H   H180      1.0  0.44263  0.53364  0.75758  1.0000
  H   H181      1.0  0.44372  0.53994  0.81292  1.0000
  C   C205      1.0  0.48789  0.42604  0.80953  1.0000
  H   H182      1.0  0.44816  0.38175  0.61320  1.0000
  H   H183      1.0  0.03938  0.43494  0.78652  1.0000
  C   C206      1.0  0.49455  0.37802  0.71595  1.0000
  N   N16       1.0  0.27258  0.39689  0.64127  1.0000
  S   S78       1.0  0.03351  0.46042  0.87382  1.0000
  C   C207      1.0  0.47286  0.65986  0.87969  1.0000
  H   H184      1.0  0.13495  0.39835  0.79383  1.0000
  C   C208      1.0  0.46835  0.36146  0.97366  1.0000
  H   H185      1.0  0.05622  0.40769  0.86602  1.0000
  C   C209      1.0  0.00704  0.36927  0.62483  1.0000
  H   H186      1.0  0.45015  0.37078  0.79201  1.0000
  C   C210      1.0  0.14798  0.32963  0.83898  1.0000
  H   H187      1.0  0.47824  0.44120  0.64678  1.0000
  H   H188      1.0  0.22986  0.40119  0.63605  1.0000
  H   H189      1.0  0.32294  0.44640  0.62155  1.0000
  H   H190      1.0  0.00240  0.44980  0.71392  1.0000
  H   H191      1.0  0.23583  0.44951  0.61431  1.0000
  H   H192      1.0  0.27479  0.35432  0.63554  1.0000
  H   H193      1.0  0.47826  0.60480  0.94878  1.0000
  H   H194      1.0  0.03419  0.36188  0.86135  1.0000
  S   S79       1.0  0.01069  0.52172  0.92218  1.0000
  C   C211      1.0  0.38241  0.57189  0.75528  1.0000
  C   C212      1.0  0.02063  0.64867  0.82228  1.0000
  C   C213      1.0  0.01494  0.64605  0.89770  1.0000
  C   C214      1.0  0.34794  0.55049  0.79400  1.0000
  H   H195      1.0  0.33005  0.53669  0.80051  1.0000
  C   C215      1.0  0.29833  0.40939  0.63745  1.0000
  C   C216      1.0  0.11987  0.36880  0.83126  1.0000
  H   H196      1.0  0.41403  0.59629  0.77208  1.0000
  H   H197      1.0  0.05995  0.58579  0.99138  1.0000
  N   N17       1.0  0.46940  0.44606  0.80492  1.0000
  H   H198      1.0  0.03679  0.43710  0.94051  1.0000
  H   H199      1.0  0.28274  0.47234  0.60642  1.0000
  N   N18       1.0  0.16203  0.36515  0.79860  1.0000
  H   H200      1.0  0.35357  0.55790  0.84051  1.0000
  N   N19       1.0  0.03249  0.42006  0.63066  1.0000
  C   C217      1.0  0.39911  0.59112  0.83220  1.0000
  H   H201      1.0  0.40098  0.61387  0.82780  1.0000
  H   H202      1.0  0.38829  0.58592  0.85564  1.0000
  H   H203      1.0  0.42000  0.58274  0.83236  1.0000
  H   H204      1.0  0.24751  0.36291  0.66390  1.0000
  H   H205      1.0  0.17372  0.38215  0.53739  1.0000
  C   C218      1.0  0.03574  0.37240  0.62140  1.0000
  H   H206      1.0  0.47044  0.61565  0.87865  1.0000
  Fe  Fe45      1.0  0.49450  0.55900  0.89962  1.0000
  C   C219      1.0  0.48296  0.63327  0.88309  1.0000
  H   H207      1.0  0.39081  0.45423  0.53272  1.0000
  H   H208      1.0  0.41726  0.40736  0.78302  1.0000
  H   H209      1.0  0.07050  0.40033  0.62157  1.0000
  C   C220      1.0  0.11569  0.39478  0.53123  1.0000
  H   H210      1.0  0.42969  0.45551  0.79175  1.0000
  H   H211      1.0  0.47688  0.59993  0.99014  1.0000
  H   H212      1.0  0.44293  0.41621  0.62255  1.0000
  C   C221      1.0  0.13890  0.37915  0.80662  1.0000
  H   H213      1.0  0.03326  0.45902  0.64938  1.0000
  C   C222      1.0  0.25042  0.41082  0.63245  1.0000
  S   S80       1.0  0.46051  0.34441  0.89923  1.0000
  H   H214      1.0  0.17995  0.39842  0.76704  1.0000
  C   C223      1.0  0.27991  0.45106  0.61587  1.0000
  C   C224      1.0  0.47414  0.42675  0.88572  1.0000
  H   H215      1.0  0.03435  0.58470  0.94509  1.0000
  C   C225      1.0  0.48118  0.39863  0.80533  1.0000
  C   C226      1.0  0.25369  0.43819  0.61994  1.0000
  C   C227      1.0  0.02163  0.37951  0.86370  1.0000
  H   H216      1.0  0.44275  0.38886  0.65302  1.0000
  H   H217      1.0  0.01301  0.47622  0.79773  1.0000
  C   C228      1.0  0.01716  0.42688  0.94940  1.0000
  C   C229      1.0  0.00186  0.42792  0.71141  1.0000
  C   C230      1.0  0.00222  0.45701  0.79472  1.0000
  S   S81       1.0  0.48493  0.53354  0.86123  1.0000
  H   H218      1.0  0.03651  0.64534  0.88929  1.0000
  H   H219      1.0  0.21917  0.36846  0.55296  1.0000
  C   C231      1.0  0.04591  0.44695  0.63319  1.0000
  C   C232      1.0  0.04819  0.39813  0.62426  1.0000
  H   H220      1.0  0.04940  0.45861  0.61021  1.0000
  H   H221      1.0  0.06599  0.44459  0.64274  1.0000
  N   N20       1.0  0.48237  0.40124  0.63095  1.0000
  H   H222      1.0  0.02740  0.38848  0.93153  1.0000
  H   H223      1.0  0.46175  0.48085  0.82981  1.0000
  C   C233      1.0  0.45558  0.39187  0.79585  1.0000
  C   C234      1.0  0.00956  0.50966  0.01076  1.0000
  C   C235      1.0  0.48829  0.61057  0.96905  1.0000
  C   C236      1.0  0.03765  0.58333  0.99393  1.0000
  H   H224      1.0  0.02092  0.62683  0.81927  1.0000
  C   C237      1.0  0.99703  0.44116  0.96562  1.0000
  H   H225      1.0  0.17758  0.36536  0.75175  1.0000
  H   H226      1.0  0.20319  0.37245  0.77725  1.0000
  C   C238      1.0  0.49223  0.42538  0.64028  1.0000
  H   H227      1.0  0.48343  0.35060  0.95880  1.0000
  C   C239      1.0  0.18160  0.37590  0.77242  1.0000
  H   H228      1.0  0.06496  0.65420  0.81431  1.0000
  C   C240      1.0  0.45264  0.39676  0.62989  1.0000
  N   N21       1.0  0.47448  0.39121  0.97073  1.0000
  H   H229      1.0  0.45375  0.64627  0.94623  1.0000
  H   H230      1.0  0.00092  0.46249  0.96970  1.0000
  H   H231      1.0  0.49108  0.46944  0.96702  1.0000
  C   C241      1.0  0.00016  0.37137  0.70564  1.0000
  C   C242      1.0  0.00434  0.41733  0.63337  1.0000
  C   C243      1.0  0.16643  0.34044  0.81404  1.0000
  C   C244      1.0  0.12457  0.34393  0.84761  1.0000
  H   H232      1.0  0.99703  0.34935  0.62325  1.0000
  H   H233      1.0  0.99956  0.34946  0.70336  1.0000
  N   N22       1.0  0.99624  0.66079  0.82978  1.0000
  C   C245      1.0  0.99759  0.62253  0.89836  1.0000
  H   H234      1.0  0.10969  0.33522  0.86630  1.0000
  H   H235      1.0  0.01452  0.39090  0.78149  1.0000
  C   C246      1.0  0.49328  0.54671  0.01095  1.0000
  C   C247      1.0  0.00283  0.40891  0.78585  1.0000
  H   H236      1.0  0.18406  0.32871  0.80676  1.0000
  C   C248      1.0  0.02312  0.58061  0.02318  1.0000
  Fe  Fe46      1.0  0.49464  0.49734  0.89269  1.0000
  H   H237      1.0  0.27170  0.94195  0.48857  1.0000
  C   C249      1.0  0.43835  0.91745  0.45826  1.0000
  S   S82       1.0  0.10366  0.93584  0.37792  1.0000
  S   S83       1.0  0.43935  0.98328  0.20721  1.0000
  Fe  Fe47      1.0  0.12321  0.95140  0.45857  1.0000
  S   S84       1.0  0.12245  0.90889  0.44317  1.0000
  H   H238      1.0  0.38700  0.72738  0.30023  1.0000
  Fe  Fe48      1.0  0.14351  0.92930  0.39877  1.0000
  S   S85       1.0  0.18005  0.90769  0.37753  1.0000
  Fe  Fe49      1.0  0.08288  0.92009  0.42421  1.0000
  S   S86       1.0  0.04476  0.89208  0.42816  1.0000
  C   C250      1.0  0.38001  0.74967  0.34055  1.0000
  S   S87       1.0  0.08180  0.96094  0.44377  1.0000
  Fe  Fe50      1.0  0.36395  0.89777  0.44349  1.0000
  S   S88       1.0  0.36775  0.94066  0.42095  1.0000
  Fe  Fe51      1.0  0.35786  0.87305  0.38288  1.0000
  S   S89       1.0  0.36122  0.91401  0.35515  1.0000
  S   S90       1.0  0.34930  0.83187  0.36578  1.0000
  Fe  Fe52      1.0  0.39523  0.92326  0.38400  1.0000
  S   S91       1.0  0.43344  0.94892  0.36589  1.0000
  Fe  Fe53      1.0  0.33334  0.92762  0.39441  1.0000
  S   S92       1.0  0.29993  0.95767  0.38844  1.0000
  S   S93       1.0  0.39424  0.88102  0.40856  1.0000
  S   S94       1.0  0.32708  0.88599  0.42015  1.0000
  C   C251      1.0  0.46602  0.95824  0.13842  1.0000
  S   S95       1.0  0.44077  0.84013  0.19156  1.0000
  C   C252      1.0  0.00924  0.79354  0.08031  1.0000
  H   H239      1.0  0.01436  0.73541  0.09867  1.0000
  S   S96       1.0  0.44760  0.77624  0.17473  1.0000
  S   S97       1.0  0.00652  0.78482  0.17438  1.0000
  Fe  Fe54      1.0  0.46153  0.81825  0.15324  1.0000
  S   S98       1.0  0.45834  0.83308  0.10382  1.0000
  Fe  Fe55      1.0  0.43108  0.79815  0.21534  1.0000
  S   S99       1.0  0.38957  0.78563  0.24011  1.0000
  Fe  Fe56      1.0  0.48063  0.83641  0.21237  1.0000
  C   C253      1.0  0.03502  0.86836  0.29050  1.0000
  C   C254      1.0  0.35861  0.82441  0.32765  1.0000
  C   C255      1.0  0.34346  0.80335  0.31650  1.0000
  C   C256      1.0  0.35252  0.79291  0.28871  1.0000
  C   C257      1.0  0.37718  0.80299  0.27197  1.0000
  C   C258      1.0  0.39202  0.82491  0.28230  1.0000
  C   C259      1.0  0.38256  0.83585  0.31011  1.0000
  H   H240      1.0  0.32500  0.79443  0.32992  1.0000
  H   H241      1.0  0.34090  0.77614  0.28077  1.0000
  H   H242      1.0  0.41105  0.83289  0.26930  1.0000
  H   H243      1.0  0.39438  0.85212  0.31864  1.0000
  C   C260      1.0  0.01371  0.90879  0.42429  1.0000
  C   C261      1.0  0.01305  0.93747  0.42212  1.0000
  C   C262      1.0  0.48689  0.90768  0.30169  1.0000
  C   C263      1.0  0.46388  0.93358  0.37526  1.0000
  Fe  Fe57      1.0  0.10439  0.97648  0.39819  1.0000
  H   H244      1.0  0.17535  0.93059  0.46607  1.0000
  H   H245      1.0  0.03168  0.94978  0.42253  1.0000
  C   C264      1.0  0.01587  0.88629  0.21108  1.0000
  H   H246      1.0  0.44712  0.89208  0.37749  1.0000
  C   C265      1.0  0.02579  0.97183  0.27608  1.0000
  C   C266      1.0  0.21344  0.92218  0.37922  1.0000
  C   C267      1.0  0.21743  0.94937  0.38612  1.0000
  C   C268      1.0  0.24410  0.96019  0.38827  1.0000
  C   C269      1.0  0.26696  0.94379  0.38400  1.0000
  C   C270      1.0  0.26311  0.91660  0.37695  1.0000
  C   C271      1.0  0.23642  0.90595  0.37424  1.0000
  H   H247      1.0  0.20004  0.96225  0.38933  1.0000
  C   C272      1.0  0.46346  0.67564  0.14330  1.0000
  H   H248      1.0  0.28064  0.90383  0.37336  1.0000
  H   H249      1.0  0.23352  0.88494  0.36865  1.0000
  H   H250      1.0  0.00402  0.95937  0.14471  1.0000
  H   H251      1.0  0.43107  0.75280  0.28156  1.0000
  C   C273      1.0  0.45612  0.95266  0.21520  1.0000
  C   C274      1.0  0.45427  0.90288  0.22460  1.0000
  C   C275      1.0  0.03308  0.91007  0.20674  1.0000
  H   H252      1.0  0.33943  0.96105  0.27633  1.0000
  H   H253      1.0  0.36362  0.94538  0.48752  1.0000
  H   H254      1.0  0.45929  0.83178  0.03838  1.0000
  H   H255      1.0  0.05514  0.90842  0.20205  1.0000
  H   H256      1.0  0.03526  0.95419  0.20339  1.0000
  H   H257      1.0  0.38837  0.99126  0.37419  1.0000
  C   C276      1.0  0.40100  0.98955  0.31422  1.0000
  H   H258      1.0  0.44229  0.88371  0.22851  1.0000
  N   N23       1.0  0.41386  0.78545  0.34545  1.0000
  C   C277      1.0  0.43653  0.91125  0.51443  1.0000
  N   N24       1.0  0.48314  0.69315  0.12691  1.0000
  C   C278      1.0  0.26962  0.94063  0.46380  1.0000
  S   S100      1.0  0.36753  0.88568  0.49362  1.0000
  C   C279      1.0  0.19647  0.89459  0.45309  1.0000
  C   C280      1.0  0.02502  0.87832  0.34334  1.0000
  H   H259      1.0  0.43817  0.80005  0.37855  1.0000
  C   C281      1.0  0.05601  0.67218  0.22332  1.0000
  H   H260      1.0  0.42965  0.93166  0.44094  1.0000
  H   H261      1.0  0.22334  0.86252  0.43995  1.0000
  H   H262      1.0  0.02371  0.72378  0.04617  1.0000
  H   H263      1.0  0.02766  0.97375  0.25120  1.0000
  C   C282      1.0  0.36546  0.93868  0.51125  1.0000
  C   C283      1.0  0.01741  0.90982  0.13448  1.0000
  H   H264      1.0  0.42582  0.98292  0.27207  1.0000
  C   C284      1.0  0.04624  0.96477  0.32361  1.0000
  H   H265      1.0  0.40637  0.81755  0.37511  1.0000
  C   C285      1.0  0.48748  0.95008  0.37744  1.0000
  Fe  Fe58      1.0  0.99852  0.82070  0.20254  1.0000
  C   C286      1.0  0.40537  0.98122  0.28447  1.0000
  C   C287      1.0  0.48276  0.90317  0.22601  1.0000
  C   C288      1.0  0.43883  0.94998  0.13579  1.0000
  H   H266      1.0  0.05280  0.70914  0.24701  1.0000
  H   H267      1.0  0.04937  0.86771  0.26995  1.0000
  H   H268      1.0  0.37760  0.77675  0.37675  1.0000
  C   C289      1.0  0.35688  0.96908  0.28678  1.0000
  H   H269      1.0  0.44643  0.67061  0.23513  1.0000
  H   H270      1.0  0.24697  0.98131  0.39345  1.0000
  H   H271      1.0  0.36037  0.73913  0.34853  1.0000
  C   C290      1.0  0.46485  0.90500  0.38029  1.0000
  C   C291      1.0  0.00761  0.85906  0.29055  1.0000
  H   H272      1.0  0.49440  0.78794  0.11294  1.0000
  C   C292      1.0  0.24598  0.89830  0.45159  1.0000
  C   C293      1.0  0.04878  0.96632  0.29158  1.0000
  H   H273      1.0  0.00113  0.85102  0.26999  1.0000
  C   C294      1.0  0.48450  0.95306  0.21746  1.0000
  C   C295      1.0  0.21941  0.93605  0.46562  1.0000
  C   C296      1.0  0.99768  0.86906  0.34248  1.0000
  C   C297      1.0  0.42903  0.77857  0.31942  1.0000
  H   H274      1.0  0.17785  0.88324  0.44922  1.0000
  H   H275      1.0  0.42311  0.96516  0.13508  1.0000
  H   H276      1.0  0.11976  0.90329  0.51083  1.0000
  H   H277      1.0  0.41083  0.91539  0.13304  1.0000
  S   S101      1.0  0.14607  0.97159  0.41506  1.0000
  S   S102      1.0  0.13754  0.96149  0.50374  1.0000
  H   H278      1.0  0.43448  0.82457  0.34598  1.0000
  C   C298      1.0  0.02177  0.93609  0.20737  1.0000
  C   C299      1.0  0.46662  0.67502  0.22270  1.0000
  H   H279      1.0  0.41899  0.92714  0.21763  1.0000
  H   H280      1.0  0.26579  0.88927  0.44682  1.0000
  H   H281      1.0  0.04950  0.68219  0.20240  1.0000
  H   H282      1.0  0.44798  0.79005  0.31061  1.0000
  H   H283      1.0  0.00523  0.84370  0.11886  1.0000
  C   C300      1.0  0.22204  0.88295  0.44785  1.0000
  C   C301      1.0  0.44099  0.92756  0.21904  1.0000
  Fe  Fe59      1.0  0.48727  0.77713  0.19623  1.0000
  N   N25       1.0  0.24445  0.92462  0.46001  1.0000
  C   C302      1.0  0.42381  0.80794  0.36217  1.0000
  H   H284      1.0  0.44742  0.68347  0.15881  1.0000
  H   H285      1.0  0.47136  0.97980  0.13981  1.0000
  C   C303      1.0  0.05790  0.68760  0.24854  1.0000
  H   H286      1.0  0.04982  0.78770  0.05768  1.0000
  H   H287      1.0  0.28833  0.93132  0.45309  1.0000
  H   H288      1.0  0.03368  0.92283  0.14143  1.0000
  C   C304      1.0  0.43195  0.92213  0.13479  1.0000
  H   H289      1.0  0.01585  0.79216  0.10314  1.0000
  C   C305      1.0  0.19508  0.92123  0.46224  1.0000
  H   H290      1.0  0.38638  0.96454  0.24751  1.0000
  H   H291      1.0  0.46430  0.71907  0.22396  1.0000
  C   C306      1.0  0.39497  0.74302  0.31354  1.0000
  H   H292      1.0  0.06869  0.96399  0.27875  1.0000
  H   H293      1.0  0.04215  0.87389  0.13509  1.0000
  S   S103      1.0  0.03023  0.85403  0.20760  1.0000
  H   H294      1.0  0.42599  0.89774  0.45994  1.0000
  C   C307      1.0  0.47667  0.70243  0.21640  1.0000
  C   C308      1.0  0.02843  0.79096  0.05458  1.0000
  C   C309      1.0  0.38988  0.77101  0.35640  1.0000
  C   C310      1.0  0.04374  0.87804  0.31711  1.0000
  C   C311      1.0  0.00174  0.86525  0.12162  1.0000
  C   C312      1.0  0.41975  0.75735  0.30302  1.0000
  H   H295      1.0  0.47614  0.88807  0.30048  1.0000
  H   H296      1.0  0.47153  0.73255  0.10976  1.0000
  H   H297      1.0  0.12600  0.99273  0.32985  1.0000
  H   H298      1.0  0.48985  0.87082  0.39182  1.0000
  C   C313      1.0  0.02248  0.88222  0.13054  1.0000
  H   H299      1.0  0.03173  0.88531  0.36435  1.0000
  C   C314      1.0  0.47219  0.81578  0.04664  1.0000
  H   H300      1.0  0.01929  0.96875  0.36448  1.0000
  S   S104      1.0  0.46966  0.79551  0.23894  1.0000
  H   H301      1.0  0.26914  0.96169  0.45207  1.0000
  C   C315      1.0  0.00192  0.72535  0.04373  1.0000
  H   H302      1.0  0.06506  0.88495  0.31756  1.0000
  C   C316      1.0  0.38316  0.97091  0.27069  1.0000
  H   H303      1.0  0.05507  0.91516  0.49738  1.0000
  H   H304      1.0  0.33268  0.97632  0.32884  1.0000
  C   C317      1.0  0.47523  0.81181  0.07810  1.0000
  H   H305      1.0  0.21809  0.95693  0.47219  1.0000
  H   H306      1.0  0.47038  0.72746  0.15111  1.0000
  H   H307      1.0  0.06414  0.96120  0.33594  1.0000
  C   C318      1.0  0.47383  0.93220  0.29548  1.0000
  C   C319      1.0  0.48917  0.89296  0.38802  1.0000
  H   H308      1.0  0.46005  0.91378  0.44977  1.0000
  C   C320      1.0  0.36684  0.91066  0.52036  1.0000
  C   C321      1.0  0.48184  0.72286  0.12910  1.0000
  C   C322      1.0  0.02075  0.96917  0.33966  1.0000
  H   H309      1.0  0.35179  0.98836  0.37376  1.0000
  H   H310      1.0  0.06671  0.68654  0.29571  1.0000
  C   C323      1.0  0.45250  0.90291  0.13640  1.0000
  H   H311      1.0  0.07208  0.96027  0.51251  1.0000
  C   C324      1.0  0.06544  0.67484  0.27590  1.0000
  N   N26       1.0  0.43722  0.92872  0.48828  1.0000
  C   C325      1.0  0.48830  0.95727  0.29579  1.0000
  H   H312      1.0  0.43880  0.97045  0.46918  1.0000
  C   C326      1.0  0.48598  0.93844  0.14048  1.0000
  C   C327      1.0  0.35321  0.97774  0.31649  1.0000
  H   H313      1.0  0.48695  0.97221  0.37328  1.0000
  H   H314      1.0  0.45271  0.93171  0.28989  1.0000
  N   N27       1.0  0.47914  0.91121  0.13897  1.0000
  H   H315      1.0  0.44698  0.88129  0.13566  1.0000
  H   H316      1.0  0.43542  0.88914  0.51317  1.0000
  H   H317      1.0  0.47854  0.97644  0.29043  1.0000
  C   C328      1.0  0.00043  0.97551  0.29283  1.0000
  N   N28       1.0  0.37522  0.98753  0.32992  1.0000
  N   N29       1.0  0.99826  0.97453  0.32425  1.0000
  C   C329      1.0  0.43807  0.95660  0.48992  1.0000
  C   C330      1.0  0.05821  0.91763  0.52119  1.0000
  C   C331      1.0  0.01986  0.79182  0.02494  1.0000
  C   C332      1.0  0.48537  0.79874  0.02593  1.0000
  C   C333      1.0  0.49173  0.79093  0.08875  1.0000
  C   C334      1.0  0.43747  0.96763  0.51842  1.0000
  H   H318      1.0  0.43715  0.98970  0.51986  1.0000
  S   S105      1.0  0.37578  0.91842  0.66019  1.0000
  S   S106      1.0  0.31428  0.91780  0.72206  1.0000
  Fe  Fe60      1.0  0.41490  0.92619  0.68153  1.0000
  S   S107      1.0  0.44862  0.89592  0.68488  1.0000
  H   H319      1.0  0.06799  0.85369  0.83107  1.0000
  Fe  Fe61      1.0  0.16405  0.93465  0.69295  1.0000
  S   S108      1.0  0.16868  0.88957  0.68932  1.0000
  S   S109      1.0  0.20128  0.96404  0.68570  1.0000
  Fe  Fe62      1.0  0.10114  0.92756  0.70852  1.0000
  S   S110      1.0  0.10158  0.88188  0.70670  1.0000
  S   S111      1.0  0.06175  0.94892  0.72045  1.0000
  Fe  Fe63      1.0  0.13897  0.88455  0.73223  1.0000
  S   S112      1.0  0.14759  0.86295  0.77738  1.0000
  Fe  Fe64      1.0  0.13108  0.89240  0.66392  1.0000
  S   S113      1.0  0.12691  0.87375  0.61912  1.0000
  S   S114      1.0  0.13646  0.92971  0.73712  1.0000
  S   S115      1.0  0.12830  0.93807  0.66465  1.0000
  H   H320      1.0  0.07304  0.91904  0.78010  1.0000
  S   S116      1.0  0.03512  0.74145  0.92336  1.0000
  C   C335      1.0  0.36699  0.95818  0.53292  1.0000
  C   C336      1.0  0.04551  0.69196  0.82411  1.0000
  S   S117      1.0  0.03847  0.80829  0.90511  1.0000
  C   C337      1.0  0.49232  0.97861  0.79840  1.0000
  Fe  Fe65      1.0  0.04087  0.77010  0.88011  1.0000
  S   S118      1.0  0.06712  0.76415  0.83623  1.0000
  Fe  Fe66      1.0  0.02723  0.77964  0.94780  1.0000
  S   S119      1.0  0.04357  0.78590  0.99329  1.0000
  C   C338      1.0  0.07673  0.89959  0.79390  1.0000
  S   S120      1.0  0.47524  0.71566  0.88226  1.0000
  H   H321      1.0  0.21369  0.86841  0.76932  1.0000
  H   H322      1.0  0.25570  0.98920  0.68134  1.0000
  C   C339      1.0  0.13342  0.89676  0.58577  1.0000
  C   C340      1.0  0.12497  0.88948  0.55783  1.0000
  H   H323      1.0  0.23731  0.98505  0.76236  1.0000
  C   C341      1.0  0.14740  0.94228  0.56150  1.0000
  C   C342      1.0  0.14555  0.92290  0.58714  1.0000
  H   H324      1.0  0.11596  0.86913  0.55645  1.0000
  H   H325      1.0  0.15344  0.92830  0.60796  1.0000
  C   C343      1.0  0.12393  0.83648  0.79357  1.0000
  C   C344      1.0  0.10817  0.82176  0.77512  1.0000
  C   C345      1.0  0.09067  0.79959  0.78841  1.0000
  C   C346      1.0  0.08813  0.79274  0.82027  1.0000
  C   C347      1.0  0.10305  0.80819  0.83887  1.0000
  C   C348      1.0  0.12127  0.82973  0.82545  1.0000
  H   H326      1.0  0.11026  0.82674  0.75048  1.0000
  H   H327      1.0  0.07923  0.78761  0.77394  1.0000
  H   H328      1.0  0.10135  0.80283  0.86344  1.0000
  H   H329      1.0  0.13348  0.84104  0.83981  1.0000
  N   N30       1.0  0.06772  0.92355  0.58181  1.0000
  C   C349      1.0  0.45957  0.89994  0.90338  1.0000
  S   S121      1.0  0.42332  0.96787  0.65640  1.0000
  H   H330      1.0  0.03776  0.89175  0.94266  1.0000
  H   H331      1.0  0.30853  0.98192  0.60409  1.0000
  H   H332      1.0  0.42771  0.93288  0.85186  1.0000
  H   H333      1.0  0.43731  0.89819  0.90733  1.0000
  H   H334      1.0  0.46090  0.94382  0.89522  1.0000
  C   C350      1.0  0.23323  0.96335  0.76946  1.0000
  C   C351      1.0  0.05256  0.85645  0.81511  1.0000
  C   C352      1.0  0.07219  0.94557  0.56023  1.0000
  H   H335      1.0  0.18165  0.91421  0.77674  1.0000
  S   S122      1.0  0.02869  0.95945  0.87904  1.0000
  C   C353      1.0  0.47490  0.87630  0.90527  1.0000
  H   H336      1.0  0.21263  0.92171  0.63775  1.0000
  C   C354      1.0  0.00441  0.67087  0.90673  1.0000
  C   C355      1.0  0.24930  0.91855  0.78476  1.0000
  C   C356      1.0  0.37009  0.94979  0.56370  1.0000
  C   C357      1.0  0.01322  0.86278  0.77407  1.0000
  C   C358      1.0  0.44553  0.93827  0.98177  1.0000
  H   H337      1.0  0.03632  0.90003  0.75712  1.0000
  C   C359      1.0  0.36911  0.90225  0.55130  1.0000
  C   C360      1.0  0.37080  0.92173  0.57289  1.0000
  C   C361      1.0  0.21797  0.87743  0.79088  1.0000
  H   H338      1.0  0.45373  0.69648  0.95035  1.0000
  H   H339      1.0  0.37019  0.88059  0.55847  1.0000
  H   H340      1.0  0.37334  0.91497  0.59640  1.0000
  H   H341      1.0  0.36641  0.97987  0.52567  1.0000
  C   C362      1.0  0.48858  0.69661  0.97676  1.0000
  C   C363      1.0  0.03268  0.91107  0.69175  1.0000
  C   C364      1.0  0.03225  0.93570  0.70590  1.0000
  H   H342      1.0  0.45244  0.66269  0.87274  1.0000
  C   C365      1.0  0.02804  0.90356  0.87757  1.0000
  C   C366      1.0  0.25464  0.94678  0.77725  1.0000
  H   H343      1.0  0.05165  0.90060  0.68794  1.0000
  C   C367      1.0  0.28373  0.93048  0.70933  1.0000
  C   C368      1.0  0.28218  0.95784  0.69755  1.0000
  C   C369      1.0  0.25687  0.96789  0.68994  1.0000
  C   C370      1.0  0.23301  0.95065  0.69410  1.0000
  C   C371      1.0  0.23473  0.92317  0.70533  1.0000
  C   C372      1.0  0.26000  0.91311  0.71280  1.0000
  H   H344      1.0  0.43475  0.90768  0.56405  1.0000
  H   H345      1.0  0.21653  0.90980  0.70916  1.0000
  H   H346      1.0  0.26107  0.89193  0.72196  1.0000
  S   S123      1.0  0.47276  0.76814  0.94305  1.0000
  H   H347      1.0  0.08014  0.96516  0.56635  1.0000
  H   H348      1.0  0.07773  0.90724  0.62584  1.0000
  C   C373      1.0  0.43623  0.92159  0.54326  1.0000
  H   H349      1.0  0.05308  0.93411  0.62637  1.0000
  C   C374      1.0  0.03485  0.88235  0.77389  1.0000
  H   H350      1.0  0.03032  0.81839  0.83230  1.0000
  C   C375      1.0  0.05344  0.89535  0.54342  1.0000
  C   C376      1.0  0.02090  0.90234  0.95391  1.0000
  C   C377      1.0  0.20212  0.92336  0.77737  1.0000
  H   H351      1.0  0.23569  0.86701  0.80001  1.0000
  C   C378      1.0  0.29447  0.91655  0.63589  1.0000
  H   H352      1.0  0.19020  0.96418  0.76244  1.0000
  N   N31       1.0  0.05395  0.87918  0.79451  1.0000
  C   C379      1.0  0.43653  0.94996  0.54521  1.0000
  H   H353      1.0  0.02582  0.99433  0.81835  1.0000
  S   S124      1.0  0.37466  0.97490  0.58955  1.0000
  H   H354      1.0  0.02749  0.85947  0.87835  1.0000
  H   H355      1.0  0.01788  0.68901  0.90515  1.0000
  H   H356      1.0  0.00792  0.72350  0.99446  1.0000
  H   H357      1.0  0.46838  0.95232  0.68715  1.0000
  H   H358      1.0  0.42641  0.96832  0.86122  1.0000
  H   H359      1.0  0.42025  0.95223  0.78269  1.0000
  H   H360      1.0  0.30027  0.97150  0.69513  1.0000
  C   C380      1.0  0.47295  0.92589  0.89690  1.0000
  N   N32       1.0  0.22327  0.90722  0.78474  1.0000
  H   H361      1.0  0.21424  0.95567  0.61944  1.0000
  C   C381      1.0  0.22361  0.93525  0.61837  1.0000
  H   H362      1.0  0.00733  0.96857  0.72054  1.0000
  C   C382      1.0  0.20676  0.95163  0.76954  1.0000
  C   C383      1.0  0.30969  0.94072  0.62526  1.0000
  H   H363      1.0  0.05485  0.88123  0.59096  1.0000
  C   C384      1.0  0.47412  0.94242  0.97860  1.0000
  H   H364      1.0  0.00447  0.94774  0.81972  1.0000
  H   H365      1.0  0.40396  0.95622  0.83542  1.0000
  N   N33       1.0  0.47932  0.89361  0.97904  1.0000
  H   H366      1.0  0.00831  0.85233  0.94243  1.0000
  C   C385      1.0  0.42505  0.95437  0.84260  1.0000
  C   C386      1.0  0.13770  0.93550  0.53403  1.0000
  H   H367      1.0  0.08940  0.94199  0.61514  1.0000
  H   H368      1.0  0.99818  0.86535  0.75756  1.0000
  C   C387      1.0  0.26816  0.96106  0.61049  1.0000
  H   H369      1.0  0.07956  0.90486  0.81755  1.0000
  S   S125      1.0  0.45779  0.84430  0.91583  1.0000
  C   C388      1.0  0.00325  0.94405  0.97268  1.0000
  H   H370      1.0  0.47620  0.97365  0.84594  1.0000
  C   C389      1.0  0.00829  0.89961  0.68289  1.0000
  C   C390      1.0  0.01514  0.87729  0.87923  1.0000
  C   C391      1.0  0.03127  0.83643  0.81594  1.0000
  H   H371      1.0  0.43510  0.95823  0.56754  1.0000
  C   C392      1.0  0.05819  0.89873  0.57386  1.0000
  N   N34       1.0  0.25327  0.93734  0.62124  1.0000
  N   N35       1.0  0.44613  0.96227  0.81684  1.0000
  Fe  Fe67      1.0  0.39978  0.98270  0.69816  1.0000
  Fe  Fe68      1.0  0.38237  0.96170  0.63861  1.0000
  C   C393      1.0  0.26611  0.91512  0.63348  1.0000
  H   H372      1.0  0.15597  0.96277  0.56311  1.0000
  H   H373      1.0  0.49417  0.84842  0.83761  1.0000
  C   C394      1.0  0.44055  0.95933  0.78735  1.0000
  H   H374      1.0  0.05029  0.90578  0.87575  1.0000
  H   H375      1.0  0.26640  0.90571  0.78933  1.0000
  H   H376      1.0  0.19962  0.87293  0.80802  1.0000
  C   C395      1.0  0.48143  0.91064  0.68838  1.0000
  C   C396      1.0  0.02469  0.93028  0.95799  1.0000
  S   S126      1.0  0.35933  0.98121  0.67769  1.0000
  C   C397      1.0  0.47171  0.97147  0.82258  1.0000
  C   C398      1.0  0.48550  0.93909  0.68865  1.0000
  C   C399      1.0  0.00749  0.94921  0.71028  1.0000
  H   H377      1.0  0.21989  0.92687  0.59634  1.0000
  H   H378      1.0  0.43239  0.95576  0.98301  1.0000
  H   H379      1.0  0.27553  0.95546  0.77608  1.0000
  H   H380      1.0  0.09606  0.89114  0.78365  1.0000
  S   S127      1.0  0.39319  0.94112  0.72409  1.0000
  Fe  Fe69      1.0  0.35467  0.93805  0.70016  1.0000
  C   C400      1.0  0.46882  0.68414  0.96110  1.0000
  C   C401      1.0  0.01220  0.92688  0.87930  1.0000
  C   C402      1.0  0.12714  0.90881  0.53195  1.0000
  H   H381      1.0  0.02035  0.72587  0.83484  1.0000
  S   S128      1.0  0.45028  0.99143  0.92014  1.0000
  H   H382      1.0  0.25434  0.89636  0.64212  1.0000
  C   C403      1.0  0.04563  0.66401  0.81956  1.0000
  H   H383      1.0  0.04399  0.94130  0.94942  1.0000
  H   H384      1.0  0.41179  0.90820  0.98552  1.0000
  C   C404      1.0  0.43399  0.91161  0.98332  1.0000
  H   H385      1.0  0.06471  0.70420  0.82232  1.0000
  C   C405      1.0  0.99724  0.96411  0.80479  1.0000
  H   H386      1.0  0.30453  0.89928  0.64654  1.0000
  S   S129      1.0  0.99629  0.76825  0.87203  1.0000
  C   C406      1.0  0.07208  0.92692  0.61387  1.0000
  H   H387      1.0  0.48259  0.80161  0.00177  1.0000
  H   H388      1.0  0.33160  0.94222  0.62722  1.0000
  C   C407      1.0  0.02053  0.70419  0.83122  1.0000
  H   H389      1.0  0.00864  0.88033  0.67236  1.0000
  C   C408      1.0  0.01138  0.83977  0.79544  1.0000
  N   N36       1.0  0.99616  0.88872  0.96345  1.0000
  C   C409      1.0  0.45129  0.88935  0.98207  1.0000
  H   H390      1.0  0.00593  0.96569  0.97615  1.0000
  H   H391      1.0  0.44219  0.86864  0.98320  1.0000
  H   H392      1.0  0.04653  0.87550  0.53699  1.0000
  H   H393      1.0  0.25804  0.97866  0.60073  1.0000
  C   C410      1.0  0.29659  0.96310  0.61236  1.0000
  Fe  Fe70      1.0  0.00120  0.99169  0.89790  1.0000
  C   C411      1.0  0.46058  0.96650  0.76260  1.0000
  C   C412      1.0  0.06757  0.94294  0.52965  1.0000
  H   H394      1.0  0.48321  0.96316  0.97731  1.0000
  H   H395      1.0  0.48734  0.85344  0.79829  1.0000
  Fe  Fe71      1.0  0.48624  0.80925  0.91869  1.0000
  C   C413      1.0  0.48662  0.97622  0.76819  1.0000
  C   C414      1.0  0.00957  0.99045  0.80390  1.0000
  H   H396      1.0  0.48683  0.85182  0.97122  1.0000
  C   C415      1.0  0.48896  0.68280  0.88557  1.0000
  H   H397      1.0  0.45558  0.96531  0.73920  1.0000
  C   C416      1.0  0.99593  0.68825  0.83399  1.0000
  H   H398      1.0  0.48857  0.71854  0.97890  1.0000
  C   C417      1.0  0.49082  0.91972  0.97724  1.0000
  H   H399      1.0  0.96050  0.07094  0.05686  1.0000
  S   S130      1.0  0.56700  0.02003  0.21983  1.0000
  H   H400      1.0  0.53804  0.10958  0.24390  1.0000
  S   S131      1.0  0.52347  0.08017  0.18285  1.0000
  S   S132      1.0  0.59525  0.01574  0.35648  1.0000
  C   C418      1.0  0.57634  0.08889  0.23724  1.0000
  C   C419      1.0  0.91310  0.31141  0.28825  1.0000
  Fe  Fe72      1.0  0.52782  0.03749  0.20497  1.0000
  S   S133      1.0  0.95908  0.32728  0.19353  1.0000
  N   N37       1.0  0.60031  0.08067  0.28208  1.0000
  C   C420      1.0  0.55780  0.10431  0.28562  1.0000
  C   C421      1.0  0.96118  0.29513  0.05045  1.0000
  C   C422      1.0  0.62405  0.06981  0.29635  1.0000
  C   C423      1.0  0.59858  0.99692  0.29912  1.0000
  C   C424      1.0  0.55574  0.10180  0.25449  1.0000
  C   C425      1.0  0.59246  0.99860  0.26846  1.0000
  S   S134      1.0  0.93513  0.28584  0.27544  1.0000
  H   H401      1.0  0.96194  0.00012  0.07404  1.0000
  S   S135      1.0  0.96161  0.26011  0.19229  1.0000
  Fe  Fe73      1.0  0.50056  0.05941  0.14866  1.0000
  Fe  Fe74      1.0  0.96703  0.29723  0.15771  1.0000
  H   H402      1.0  0.51382  0.16910  0.11245  1.0000
  Fe  Fe75      1.0  0.95893  0.29076  0.22817  1.0000
  H   H403      1.0  0.93997  0.28798  0.05039  1.0000
  C   C426      1.0  0.49810  0.06226  0.04116  1.0000
  H   H404      1.0  0.97829  0.23508  0.04867  1.0000
  N   N38       1.0  0.98582  0.23504  0.09572  1.0000
  H   H405      1.0  0.54960  0.03831  0.32814  1.0000
  C   C427      1.0  0.49776  0.27522  0.02928  1.0000
  C   C428      1.0  0.58355  0.01175  0.32051  1.0000
  H   H406      1.0  0.96680  0.30655  0.32466  1.0000
  C   C429      1.0  0.59864  0.07844  0.25146  1.0000
  H   H407      1.0  0.58174  0.09539  0.32342  1.0000
  H   H408      1.0  0.51478  0.13700  0.20066  1.0000
  C   C430      1.0  0.51105  0.18098  0.19867  1.0000
  H   H409      1.0  0.98591  0.20682  0.22057  1.0000
  S   S136      1.0  0.99061  0.10722  0.21667  1.0000
  S   S137      1.0  0.50670  0.23678  0.19507  1.0000
  C   C431      1.0  0.58045  0.09369  0.29911  1.0000
  C   C432      1.0  0.97531  0.07852  0.03763  1.0000
  H   H410      1.0  0.96837  0.15839  0.23178  1.0000
  S   S138      1.0  0.94818  0.29890  0.11248  1.0000
  H   H411      1.0  0.95278  0.20602  0.11013  1.0000
  H   H412      1.0  0.53105  0.18540  0.18582  1.0000
  H   H413      1.0  0.54179  0.11419  0.29924  1.0000
  H   H414      1.0  0.61407  0.06769  0.23802  1.0000
  C   C433      1.0  0.56123  0.02675  0.31163  1.0000
  C   C434      1.0  0.55465  0.02785  0.28113  1.0000
  C   C435      1.0  0.57090  0.01455  0.25924  1.0000
  H   H415      1.0  0.62961  0.04975  0.28765  1.0000
  H   H416      1.0  0.53804  0.04026  0.27421  1.0000
  H   H417      1.0  0.90572  0.32830  0.24309  1.0000
  S   S139      1.0  0.50904  0.01692  0.16774  1.0000
  C   C436      1.0  0.98766  0.16299  0.21752  1.0000
  H   H418      1.0  0.51348  0.07833  0.03285  1.0000
  H   H419      1.0  0.64200  0.08460  0.29132  1.0000
  C   C437      1.0  0.97058  0.30259  0.07795  1.0000
  H   H420      1.0  0.61938  0.06575  0.32171  1.0000
  H   H421      1.0  0.91554  0.29873  0.33612  1.0000
  C   C438      1.0  0.98193  0.00854  0.06402  1.0000
  C   C439      1.0  0.50186  0.15356  0.20704  1.0000
  C   C440      1.0  0.50197  0.27156  0.06043  1.0000
  H   H422      1.0  0.50915  0.21964  0.10913  1.0000
  C   C441      1.0  0.95691  0.22863  0.10739  1.0000
  H   H423      1.0  0.94289  0.23843  0.09166  1.0000
  H   H424      1.0  0.57482  0.08624  0.21317  1.0000
  H   H425      1.0  0.95175  0.23707  0.12995  1.0000
  S   S140      1.0  0.50756  0.07552  0.09871  1.0000
  C   C442      1.0  0.98379  0.32157  0.31863  1.0000
  C   C443      1.0  0.90675  0.31298  0.31997  1.0000
  C   C444      1.0  0.49542  0.17750  0.12343  1.0000
  C   C445      1.0  0.98861  0.01005  0.03206  1.0000
  H   H426      1.0  0.51845  0.25902  0.06746  1.0000
  H   H427      1.0  0.50008  0.12512  0.13842  1.0000
  C   C446      1.0  0.99354  0.23727  0.06472  1.0000
  S   S141      1.0  0.99380  0.04393  0.16593  1.0000
  S   S142      1.0  0.49475  0.30830  0.16303  1.0000
  H   H428      1.0  0.53536  0.23301  0.82651  1.0000
  H   H429      1.0  0.51782  0.14451  0.00168  1.0000
  S   S143      1.0  0.98513  0.02608  0.86854  1.0000
  S   S144      1.0  0.58820  0.31120  0.87046  1.0000
  S   S145      1.0  0.52684  0.31440  0.93041  1.0000
  C   C447      1.0  0.58797  0.29036  0.78309  1.0000
  C   C448      1.0  0.60686  0.30982  0.76659  1.0000
  C   C449      1.0  0.84331  0.02422  0.78518  1.0000
  Fe  Fe76      1.0  0.94511  0.01528  0.89777  1.0000
  C   C450      1.0  0.84541  0.02698  0.81625  1.0000
  H   H430      1.0  0.97270  0.02259  0.75081  1.0000
  C   C451      1.0  0.90775  0.00782  0.77410  1.0000
  H   H431      1.0  0.50654  0.14142  0.82025  1.0000
  Fe  Fe77      1.0  0.51497  0.27219  0.95275  1.0000
  H   H432      1.0  0.52694  0.19545  0.90514  1.0000
  H   H433      1.0  0.85292  0.04629  0.82358  1.0000
  C   C452      1.0  0.97981  0.00631  0.76611  1.0000
  S   S146      1.0  0.95227  0.04497  0.93308  1.0000
  H   H434      1.0  0.57890  0.22998  0.85143  1.0000
  S   S147      1.0  0.96401  0.99880  0.00869  1.0000
  S   S148      1.0  0.53912  0.25048  0.91635  1.0000
  H   H435      1.0  0.97019  0.21717  0.81895  1.0000
  Fe  Fe78      1.0  0.54728  0.29258  0.89177  1.0000
  C   C453      1.0  0.90959  0.00489  0.83802  1.0000
  H   H436      1.0  0.53491  0.31923  0.79003  1.0000
  S   S149      1.0  0.96730  0.20990  0.90941  1.0000
  H   H437      1.0  0.51778  0.19544  0.00196  1.0000
  S   S150      1.0  0.90568  0.00469  0.87818  1.0000
  S   S151      1.0  0.51020  0.29078  0.86574  1.0000
  C   C454      1.0  0.58202  0.29069  0.81503  1.0000
  H   H438      1.0  0.56687  0.27622  0.82755  1.0000
  S   S152      1.0  0.51885  0.25854  0.00230  1.0000
  C   C455      1.0  0.50294  0.18458  0.99000  1.0000
  Fe  Fe79      1.0  0.97227  0.00995  0.95750  1.0000
  Fe  Fe80      1.0  0.49979  0.25052  0.89403  1.0000
  C   C456      1.0  0.56893  0.21156  0.84463  1.0000
  C   C457      1.0  0.98796  0.08734  0.98306  1.0000
  S   S153      1.0  0.52361  0.09583  0.90384  1.0000
  C   C458      1.0  0.96458  0.15390  0.90750  1.0000
  S   S154      1.0  0.90509  0.01120  0.73440  1.0000
  H   H439      1.0  0.97218  0.28950  0.00238  1.0000
  H   H440      1.0  0.54373  0.14879  0.91612  1.0000
  H   H441      1.0  0.94265  0.15611  0.90697  1.0000
  H   H442      1.0  0.96243  0.11007  0.90341  1.0000
  C   C459      1.0  0.52453  0.15134  0.90607  1.0000
  H   H443      1.0  0.57525  0.14241  0.84703  1.0000
  Fe  Fe81      1.0  0.99442  0.24852  0.90850  1.0000
  C   C460      1.0  0.50288  0.15592  0.98965  1.0000
  C   C461      1.0  0.91761  0.03046  0.78797  1.0000
  C   C462      1.0  0.91882  0.02891  0.81984  1.0000
  H   H444      1.0  0.84918  0.04136  0.76812  1.0000
  C   C463      1.0  0.59590  0.30967  0.83071  1.0000
  C   C464      1.0  0.51503  0.17781  0.89991  1.0000
  H   H445      1.0  0.92389  0.04944  0.77410  1.0000
  H   H446      1.0  0.92567  0.04674  0.83054  1.0000
  H   H447      1.0  0.57757  0.27538  0.77098  1.0000
  S   S155      1.0  0.61312  0.30963  0.72653  1.0000
  S   S156      1.0  0.97902  0.28617  0.93018  1.0000
  S   S157      1.0  0.50619  0.02254  0.93689  1.0000
  H   H448      1.0  0.94836  0.07016  0.00323  1.0000
  C   C465      1.0  0.83878  0.00447  0.83778  1.0000
  H   H449      1.0  0.98748  0.25467  0.77888  1.0000
  H   H450      1.0  0.53245  0.12114  0.83554  1.0000
  H   H451      1.0  0.59886  0.18432  0.86161  1.0000
  C   C466      1.0  0.96853  0.07802  0.00756  1.0000
  C   C467      1.0  0.97574  0.12782  0.90548  1.0000
  H   H452      1.0  0.50554  0.10498  0.97312  1.0000
  N   N39       1.0  0.54274  0.16424  0.82845  1.0000
  C   C468      1.0  0.56671  0.16234  0.84200  1.0000
  C   C469      1.0  0.50963  0.12826  0.89869  1.0000
  C   C470      1.0  0.58011  0.18593  0.85040  1.0000
  H   H453      1.0  0.98287  0.08746  0.95961  1.0000
  C   C471      1.0  0.52922  0.13934  0.81945  1.0000
  H   H454      1.0  0.84117  0.00625  0.86189  1.0000
  H   H455      1.0  0.53753  0.13534  0.79581  1.0000
  C   C472      1.0  0.99210  0.22233  0.81432  1.0000
  C   C473      1.0  0.98169  0.17721  0.90959  1.0000
  C   C474      1.0  0.53189  0.18935  0.82224  1.0000
  C   C475      1.0  0.54468  0.21332  0.83044  1.0000
  Fe  Fe82      1.0  0.99400  0.05282  0.90623  1.0000
  C   C476      1.0  0.83500  0.99874  0.77600  1.0000
  Fe  Fe83      1.0  0.49482  0.05846  0.90599  1.0000
  H   H456      1.0  0.83408  0.99666  0.75171  1.0000
  H   H457      1.0  0.51267  0.19091  0.81192  1.0000
  C   C477      1.0  0.97936  0.29605  0.02323  1.0000
  C   C478      1.0  0.57748  0.59876  0.24208  1.0000
  Fe  Fe84      1.0  0.59669  0.48689  0.37730  1.0000
  S   S158      1.0  0.60131  0.44759  0.35448  1.0000
  S   S159      1.0  0.58958  0.52744  0.35187  1.0000
  Fe  Fe85      1.0  0.59388  0.45815  0.44173  1.0000
  S   S160      1.0  0.59766  0.41657  0.42423  1.0000
  S   S161      1.0  0.58823  0.46651  0.49155  1.0000
  Fe  Fe86      1.0  0.63064  0.43722  0.38984  1.0000
  S   S162      1.0  0.66899  0.41309  0.38134  1.0000
  Fe  Fe87      1.0  0.56810  0.43096  0.39106  1.0000
  S   S163      1.0  0.53240  0.40348  0.38187  1.0000
  S   S164      1.0  0.62887  0.47820  0.40959  1.0000
  S   S165      1.0  0.56161  0.47092  0.41159  1.0000
  Fe  Fe88      1.0  0.85588  0.39054  0.43814  1.0000
  S   S166      1.0  0.85517  0.43652  0.43555  1.0000
  S   S167      1.0  0.85134  0.43528  0.36237  1.0000
  Fe  Fe89      1.0  0.88485  0.43489  0.39334  1.0000
  S   S168      1.0  0.92223  0.46373  0.38323  1.0000
  Fe  Fe90      1.0  0.82161  0.43169  0.40503  1.0000
  S   S169      1.0  0.78516  0.45888  0.40995  1.0000
  H   H458      1.0  0.51550  0.61046  0.27690  1.0000
  H   H459      1.0  0.66114  0.37982  0.51565  1.0000
  H   H460      1.0  0.82189  0.44212  0.50656  1.0000
  H   H461      1.0  0.71225  0.44554  0.32530  1.0000
  C   C479      1.0  0.95364  0.44783  0.37546  1.0000
  C   C480      1.0  0.87547  0.34957  0.31035  1.0000
  C   C481      1.0  0.97563  0.42324  0.13158  1.0000
  H   H462      1.0  0.51591  0.46006  0.38230  1.0000
  H   H463      1.0  0.64621  0.40549  0.47141  1.0000
  H   H464      1.0  0.93562  0.40920  0.36558  1.0000
  C   C482      1.0  0.91268  0.42273  0.30387  1.0000
  C   C483      1.0  0.69979  0.42521  0.39412  1.0000
  C   C484      1.0  0.72146  0.40726  0.39665  1.0000
  C   C485      1.0  0.74753  0.41717  0.40261  1.0000
  C   C486      1.0  0.75201  0.44507  0.40631  1.0000
  C   C487      1.0  0.73000  0.46276  0.40521  1.0000
  C   C488      1.0  0.70395  0.45288  0.39904  1.0000
  H   H465      1.0  0.71831  0.38576  0.39318  1.0000
  H   H466      1.0  0.76428  0.40335  0.40357  1.0000
  H   H467      1.0  0.73336  0.48438  0.40804  1.0000
  H   H468      1.0  0.68753  0.46696  0.39680  1.0000
  H   H469      1.0  0.99264  0.62042  0.22212  1.0000
  C   C489      1.0  0.99440  0.57684  0.02611  1.0000
  S   S170      1.0  0.51910  0.57925  0.08544  1.0000
  H   H470      1.0  0.52205  0.48957  0.25040  1.0000
  H   H471      1.0  0.94327  0.55825  0.02522  1.0000
  C   C490      1.0  0.71260  0.39153  0.31836  1.0000
  S   S171      1.0  0.82001  0.38558  0.41012  1.0000
  C   C491      1.0  0.95943  0.41979  0.44682  1.0000
  H   H472      1.0  0.52718  0.42830  0.20672  1.0000
  C   C492      1.0  0.95367  0.48901  0.30337  1.0000
  C   C493      1.0  0.58322  0.52388  0.31385  1.0000
  C   C494      1.0  0.60010  0.51485  0.26195  1.0000
  C   C495      1.0  0.60334  0.51356  0.29340  1.0000
  H   H473      1.0  0.61622  0.50784  0.24599  1.0000
  H   H474      1.0  0.62199  0.50578  0.30164  1.0000
  H   H475      1.0  0.64325  0.44184  0.47058  1.0000
  S   S172      1.0  0.97445  0.61411  0.16196  1.0000
  S   S173      1.0  0.88786  0.38909  0.39776  1.0000
  H   H476      1.0  0.54520  0.42716  0.46809  1.0000
  S   S174      1.0  0.51967  0.52338  0.15608  1.0000
  C   C496      1.0  0.88841  0.33237  0.33102  1.0000
  S   S175      1.0  0.53113  0.58762  0.17054  1.0000
  H   H477      1.0  0.95269  0.50088  0.28078  1.0000
  C   C497      1.0  0.98858  0.44708  0.21420  1.0000
  C   C498      1.0  0.51118  0.45239  0.48034  1.0000
  Fe  Fe91      1.0  0.53591  0.54549  0.19366  1.0000
  S   S176      1.0  0.57492  0.53051  0.21112  1.0000
  H   H478      1.0  0.69395  0.40316  0.31408  1.0000
  H   H479      1.0  0.80401  0.39376  0.50846  1.0000
  C   C499      1.0  0.50007  0.41808  0.38742  1.0000
  C   C500      1.0  0.53198  0.61594  0.25773  1.0000
  H   H480      1.0  0.56145  0.46846  0.30013  1.0000
  H   H481      1.0  0.52075  0.64271  0.18869  1.0000
  C   C501      1.0  0.99185  0.51344  0.07296  1.0000
  C   C502      1.0  0.55920  0.53412  0.30307  1.0000
  C   C503      1.0  0.55583  0.53512  0.27165  1.0000
  C   C504      1.0  0.57660  0.52611  0.25095  1.0000
  H   H482      1.0  0.54365  0.54215  0.31892  1.0000
  H   H483      1.0  0.53779  0.54408  0.26339  1.0000
  Fe  Fe92      1.0  0.85227  0.38927  0.36921  1.0000
  C   C505      1.0  0.97271  0.50823  0.05216  1.0000
  H   H484      1.0  0.97478  0.49163  0.31034  1.0000
  H   H485      1.0  0.65796  0.46708  0.51186  1.0000
  C   C506      1.0  0.50134  0.55890  0.06203  1.0000
  H   H486      1.0  0.95098  0.50585  0.06021  1.0000
  H   H487      1.0  0.57256  0.59985  0.21848  1.0000
  C   C507      1.0  0.60927  0.58658  0.27914  1.0000
  C   C508      1.0  0.59022  0.59438  0.30239  1.0000
  S   S177      1.0  0.85003  0.37189  0.32341  1.0000
  C   C509      1.0  0.99009  0.37593  0.12685  1.0000
  H   H488      1.0  0.62848  0.57791  0.28484  1.0000
  H   H489      1.0  0.98775  0.45086  0.28495  1.0000
  H   H490      1.0  0.97988  0.38624  0.35945  1.0000
  H   H491      1.0  0.97804  0.48411  0.38163  1.0000
  H   H492      1.0  0.97251  0.33237  0.27313  1.0000
  H   H493      1.0  0.95430  0.41594  0.13283  1.0000
  H   H494      1.0  0.70723  0.37783  0.33981  1.0000
  H   H495      1.0  0.51525  0.38867  0.45492  1.0000
  C   C510      1.0  0.56490  0.60417  0.29491  1.0000
  N   N40       1.0  0.52302  0.45689  0.28571  1.0000
  C   C511      1.0  0.97253  0.42322  0.21175  1.0000
  C   C512      1.0  0.60300  0.58896  0.24875  1.0000
  H   H496      1.0  0.76447  0.37739  0.32161  1.0000
  N   N41       1.0  0.55865  0.60578  0.26513  1.0000
  C   C513      1.0  0.87364  0.38641  0.51154  1.0000
  C   C514      1.0  0.51013  0.47562  0.26774  1.0000
  H   H497      1.0  0.52103  0.64683  0.08960  1.0000
  H   H498      1.0  0.80426  0.40721  0.33018  1.0000
  H   H499      1.0  0.55999  0.43485  0.28585  1.0000
  C   C515      1.0  0.98516  0.39834  0.20672  1.0000
  N   N42       1.0  0.94662  0.45993  0.30088  1.0000
  H   H500      1.0  0.75171  0.47598  0.33391  1.0000
  H   H501      1.0  0.95030  0.42408  0.21339  1.0000
  H   H502      1.0  0.88879  0.42026  0.47920  1.0000
  C   C516      1.0  0.91983  0.45026  0.30708  1.0000
  C   C517      1.0  0.76163  0.39915  0.32356  1.0000
  H   H503      1.0  0.98333  0.57424  0.04896  1.0000
  C   C518      1.0  0.78427  0.41592  0.32842  1.0000
  H   H504      1.0  0.52023  0.38685  0.13668  1.0000
  H   H505      1.0  0.89147  0.41509  0.30892  1.0000
  C   C519      1.0  0.98149  0.45135  0.13285  1.0000
  C   C520      1.0  0.75481  0.45458  0.33010  1.0000
  C   C521      1.0  0.96027  0.41529  0.28749  1.0000
  C   C522      1.0  0.50762  0.56242  0.03004  1.0000
  H   H506      1.0  0.98476  0.51501  0.09677  1.0000
  H   H507      1.0  0.67691  0.42773  0.46387  1.0000
  C   C523      1.0  0.88565  0.41266  0.50305  1.0000
  H   H508      1.0  0.61729  0.58215  0.23058  1.0000
  C   C524      1.0  0.52299  0.42863  0.47047  1.0000
  N   N43       1.0  0.65946  0.42358  0.51048  1.0000
  N   N44       1.0  0.96547  0.44576  0.45448  1.0000
  C   C525      1.0  0.95436  0.42046  0.36833  1.0000
  H   H509      1.0  0.96902  0.36963  0.13774  1.0000
  C   C526      1.0  0.98839  0.64050  0.21174  1.0000
  C   C527      1.0  0.97836  0.46273  0.37686  1.0000
  H   H510      1.0  0.71743  0.37885  0.29880  1.0000
  H   H511      1.0  0.87196  0.36141  0.26251  1.0000
  H   H512      1.0  0.93854  0.41363  0.44316  1.0000
  H   H513      1.0  0.58763  0.40726  0.48758  1.0000
  Fe  Fe93      1.0  0.51059  0.56527  0.13577  1.0000
  C   C528      1.0  0.58977  0.43857  0.51908  1.0000
  H   H514      1.0  0.50622  0.47372  0.19934  1.0000
  H   H515      1.0  0.79788  0.45683  0.33683  1.0000
  C   C529      1.0  0.65639  0.42469  0.47749  1.0000
  S   S178      1.0  0.85953  0.36720  0.48417  1.0000
  C   C530      1.0  0.55316  0.45630  0.28257  1.0000
  H   H516      1.0  0.92330  0.45679  0.45400  1.0000
  H   H517      1.0  0.56225  0.46502  0.25936  1.0000
  H   H518      1.0  0.59461  0.59175  0.32621  1.0000
  C   C531      1.0  0.98027  0.40103  0.44269  1.0000
  H   H519      1.0  0.97622  0.40207  0.27922  1.0000
  C   C532      1.0  0.93309  0.40514  0.29410  1.0000
  H   H520      1.0  0.97259  0.38026  0.20458  1.0000
  S   S179      1.0  0.98534  0.53659  0.15383  1.0000
  H   H521      1.0  0.52431  0.46936  0.48572  1.0000
  C   C533      1.0  0.78076  0.44378  0.33184  1.0000
  N   N45       1.0  0.73621  0.40989  0.32197  1.0000
  C   C534      1.0  0.73260  0.43723  0.32521  1.0000
  C   C535      1.0  0.97957  0.40759  0.36430  1.0000
  C   C536      1.0  0.97884  0.64300  0.18273  1.0000
  H   H522      1.0  0.51831  0.42510  0.32244  1.0000
  H   H523      1.0  0.90390  0.46376  0.31497  1.0000
  C   C537      1.0  0.96669  0.44293  0.29086  1.0000
  C   C538      1.0  0.49783  0.44656  0.38729  1.0000
  H   H524      1.0  0.94845  0.48356  0.44043  1.0000
  H   H525      1.0  0.99156  0.37157  0.10231  1.0000
  H   H526      1.0  0.97554  0.38072  0.43586  1.0000
  H   H527      1.0  0.92775  0.38377  0.29150  1.0000
  S   S180      1.0  0.97254  0.47826  0.21962  1.0000
  H   H528      1.0  0.96500  0.46562  0.13535  1.0000
  H   H529      1.0  0.94220  0.47286  0.48129  1.0000
  C   C539      1.0  0.50534  0.42935  0.20461  1.0000
  C   C540      1.0  0.88203  0.34824  0.27861  1.0000
  C   C541      1.0  0.58974  0.41151  0.51089  1.0000
  C   C542      1.0  0.50801  0.43958  0.30784  1.0000
  H   H530      1.0  0.53343  0.63867  0.25278  1.0000
  C   C543      1.0  0.94379  0.46570  0.45784  1.0000
  H   H531      1.0  0.93939  0.49762  0.32119  1.0000
  H   H532      1.0  0.55003  0.60975  0.31319  1.0000
  H   H533      1.0  0.52515  0.60663  0.23738  1.0000
  H   H534      1.0  0.90135  0.45010  0.51890  1.0000
  C   C544      1.0  0.50616  0.40694  0.46340  1.0000
  H   H535      1.0  0.51618  0.43739  0.13420  1.0000
  C   C545      1.0  0.98704  0.33597  0.28963  1.0000
  S   S181      1.0  0.50467  0.37302  0.20918  1.0000
  H   H536      1.0  0.88325  0.33305  0.35551  1.0000
  C   C546      1.0  0.99191  0.45358  0.45863  1.0000
  C   C547      1.0  0.90119  0.32956  0.26756  1.0000
  C   C548      1.0  0.50173  0.39613  0.12955  1.0000
  S   S182      1.0  0.49568  0.54447  0.22323  1.0000
  C   C549      1.0  0.49920  0.42466  0.12835  1.0000
  C   C550      1.0  0.50477  0.65493  0.10465  1.0000
  C   C551      1.0  0.50846  0.65917  0.19665  1.0000
  S   S183      1.0  0.88118  0.38546  0.65495  1.0000
  S   S184      1.0  0.80848  0.38030  0.70067  1.0000
  Fe  Fe94      1.0  0.91129  0.39622  0.68795  1.0000
  S   S185      1.0  0.94490  0.36830  0.70058  1.0000
  C   C552      1.0  0.66235  0.39882  0.52668  1.0000
  Fe  Fe95      1.0  0.65623  0.40154  0.67302  1.0000
  S   S186      1.0  0.65039  0.35975  0.65608  1.0000
  S   S187      1.0  0.69612  0.42719  0.66245  1.0000
  Fe  Fe96      1.0  0.59460  0.40546  0.69324  1.0000
  S   S188      1.0  0.58459  0.36448  0.67726  1.0000
  S   S189      1.0  0.56060  0.43132  0.71286  1.0000
  Fe  Fe97      1.0  0.62158  0.35080  0.69951  1.0000
  H   H537      1.0  0.56038  0.41242  0.63636  1.0000
  Fe  Fe98      1.0  0.61380  0.37750  0.63587  1.0000
  S   S190      1.0  0.60211  0.36735  0.58976  1.0000
  S   S191      1.0  0.63020  0.39132  0.71836  1.0000
  S   S192      1.0  0.62125  0.41985  0.64987  1.0000
  C   C553      1.0  0.78058  0.42576  0.75003  1.0000
  H   H538      1.0  0.95922  0.35387  0.94547  1.0000
  H   H539      1.0  0.49834  0.54944  0.98633  1.0000
  C   C554      1.0  0.50581  0.38001  0.88792  1.0000
  C   C555      1.0  0.59598  0.39487  0.56334  1.0000
  C   C556      1.0  0.99299  0.37656  0.86413  1.0000
  H   H540      1.0  0.88758  0.45025  0.82803  1.0000
  C   C557      1.0  0.59200  0.44365  0.54966  1.0000
  C   C558      1.0  0.59526  0.42186  0.57171  1.0000
  C   C559      1.0  0.80863  0.37946  0.61295  1.0000
  H   H541      1.0  0.59757  0.42610  0.59498  1.0000
  N   N46       1.0  0.98062  0.57549  0.00061  1.0000
  C   C560      1.0  0.98144  0.50674  0.02095  1.0000
  H   H542      1.0  0.59188  0.46455  0.55615  1.0000
  H   H543      1.0  0.83652  0.50844  0.73807  1.0000
  C   C561      1.0  0.82489  0.44046  0.55539  1.0000
  C   C562      1.0  0.80819  0.42982  0.75469  1.0000
  H   H544      1.0  0.96884  0.38960  0.63380  1.0000
  H   H545      1.0  0.77017  0.40580  0.75647  1.0000
  S   S193      1.0  0.50856  0.52308  0.92853  1.0000
  C   C563      1.0  0.97348  0.45527  0.79734  1.0000
  C   C564      1.0  0.78106  0.47212  0.72606  1.0000
  C   C565      1.0  0.96978  0.62358  0.90946  1.0000
  H   H546      1.0  0.52823  0.44882  0.64996  1.0000
  H   H547      1.0  0.54263  0.33978  0.83561  1.0000
  H   H548      1.0  0.95490  0.39767  0.86521  1.0000
  H   H549      1.0  0.66485  0.46586  0.56715  1.0000
  C   C566      1.0  0.95051  0.57183  0.00412  1.0000
  C   C567      1.0  0.50946  0.62964  0.89173  1.0000
  C   C568      1.0  0.88930  0.41974  0.55671  1.0000
  H   H550      1.0  0.55252  0.33303  0.75408  1.0000
  H   H551      1.0  0.54611  0.64978  0.90414  1.0000
  H   H552      1.0  0.94097  0.59209  0.00528  1.0000
  C   C569      1.0  0.87121  0.37613  0.54256  1.0000
  C   C570      1.0  0.87902  0.39278  0.56516  1.0000
  N   N47       1.0  0.81187  0.39697  0.58388  1.0000
  H   H553      1.0  0.57038  0.38180  0.74858  1.0000
  H   H554      1.0  0.86240  0.35562  0.54923  1.0000
  H   H555      1.0  0.87624  0.38503  0.58907  1.0000
  C   C571      1.0  0.97584  0.38579  0.70571  1.0000
  C   C572      1.0  0.52832  0.38465  0.62551  1.0000
  C   C573      1.0  0.52159  0.38889  0.71457  1.0000
  C   C574      1.0  0.52666  0.41710  0.71590  1.0000
  C   C575      1.0  0.96659  0.40075  0.97002  1.0000
  H   H556      1.0  0.97324  0.62244  0.83878  1.0000
  C   C576      1.0  0.53978  0.33862  0.77502  1.0000
  H   H557      1.0  0.53833  0.37524  0.71265  1.0000
  C   C577      1.0  0.77769  0.39300  0.68831  1.0000
  C   C578      1.0  0.77735  0.41821  0.67071  1.0000
  C   C579      1.0  0.75221  0.42833  0.66261  1.0000
  C   C580      1.0  0.72732  0.41327  0.67189  1.0000
  C   C581      1.0  0.72773  0.38788  0.68904  1.0000
  C   C582      1.0  0.75286  0.37782  0.69725  1.0000
  H   H558      1.0  0.75196  0.44801  0.64935  1.0000
  H   H559      1.0  0.70866  0.37612  0.69628  1.0000
  H   H560      1.0  0.75298  0.35829  0.71085  1.0000
  Fe  Fe99      1.0  0.88751  0.45126  0.69808  1.0000
  S   S194      1.0  0.87904  0.40949  0.72315  1.0000
  S   S195      1.0  0.89378  0.49042  0.72089  1.0000
  Fe  Fe100     1.0  0.88879  0.42903  0.63484  1.0000
  S   S196      1.0  0.89544  0.44285  0.58423  1.0000
  Fe  Fe101     1.0  0.84958  0.40310  0.68783  1.0000
  S   S197      1.0  0.85519  0.44624  0.66565  1.0000
  S   S198      1.0  0.92170  0.43843  0.66490  1.0000
  Fe  Fe102     1.0  0.94466  0.50901  0.88222  1.0000
  H   H561      1.0  0.93762  0.42888  0.79634  1.0000
  S   S199      1.0  0.90705  0.49273  0.86255  1.0000
  Fe  Fe103     1.0  0.96819  0.51002  0.94430  1.0000
  C   C583      1.0  0.49995  0.38081  0.62407  1.0000
  H   H562      1.0  0.88344  0.44820  0.77245  1.0000
  H   H563      1.0  0.83641  0.49990  0.69902  1.0000
  H   H564      1.0  0.99339  0.35265  0.92742  1.0000
  C   C584      1.0  0.82167  0.45527  0.74510  1.0000
  S   S200      1.0  0.94701  0.54149  0.91570  1.0000
  S   S201      1.0  0.96167  0.47679  0.91357  1.0000
  C   C585      1.0  0.50431  0.43433  0.71917  1.0000
  C   C586      1.0  0.80496  0.38643  0.55762  1.0000
  H   H565      1.0  0.74565  0.44360  0.73091  1.0000
  C   C587      1.0  0.58316  0.39785  0.81945  1.0000
  H   H566      1.0  0.81606  0.35855  0.60948  1.0000
  H   H567      1.0  0.95613  0.60564  0.90973  1.0000
  H   H568      1.0  0.84321  0.45824  0.74840  1.0000
  H   H569      1.0  0.95786  0.42511  0.71045  1.0000
  H   H570      1.0  0.79632  0.43012  0.66383  1.0000
  C   C588      1.0  0.90096  0.48913  0.75961  1.0000
  C   C589      1.0  0.91335  0.51230  0.77034  1.0000
  C   C590      1.0  0.91690  0.51297  0.80168  1.0000
  C   C591      1.0  0.90718  0.49078  0.82264  1.0000
  C   C592      1.0  0.89524  0.46741  0.81185  1.0000
  C   C593      1.0  0.89271  0.46631  0.78035  1.0000
  H   H571      1.0  0.91975  0.53004  0.75444  1.0000
  H   H572      1.0  0.92585  0.53118  0.80985  1.0000
  C   C594      1.0  0.97702  0.39975  0.86542  1.0000
  C   C595      1.0  0.95927  0.64844  0.91873  1.0000
  H   H573      1.0  0.79774  0.36514  0.55809  1.0000
  N   N48       1.0  0.97465  0.40746  0.78807  1.0000
  H   H574      1.0  0.78662  0.37778  0.62255  1.0000
  H   H575      1.0  0.99183  0.43469  0.63837  1.0000
  C   C596      1.0  0.56931  0.38028  0.77339  1.0000
  C   C597      1.0  0.80823  0.40258  0.52950  1.0000
  C   C598      1.0  0.52562  0.65258  0.89738  1.0000
  C   C599      1.0  0.66443  0.44694  0.55585  1.0000
  H   H576      1.0  0.56912  0.37293  0.86145  1.0000
  C   C600      1.0  0.81839  0.42972  0.52841  1.0000
  C   C601      1.0  0.58338  0.40027  0.78755  1.0000
  C   C602      1.0  0.52046  0.42987  0.64203  1.0000
  H   H577      1.0  0.97704  0.44348  0.86788  1.0000
  H   H578      1.0  0.54235  0.36855  0.61985  1.0000
  C   C603      1.0  0.82133  0.42375  0.58313  1.0000
  H   H579      1.0  0.50801  0.45617  0.72045  1.0000
  H   H580      1.0  0.82723  0.43206  0.60378  1.0000
  H   H581      1.0  0.80887  0.51917  0.71656  1.0000
  H   H582      1.0  0.59455  0.41280  0.83074  1.0000
  C   C604      1.0  0.98950  0.42567  0.86750  1.0000
  H   H583      1.0  0.94214  0.38434  0.77192  1.0000
  C   C605      1.0  0.95995  0.43016  0.79397  1.0000
  H   H584      1.0  0.95512  0.65163  0.85032  1.0000
  S   S202      1.0  0.52290  0.59678  0.89627  1.0000
  C   C606      1.0  0.97664  0.41400  0.70921  1.0000
  H   H585      1.0  0.83367  0.46124  0.55470  1.0000
  H   H586      1.0  0.66732  0.37779  0.57103  1.0000
  H   H587      1.0  0.49560  0.38274  0.80963  1.0000
  C   C607      1.0  0.97018  0.64456  0.83216  1.0000
  H   H588      1.0  0.52376  0.57714  0.02004  1.0000
  H   H589      1.0  0.52750  0.43782  0.95055  1.0000
  C   C608      1.0  0.76687  0.44699  0.73560  1.0000
  C   C609      1.0  0.50814  0.65242  0.98666  1.0000
  H   H590      1.0  0.62602  0.34341  0.82641  1.0000
  C   C610      1.0  0.66058  0.44748  0.52462  1.0000
  C   C611      1.0  0.99119  0.39190  0.63061  1.0000
  H   H591      1.0  0.52351  0.64009  0.99682  1.0000
  H   H592      1.0  0.93759  0.64941  0.92654  1.0000
  C   C612      1.0  0.56853  0.37582  0.83674  1.0000
  C   C613      1.0  0.89319  0.42937  0.52555  1.0000
  S   S203      1.0  0.95652  0.50192  0.99540  1.0000
  C   C614      1.0  0.82302  0.50222  0.72064  1.0000
  H   H593      1.0  0.95249  0.37152  0.80891  1.0000
  H   H594      1.0  0.54088  0.40879  0.88104  1.0000
  H   H595      1.0  0.51811  0.36204  0.88870  1.0000
  C   C615      1.0  0.95993  0.38121  0.78558  1.0000
  H   H596      1.0  0.63517  0.34396  0.76966  1.0000
  H   H597      1.0  0.59466  0.41728  0.77368  1.0000
  H   H598      1.0  0.95570  0.43931  0.98830  1.0000
  Fe  Fe104     1.0  0.98943  0.55129  0.89143  1.0000
  H   H599      1.0  0.94318  0.56150  0.98462  1.0000
  N   N49       1.0  0.55484  0.35889  0.79052  1.0000
  C   C616      1.0  0.53854  0.40935  0.63458  1.0000
  H   H600      1.0  0.81925  0.41306  0.76489  1.0000
  C   C617      1.0  0.51867  0.40637  0.88335  1.0000
  H   H601      1.0  0.77041  0.48826  0.71421  1.0000
  S   S204      1.0  0.51972  0.46236  0.87665  1.0000
  H   H602      1.0  0.94672  0.39073  0.97811  1.0000
  H   H603      1.0  0.82087  0.38780  0.63037  1.0000
  N   N50       1.0  0.98643  0.38693  0.95395  1.0000
  C   C618      1.0  0.98121  0.35805  0.94871  1.0000
  N   N51       1.0  0.80802  0.47609  0.73128  1.0000
  C   C619      1.0  0.59273  0.38970  0.53301  1.0000
  C   C620      1.0  0.55379  0.35685  0.82189  1.0000
  H   H604      1.0  0.97339  0.36666  0.77361  1.0000
  C   C621      1.0  0.66609  0.39754  0.55797  1.0000
  H   H605      1.0  0.98379  0.57794  0.95158  1.0000
  S   S205      1.0  0.97665  0.34413  0.86353  1.0000
  C   C622      1.0  0.97156  0.42809  0.97604  1.0000
  S   S206      1.0  0.98536  0.52152  0.85528  1.0000
  H   H606      1.0  0.98692  0.34440  0.96845  1.0000
  C   C623      1.0  0.50065  0.40137  0.96098  1.0000
  H   H607      1.0  0.59307  0.36881  0.52647  1.0000
  H   H608      1.0  0.52027  0.34714  0.76827  1.0000
  H   H609      1.0  0.51673  0.38763  0.95410  1.0000
  H   H610      1.0  0.50957  0.60300  0.96604  1.0000
  C   C624      1.0  0.50696  0.42967  0.95919  1.0000
  H   H611      1.0  0.50782  0.43114  0.81695  1.0000
  H   H612      1.0  0.96134  0.64643  0.80981  1.0000
  H   H613      1.0  0.96176  0.47315  0.80232  1.0000
  C   C625      1.0  0.50288  0.42976  0.88258  1.0000
  H   H614      1.0  0.66996  0.42102  0.59691  1.0000
  C   C626      1.0  0.66724  0.42178  0.57258  1.0000
  C   C627      1.0  0.99467  0.57867  0.97183  1.0000
  H   H615      1.0  0.49740  0.47733  0.81682  1.0000
  C   C628      1.0  0.62033  0.32914  0.78222  1.0000
  C   C629      1.0  0.61526  0.32868  0.81432  1.0000
  H   H616      1.0  0.95410  0.91619  0.22330  1.0000
  C   C630      1.0  0.96083  0.84944  0.31572  1.0000
  S   S207      1.0  0.60982  0.93563  0.36562  1.0000
  C   C631      1.0  0.50503  0.77400  0.06801  1.0000
  Fe  Fe105     1.0  0.60867  0.95441  0.45020  1.0000
  S   S208      1.0  0.61068  0.91104  0.43756  1.0000
  S   S209      1.0  0.60744  0.96683  0.49868  1.0000
  Fe  Fe106     1.0  0.64166  0.92854  0.39888  1.0000
  S   S210      1.0  0.67819  0.90145  0.39282  1.0000
  Fe  Fe107     1.0  0.57888  0.92205  0.40575  1.0000
  S   S211      1.0  0.54285  0.89360  0.40008  1.0000
  H   H617      1.0  0.90343  0.89001  0.51658  1.0000
  C   C632      1.0  0.71986  0.88876  0.47494  1.0000
  Fe  Fe108     1.0  0.84853  0.89710  0.46213  1.0000
  S   S212      1.0  0.85406  0.93989  0.43928  1.0000
  Fe  Fe109     1.0  0.86891  0.87169  0.40325  1.0000
  S   S213      1.0  0.87548  0.91266  0.37579  1.0000
  S   S214      1.0  0.87982  0.83141  0.38461  1.0000
  Fe  Fe110     1.0  0.89401  0.92570  0.41722  1.0000
  S   S215      1.0  0.93303  0.95212  0.41418  1.0000
  Fe  Fe111     1.0  0.83476  0.92226  0.40064  1.0000
  S   S216      1.0  0.80240  0.94675  0.37880  1.0000
  S   S217      1.0  0.89000  0.88416  0.44332  1.0000
  S   S218      1.0  0.82661  0.88010  0.42488  1.0000
  H   H618      1.0  0.67635  0.89168  0.47096  1.0000
  S   S219      1.0  0.96034  0.83180  0.18138  1.0000
  H   H619      1.0  0.98264  0.97954  0.28040  1.0000
  C   C633      1.0  0.95606  0.73076  0.06552  1.0000
  S   S220      1.0  0.94023  0.76697  0.19358  1.0000
  C   C634      1.0  0.99184  0.66398  0.22765  1.0000
  Fe  Fe112     1.0  0.96602  0.79395  0.15670  1.0000
  S   S221      1.0  0.95592  0.79700  0.10760  1.0000
  Fe  Fe113     1.0  0.93826  0.80445  0.22013  1.0000
  S   S222      1.0  0.90084  0.82412  0.24174  1.0000
  C   C635      1.0  0.98144  0.79689  0.07636  1.0000
  H   H620      1.0  0.82786  0.79906  0.35639  1.0000
  C   C636      1.0  0.88968  0.83112  0.34498  1.0000
  C   C637      1.0  0.88603  0.85390  0.32452  1.0000
  C   C638      1.0  0.89089  0.85204  0.29272  1.0000
  C   C639      1.0  0.89982  0.82754  0.28127  1.0000
  C   C640      1.0  0.90490  0.80522  0.30170  1.0000
  C   C641      1.0  0.89958  0.80694  0.33353  1.0000
  H   H621      1.0  0.87819  0.87250  0.33302  1.0000
  H   H622      1.0  0.88688  0.86931  0.27691  1.0000
  H   H623      1.0  0.91158  0.78618  0.29295  1.0000
  H   H624      1.0  0.90239  0.78922  0.34927  1.0000
  C   C642      1.0  0.51268  0.90943  0.39065  1.0000
  C   C643      1.0  0.51185  0.93803  0.38516  1.0000
  C   C644      1.0  0.80880  0.88911  0.32896  1.0000
  H   H625      1.0  0.84733  0.94590  0.50231  1.0000
  H   H626      1.0  0.98967  0.87094  0.42463  1.0000
  C   C645      1.0  0.98687  0.94894  0.13472  1.0000
  H   H627      1.0  0.53001  0.95088  0.38658  1.0000
  N   N52       1.0  0.98926  0.85990  0.31615  1.0000
  H   H628      1.0  0.94587  0.89401  0.41804  1.0000
  C   C646      1.0  0.50175  0.77775  0.03663  1.0000
  C   C647      1.0  0.71243  0.91470  0.38912  1.0000
  C   C648      1.0  0.71907  0.94265  0.38131  1.0000
  C   C649      1.0  0.74679  0.95226  0.37807  1.0000
  C   C650      1.0  0.76786  0.93412  0.38332  1.0000
  C   C651      1.0  0.76111  0.90629  0.39176  1.0000
  C   C652      1.0  0.73353  0.89658  0.39422  1.0000
  H   H629      1.0  0.70292  0.95672  0.37719  1.0000
  H   H630      1.0  0.92486  0.73284  0.03392  1.0000
  H   H631      1.0  0.77709  0.89211  0.39579  1.0000
  H   H632      1.0  0.72843  0.87494  0.40027  1.0000
  S   S223      1.0  0.83269  0.88739  0.51199  1.0000
  H   H633      1.0  0.52674  0.97694  0.30313  1.0000
  H   H634      1.0  0.50284  0.73250  0.12880  1.0000
  C   C653      1.0  0.94655  0.73055  0.03649  1.0000
  H   H635      1.0  0.57084  0.93582  0.29594  1.0000
  H   H636      1.0  0.60511  0.98830  0.25159  1.0000
  C   C654      1.0  0.74535  0.90326  0.47167  1.0000
  H   H637      1.0  0.98775  0.97269  0.41838  1.0000
  S   S224      1.0  0.97627  0.79579  0.24325  1.0000
  H   H638      1.0  0.61603  0.98556  0.30572  1.0000
  H   H639      1.0  0.51807  0.75812  0.07622  1.0000
  C   C655      1.0  0.97250  0.66903  0.16989  1.0000
  H   H640      1.0  0.93670  0.94240  0.48402  1.0000
  H   H641      1.0  0.97387  0.98826  0.36287  1.0000
  H   H642      1.0  0.81432  0.84551  0.36849  1.0000
  H   H643      1.0  0.94147  0.73340  0.08535  1.0000
  C   C656      1.0  0.96442  0.90621  0.41959  1.0000
  H   H644      1.0  0.51979  0.92874  0.22439  1.0000
  H   H645      1.0  0.79059  0.93219  0.45057  1.0000
  H   H646      1.0  0.95796  0.99078  0.32789  1.0000
  H   H647      1.0  0.49627  0.97237  0.21527  1.0000
  H   H648      1.0  0.95156  0.91154  0.11878  1.0000
  H   H649      1.0  0.95170  0.80157  0.04353  1.0000
  S   S225      1.0  0.57371  0.96378  0.42227  1.0000
  C   C657      1.0  0.55647  0.93399  0.31739  1.0000
  H   H650      1.0  0.49628  0.87324  0.12765  1.0000
  S   S226      1.0  0.97822  0.97075  0.21279  1.0000
  C   C658      1.0  0.82132  0.85593  0.29136  1.0000
  H   H651      1.0  0.95979  0.86258  0.11074  1.0000
  S   S227      1.0  0.50240  0.81799  0.17193  1.0000
  H   H652      1.0  0.63445  0.91501  0.49374  1.0000
  H   H653      1.0  0.75190  0.97382  0.37142  1.0000
  H   H654      1.0  0.49969  0.88234  0.16618  1.0000
  S   S228      1.0  0.51629  0.74218  0.19264  1.0000
  H   H655      1.0  0.90938  0.96424  0.49692  1.0000
  H   H656      1.0  0.83413  0.82570  0.26000  1.0000
  H   H657      1.0  0.95975  0.82664  0.31981  1.0000
  C   C659      1.0  0.63469  0.92070  0.51690  1.0000
  H   H658      1.0  0.67969  0.94202  0.45703  1.0000
  C   C660      1.0  0.97664  0.69262  0.18544  1.0000
  H   H659      1.0  0.83802  0.78899  0.30179  1.0000
  H   H660      1.0  0.97403  0.87035  0.22205  1.0000
  C   C661      1.0  0.49781  0.92834  0.22278  1.0000
  H   H661      1.0  0.71851  0.86677  0.48122  1.0000
  C   C662      1.0  0.98656  0.69015  0.21428  1.0000
  H   H662      1.0  0.76376  0.89225  0.47582  1.0000
  H   H663      1.0  0.56083  0.91514  0.33189  1.0000
  C   C663      1.0  0.69805  0.93105  0.46147  1.0000
  H   H664      1.0  0.77884  0.95254  0.48158  1.0000
  H   H665      1.0  0.96805  0.95044  0.15099  1.0000
  H   H666      1.0  0.95319  0.85526  0.29312  1.0000
  H   H667      1.0  0.52110  0.89947  0.13381  1.0000
  C   C664      1.0  0.98810  0.95047  0.41945  1.0000
  C   C665      1.0  0.99279  0.72712  0.09959  1.0000
  C   C666      1.0  0.69614  0.90276  0.46950  1.0000
  N   N53       1.0  0.81647  0.86148  0.32145  1.0000
  C   C667      1.0  0.51416  0.90859  0.30879  1.0000
  C   C668      1.0  0.77408  0.94560  0.45918  1.0000
  N   N54       1.0  0.74715  0.93085  0.46271  1.0000
  C   C669      1.0  0.72388  0.94488  0.45814  1.0000
  H   H668      1.0  0.94653  0.85794  0.33360  1.0000
  C   C670      1.0  0.82888  0.82971  0.28383  1.0000
  H   H669      1.0  0.98413  0.96035  0.11235  1.0000
  H   H670      1.0  0.56050  0.95171  0.33089  1.0000
  C   C671      1.0  0.51557  0.95742  0.30292  1.0000
  H   H671      1.0  0.98332  0.86907  0.36307  1.0000
  C   C672      1.0  0.91586  0.94263  0.49682  1.0000
  H   H672      1.0  0.77465  0.96368  0.44187  1.0000
  N   N55       1.0  0.52792  0.93329  0.30992  1.0000
  C   C673      1.0  0.99325  0.93845  0.21303  1.0000
  C   C674      1.0  0.50010  0.89059  0.14178  1.0000
  H   H673      1.0  0.82011  0.87197  0.27296  1.0000
  C   C675      1.0  0.97617  0.91458  0.21858  1.0000
  S   S229      1.0  0.49979  0.87243  0.23257  1.0000
  C   C676      1.0  0.98931  0.89317  0.42302  1.0000
  Fe  Fe114     1.0  0.98052  0.76042  0.21332  1.0000
  H   H674      1.0  0.90103  0.93167  0.48403  1.0000
  S   S230      1.0  0.64138  0.97169  0.41331  1.0000
  H   H675      1.0  0.51886  0.69721  0.09431  1.0000
  H   H676      1.0  0.53903  0.69095  0.17874  1.0000
  H   H677      1.0  0.78601  0.89043  0.33147  1.0000
  N   N56       1.0  0.98345  0.72822  0.06881  1.0000
  C   C677      1.0  0.96374  0.93492  0.41811  1.0000
  C   C678      1.0  0.81796  0.84116  0.34461  1.0000
  C   C679      1.0  0.50291  0.70819  0.20079  1.0000
  H   H678      1.0  0.81668  0.89427  0.35075  1.0000
  H   H679      1.0  0.97218  0.71267  0.17518  1.0000
  C   C680      1.0  0.83107  0.80906  0.30731  1.0000
  C   C681      1.0  0.97316  0.79880  0.04672  1.0000
  H   H680      1.0  0.72523  0.96675  0.45114  1.0000
  H   H681      1.0  0.81777  0.90518  0.31095  1.0000
  C   C682      1.0  0.51878  0.68651  0.19099  1.0000
  C   C683      1.0  0.82535  0.81470  0.33791  1.0000
  Fe  Fe115     1.0  0.60635  0.97716  0.38378  1.0000
  H   H682      1.0  0.96087  0.95751  0.34840  1.0000
  C   C684      1.0  0.97617  0.87591  0.11709  1.0000
  H   H683      1.0  0.50686  0.94499  0.14368  1.0000
  H   H684      1.0  0.52418  0.88943  0.31354  1.0000
  C   C685      1.0  0.98743  0.88857  0.21758  1.0000
  H   H685      1.0  0.96452  0.67090  0.14776  1.0000
  C   C686      1.0  0.97164  0.90349  0.12180  1.0000
  C   C687      1.0  0.50347  0.68322  0.10752  1.0000
  H   H686      1.0  0.97991  0.73984  0.11487  1.0000
  N   N57       1.0  0.99214  0.92003  0.13043  1.0000
  C   C688      1.0  0.97146  0.97793  0.34160  1.0000
  S   S231      1.0  0.99397  0.71944  0.23340  1.0000
  H   H687      1.0  0.99158  0.70554  0.11002  1.0000
  S   S232      1.0  0.87711  0.91269  0.66444  1.0000
  S   S233      1.0  0.81784  0.89851  0.72898  1.0000
  Fe  Fe116     1.0  0.91583  0.92320  0.68501  1.0000
  S   S234      1.0  0.95299  0.89768  0.67746  1.0000
  H   H688      1.0  0.75091  0.97075  0.71915  1.0000
  Fe  Fe117     1.0  0.66390  0.91694  0.70284  1.0000
  S   S235      1.0  0.66693  0.87537  0.68459  1.0000
  S   S236      1.0  0.69909  0.94356  0.71522  1.0000
  Fe  Fe118     1.0  0.60361  0.92174  0.69082  1.0000
  S   S237      1.0  0.60230  0.88122  0.67079  1.0000
  S   S238      1.0  0.56731  0.94908  0.69364  1.0000
  Fe  Fe119     1.0  0.62490  0.86664  0.71058  1.0000
  S   S239      1.0  0.60699  0.82650  0.73442  1.0000
  Fe  Fe120     1.0  0.64389  0.89401  0.64677  1.0000
  S   S240      1.0  0.65604  0.88589  0.59756  1.0000
  S   S241      1.0  0.62373  0.90664  0.73235  1.0000
  S   S242      1.0  0.64342  0.93606  0.66330  1.0000
  C   C689      1.0  0.92488  0.93308  0.58071  1.0000
  S   S243      1.0  0.53617  0.74932  0.92339  1.0000
  S   S244      1.0  0.96235  0.70377  0.92589  1.0000
  H   H689      1.0  0.60855  0.75331  0.75146  1.0000
  S   S245      1.0  0.52519  0.81251  0.94111  1.0000
  H   H690      1.0  0.75586  0.86979  0.61360  1.0000
  Fe  Fe121     1.0  0.54378  0.79220  0.90044  1.0000
  S   S246      1.0  0.58461  0.81039  0.87819  1.0000
  Fe  Fe122     1.0  0.87714  0.95752  0.64921  1.0000
  H   H691      1.0  0.58063  0.87796  0.60816  1.0000
  C   C690      1.0  0.55214  0.96676  0.61139  1.0000
  H   H692      1.0  0.56724  0.97007  0.62823  1.0000
  C   C691      1.0  0.64523  0.90280  0.53916  1.0000
  C   C692      1.0  0.51704  0.90465  0.89342  1.0000
  C   C693      1.0  0.64456  0.90952  0.56965  1.0000
  H   H693      1.0  0.70294  0.93371  0.64171  1.0000
  S   S247      1.0  0.86801  0.97362  0.60192  1.0000
  H   H694      1.0  0.50085  0.87164  0.69074  1.0000
  C   C694      1.0  0.63415  0.93461  0.57754  1.0000
  N   N58       1.0  0.97631  0.95916  0.78724  1.0000
  H   H695      1.0  0.63365  0.94008  0.60086  1.0000
  C   C695      1.0  0.59759  0.82669  0.77401  1.0000
  C   C696      1.0  0.61433  0.84045  0.79231  1.0000
  C   C697      1.0  0.60957  0.83608  0.82446  1.0000
  C   C698      1.0  0.58767  0.81856  0.83830  1.0000
  C   C699      1.0  0.56992  0.80618  0.81999  1.0000
  C   C700      1.0  0.57506  0.81003  0.78786  1.0000
  H   H696      1.0  0.63190  0.85313  0.78171  1.0000
  H   H697      1.0  0.62338  0.84566  0.83859  1.0000
  H   H698      1.0  0.55321  0.79239  0.83046  1.0000
  H   H699      1.0  0.56220  0.79924  0.77369  1.0000
  C   C701      1.0  0.55659  0.94293  0.56402  1.0000
  C   C702      1.0  0.50841  0.68076  0.98965  1.0000
  H   H700      1.0  0.58842  0.71514  0.86050  1.0000
  H   H701      1.0  0.81122  0.93492  0.65647  1.0000
  C   C703      1.0  0.50365  0.87861  0.89986  1.0000
  C   C704      1.0  0.51533  0.67908  0.89454  1.0000
  H   H702      1.0  0.94838  0.89552  0.88400  1.0000
  H   H703      1.0  0.97665  0.69786  0.84023  1.0000
  H   H704      1.0  0.96403  0.94837  0.70480  1.0000
  S   S248      1.0  0.91783  0.96724  0.66612  1.0000
  H   H705      1.0  0.86107  0.97926  0.53791  1.0000
  C   C705      1.0  0.56289  0.91983  0.54821  1.0000
  C   C706      1.0  0.84077  0.91193  0.53712  1.0000
  C   C707      1.0  0.54490  0.87109  0.82927  1.0000
  C   C708      1.0  0.62378  0.94554  0.52497  1.0000
  H   H706      1.0  0.52789  0.69657  0.89904  1.0000
  C   C709      1.0  0.84783  0.93924  0.52625  1.0000
  C   C710      1.0  0.85638  0.94984  0.57767  1.0000
  H   H707      1.0  0.51488  0.97270  0.69032  1.0000
  S   S249      1.0  0.96950  0.84156  0.88556  1.0000
  N   N59       1.0  0.82914  0.97658  0.79719  1.0000
  C   C711      1.0  0.84066  0.90383  0.56851  1.0000
  C   C712      1.0  0.84861  0.92271  0.58871  1.0000
  C   C713      1.0  0.85546  0.95818  0.54651  1.0000
  H   H708      1.0  0.58149  0.89164  0.84155  1.0000
  H   H709      1.0  0.83506  0.88275  0.57707  1.0000
  H   H710      1.0  0.84876  0.91618  0.61272  1.0000
  H   H711      1.0  0.57773  0.87872  0.55192  1.0000
  C   C714      1.0  0.57165  0.89634  0.56414  1.0000
  C   C715      1.0  0.53032  0.90520  0.69291  1.0000
  C   C716      1.0  0.53439  0.93374  0.69245  1.0000
  H   H712      1.0  0.79623  0.89796  0.62459  1.0000
  H   H713      1.0  0.55096  0.96145  0.55111  1.0000
  N   N60       1.0  0.55883  0.94254  0.59489  1.0000
  H   H714      1.0  0.54741  0.89194  0.69489  1.0000
  C   C717      1.0  0.78506  0.91109  0.72388  1.0000
  C   C718      1.0  0.78077  0.93932  0.72222  1.0000
  C   C719      1.0  0.75422  0.94891  0.71988  1.0000
  C   C720      1.0  0.73189  0.93041  0.71849  1.0000
  C   C721      1.0  0.73622  0.90220  0.71946  1.0000
  C   C722      1.0  0.76272  0.89256  0.72257  1.0000
  C   C723      1.0  0.98639  0.87424  0.88199  1.0000
  H   H715      1.0  0.71909  0.88780  0.71851  1.0000
  H   H716      1.0  0.76590  0.87067  0.72404  1.0000
  N   N61       1.0  0.77228  0.93118  0.63909  1.0000
  C   C724      1.0  0.74650  0.94130  0.64352  1.0000
  C   C725      1.0  0.77578  0.90589  0.62832  1.0000
  C   C726      1.0  0.72335  0.92579  0.63759  1.0000
  C   C727      1.0  0.75306  0.88987  0.62205  1.0000
  C   C728      1.0  0.72669  0.89994  0.62676  1.0000
  C   C729      1.0  0.79655  0.94784  0.64452  1.0000
  H   H717      1.0  0.74353  0.96124  0.65230  1.0000
  H   H718      1.0  0.50197  0.86437  0.00345  1.0000
  N   N62       1.0  0.91609  0.92976  0.52820  1.0000
  H   H719      1.0  0.96603  0.91922  0.81030  1.0000
  H   H720      1.0  0.92822  0.96710  0.54611  1.0000
  C   C730      1.0  0.97646  0.67229  0.91683  1.0000
  C   C731      1.0  0.55334  0.90404  0.77432  1.0000
  S   S250      1.0  0.51791  0.75579  0.01120  1.0000
  H   H721      1.0  0.89320  0.96337  0.83821  1.0000
  C   C732      1.0  0.98309  0.93786  0.70127  1.0000
  C   C733      1.0  0.91844  0.90503  0.58730  1.0000
  C   C734      1.0  0.89972  0.98332  0.79210  1.0000
  H   H722      1.0  0.90521  0.86772  0.56903  1.0000
  C   C735      1.0  0.62403  0.95268  0.55519  1.0000
  S   S251      1.0  0.51887  0.96087  0.88554  1.0000
  H   H723      1.0  0.97112  0.94184  0.88100  1.0000
  H   H724      1.0  0.93014  0.94553  0.59880  1.0000
  C   C736      1.0  0.53111  0.88484  0.78013  1.0000
  C   C737      1.0  0.56662  0.91933  0.61084  1.0000
  C   C738      1.0  0.99227  0.79631  0.02118  1.0000
  Fe  Fe123     1.0  0.51363  0.76980  0.96188  1.0000
  C   C739      1.0  0.97064  0.89768  0.88229  1.0000
  H   H725      1.0  0.51559  0.86042  0.90117  1.0000
  Fe  Fe124     1.0  0.89324  0.97416  0.71063  1.0000
  S   S252      1.0  0.96084  0.97954  0.92511  1.0000
  H   H726      1.0  0.58881  0.92148  0.79233  1.0000
  H   H727      1.0  0.55667  0.91662  0.75258  1.0000
  C   C740      1.0  0.50389  0.89369  0.69077  1.0000
  C   C741      1.0  0.92369  0.94517  0.55084  1.0000
  H   H728      1.0  0.56257  0.73961  0.85194  1.0000
  C   C742      1.0  0.49709  0.86999  0.97960  1.0000
  H   H729      1.0  0.91912  0.89550  0.61048  1.0000
  H   H730      1.0  0.70884  0.88773  0.62209  1.0000
  H   H731      1.0  0.83208  0.94646  0.76455  1.0000
  H   H732      1.0  0.82495  0.93255  0.80346  1.0000
  H   H733      1.0  0.79093  0.96460  0.65931  1.0000
  H   H734      1.0  0.89202  0.96581  0.78161  1.0000
  H   H735      1.0  0.56818  0.91905  0.63533  1.0000
  H   H736      1.0  0.79820  0.94947  0.78445  1.0000
  S   S253      1.0  0.50550  0.79196  0.87637  1.0000
  C   C743      1.0  0.91077  0.88945  0.56406  1.0000
  C   C744      1.0  0.50171  0.92839  0.89239  1.0000
  H   H737      1.0  0.55291  0.98580  0.59552  1.0000
  H   H738      1.0  0.61574  0.97194  0.56152  1.0000
  H   H739      1.0  0.80712  0.95726  0.62230  1.0000
  N   N63       1.0  0.52690  0.86899  0.80758  1.0000
  H   H740      1.0  0.53124  0.96374  0.62413  1.0000
  C   C745      1.0  0.96523  0.72758  0.01082  1.0000
  H   H741      1.0  0.64913  0.78305  0.75845  1.0000
  H   H742      1.0  0.66012  0.79082  0.81123  1.0000
  C   C746      1.0  0.57142  0.90674  0.79662  1.0000
  C   C747      1.0  0.97495  0.90214  0.97768  1.0000
  H   H743      1.0  0.53931  0.90645  0.88984  1.0000
  C   C748      1.0  0.51189  0.95060  0.69063  1.0000
  C   C749      1.0  0.99267  0.85924  0.96004  1.0000
  H   H744      1.0  0.54220  0.85780  0.85055  1.0000
  Fe  Fe125     1.0  0.99029  0.74206  0.91677  1.0000
  C   C750      1.0  0.82062  0.95004  0.78700  1.0000
  H   H745      1.0  0.95537  0.89134  0.98532  1.0000
  C   C751      1.0  0.64281  0.77726  0.80798  1.0000
  Fe  Fe126     1.0  0.85499  0.92472  0.70830  1.0000
  N   N64       1.0  0.60282  0.74938  0.82928  1.0000
  C   C752      1.0  0.59706  0.74438  0.80034  1.0000
  C   C753      1.0  0.62559  0.76523  0.83335  1.0000
  C   C754      1.0  0.61382  0.75616  0.77446  1.0000
  S   S254      1.0  0.85247  0.96914  0.69179  1.0000
  C   C755      1.0  0.63673  0.77281  0.77837  1.0000
  C   C756      1.0  0.58454  0.73732  0.85597  1.0000
  H   H746      1.0  0.57898  0.73187  0.79712  1.0000
  H   H747      1.0  0.62990  0.76965  0.85626  1.0000
  H   H748      1.0  0.52385  0.69053  0.00176  1.0000
  H   H749      1.0  0.79772  0.95378  0.72345  1.0000
  S   S255      1.0  0.89393  0.93049  0.73094  1.0000
  C   C757      1.0  0.56728  0.89011  0.82425  1.0000
  H   H750      1.0  0.58764  0.74790  0.87694  1.0000
  C   C758      1.0  0.90045  0.98193  0.82409  1.0000
  H   H751      1.0  0.99469  0.82442  0.79604  1.0000
  C   C759      1.0  0.98342  0.91288  0.68781  1.0000
  H   H752      1.0  0.65323  0.88339  0.53296  1.0000
  H   H753      1.0  0.96132  0.94074  0.99366  1.0000
  C   C760      1.0  0.57340  0.89597  0.59569  1.0000
  C   C761      1.0  0.50378  0.84867  0.81344  1.0000
  H   H754      1.0  0.51735  0.88271  0.76246  1.0000
  S   S256      1.0  0.98189  0.77849  0.94369  1.0000
  H   H755      1.0  0.82577  0.96181  0.84468  1.0000
  H   H756      1.0  0.51656  0.87465  0.96433  1.0000
  H   H757      1.0  0.51303  0.92316  0.97467  1.0000
  H   H758      1.0  0.95815  0.72735  0.98815  1.0000
  Fe  Fe127     1.0  0.49595  0.75068  0.90281  1.0000
  H   H759      1.0  0.97323  0.92059  0.76881  1.0000
  H   H760      1.0  0.95198  0.97563  0.75292  1.0000
  H   H761      1.0  0.51121  0.82787  0.80941  1.0000
  C   C762      1.0  0.83046  0.97930  0.82781  1.0000
  H   H762      1.0  0.97217  0.85439  0.95236  1.0000
  C   C763      1.0  0.99312  0.72514  0.01438  1.0000
  H   H763      1.0  0.50219  0.98215  0.74910  1.0000
  Fe  Fe128     1.0  0.99347  0.80475  0.89958  1.0000
  H   H764      1.0  0.98544  0.79764  0.99868  1.0000
  H   H765      1.0  0.94113  0.93242  0.78636  1.0000
  C   C764      1.0  0.96793  0.97971  0.76762  1.0000
  C   C765      1.0  0.98349  0.92393  0.88102  1.0000
  C   C766      1.0  0.97819  0.92997  0.98257  1.0000
  C   C767      1.0  0.90980  0.90220  0.53442  1.0000
  H   H766      1.0  0.51244  0.98620  0.80318  1.0000
  C   C768      1.0  0.96364  0.93142  0.78822  1.0000
  H   H767      1.0  0.99471  0.84725  0.98226  1.0000
  H   H768      1.0  0.56235  0.92070  0.52347  1.0000
