data_image0
_chemical_formula_structural       FeS2FeS2FeSFeS3HC4FeS2FeHFeSFeSCSCH2CNH2C7SC6H5CH3NH2CSCH2SH2SCHC3HCNHCH2CSH3CHCH2C6H4C6H4CHSCHCHCHC2NH3CH2SC2HC3HCNH4CH3NC6H6CH2CH2CH3C3H3NHC2H2CHCHCFeSCFeSH3FeSCSC2HSNH2CHSHFeS2FeSFeSFeS3CHCFeS2FeSFeS2C7H5C3SCH2CHSCHCH7C6HNCH2C2HSH2FeHCHSC3HC3H4NFeC6HC2HFeHCSCH2NHC4H3CHC2HCHFeCHCHSH3CHCHC2FeCH2CNHCHCHCNC3H2S2CHCHC2SHCH2SC2H3CHS2CHCHCH2FeS2FeS2FeSFeS3CSNFeS2FeSFeS3HC3H2CH2CHC5SH2C6H4C4HCH2CHC6HSH2CFeNH2NH3C3HC2H3NC6HSH4CH2SC4H3SC2H2CHCSCHC2H3FeH4CH3C6H3NC2H2C2H4NC3H2CSCH2SC2H2C2SH4CH2CHCHCH2FeSHFeCH4SC2FeS4CHSHSH3FeSH3Fe2C4SH2CHCS3HCH3SC3SC3HNCHC2NC2H2C3HCSH3NSHSHCHC2FeCHSC2HSCH3CHCHCH2CSH3CHCSC5HFeC2HFeSHC3Fe2C2FeH3FeSHCH2NFeH2CFeSCH2CH2C2H2C2HSCNC2FeH4C2FeCHCSHCHCNCHSCFeS2FeS2FeSFeS3HCFeS2FeS2FeSFeS3HCHC3HNHC3HC2H2C6H9CHCHCNCHC3HCH3C2H2NHC4HC3H2C8H4C6H4C2H3CH3C5HCH3NCSH2CH2C2NCH4CHCH2CH5C2H2NHSFeCH4FeHCS2C2HCHC3SCFeS2FeSFeSFeS4HCFeS2C2H4C6H4CHCHCH2CHCH2C3HC3H3C5H3CHSH2SHC2H2CH3CNCNSH2CSFeCNH3CHFeSC2HC2HC2SFeH2SH3CHFeCH3CHFeCHC2H2NSCNC2HC2FeCHC2SCH5FeHFeC2HSFeH6FeS2FeS2FeSFeS5NFeS2FeSFeS3C4H4NC2HC4H3C6H4C6H2C8H8C5HC3FeH2C2HNC2NH2CH3CHCHCHCHCSH2CNHC2H3CH8C3SC3HSH3CH2C2HCSHC2HCH2NH2NC2HC3NH3C2SHC5H2CH2CHSC2HNCH2CFeCHS2H2CSH2FeS4CHC2SCS2FeSH2C7H2C4HC2FeC2H3CHCHC3HSCHCSHCHC2HFeS3HSCH3C2H6FeHNFeHSH2NFeSH2C3HSHFeC3H2CS2CHC2NFeCSH2CFeHCH3NCSHCFeSCHCSFe2H5C5HC2HFeH2C2HSC2H3SCHC2HS2HCFeS2FeS2FeSFeS3CH2SCFeS2FeSH3NCHCFeC2HSC2SCFeC3HC2SC3HC2H2CH2CHC3H2NCH3C2HCNHC4H3C2H2C2H2CHC6H4C6HCH4C4HCH2CHNHSH3NH2CH2NHC6H3CH2CHCHC3H2CH4CSCHSCHCH2CSCH3CH3S2CHC3HSC2HCHFeCSHSH3CFeS2HSFeSFeCS3HCFeS4H2NC7H4C3HC2H5C2HC3SCH3C4H3FeHSHCFe2CHC3N3HCHSH5FeH2CSCH2CSC2S2CHC3FeNCHFe2CHC3HSH2CH4CHFeCHFeSCH2CFeH2FeS2FeS2FeSFeS3HSCFeS2FeSFeS3C5H6C5H2NC6H4CH2C3H4C6HCH4CH2CHSC5H6SCH3C2NC2H2SH2NH2C2H2C2HC2HNC2HNC3H2C3HCHCH3C3HC2HCHCHCH5C3H2NHCHSC2HCHSH2FeCHCHCHC2S2NS3FeS4FeSCSHCNHFeSHSH2C5H3CHCSCH3C2H2C2HFeC3S2H3C2FeCHFeH2CHCH2C2HCHSCHSCH2CSFeCHCH3NC6H8SH4CFeCHFeCH2C5SHFeHC3FeCSFeCFe2H2SH2SHCHCHFeNCSCSC2HCNHSHCSH2C3H2C2NCHCH2CHC2FeCFeS2FeS2FeSFeS3CHFeS2FeS2FeSFeS3C2HCHC3H3C3H2C7HCH3NCHCHC2H3CNC2H2C3HSHC4H2C2HC2H5C6H4C6HCH2NHCHC3HCHCHC3H4CH5C2HCNC2H2SHCHCNH2CH2NH4C3H4NCHNH6CFeSHCSCSCFeSCSCNC3FeCHCSFe2S2FeSFeSFeS3C2SFeS2FeSFeHSNC6H5CHC2H2CSHFeH4CHFeSHC6H3CH3C3SH3CH2CH6CFeCFeCHCH6C2HSC2NC6H9CH3SCSCHC6NSHC2H2SCH2SHFeC2HC2H2CHCHC2H3CSC2HC2NHC3H2FeS2FeS2FeSFeS3HSNFeS2FeSFeS3C3HC12SHFeC6H4C2H3CHSNHC6H5C3HCFeH2C5H5C3HCH2CHCHNC2H2NHCNSCH3CH4C2H2CH2CHC2H3C2H3CNC2HC2H3CHCSH4CHC3H4C4H2CHCHCSCHCSH6SH3CSHCSC2NHCS2HSCHC2H2S2FeS4FeSNC3HCFeSHSCFeSFeC2H3FeSH2Fe2H4CH2CFeCHC3HCFeHSC2H2SFeH3S2C2SCFeSCHC3NH3NC2SCFeCFeH6CH2CHC2SC2HCH2CHSH3SHCHC2FeC2HCFeC2H4SHC2HCHCSCHC4HCNH2CSH2CH2
_chemical_formula_sum              "Fe192 S384 H1152 C1152 N96"
_cell_length_a       48.5192
_cell_length_b       48.976
_cell_length_c       59.1947
_cell_angle_alpha    89.8037
_cell_angle_beta     90.0236
_cell_angle_gamma    119.883

_space_group_name_H-M_alt    "P 1"
_space_group_IT_number       1

loop_
  _space_group_symop_operation_xyz
  'x, y, z'

loop_
  _atom_site_type_symbol
  _atom_site_label
  _atom_site_symmetry_multiplicity
  _atom_site_fract_x
  _atom_site_fract_y
  _atom_site_fract_z
  _atom_site_occupancy
  Fe  Fe1       1.0  0.31168  0.36628  0.09578  1.0000
  S   S1        1.0  0.26994  0.31730  0.09218  1.0000
  S   S2        1.0  0.32697  0.40090  0.06717  1.0000
  Fe  Fe2       1.0  0.32320  0.35761  0.14474  1.0000
  S   S3        1.0  0.28235  0.30849  0.14497  1.0000
  S   S4        1.0  0.35125  0.37127  0.17701  1.0000
  Fe  Fe3       1.0  0.30128  0.30377  0.11175  1.0000
  S   S5        1.0  0.30468  0.25981  0.10880  1.0000
  Fe  Fe4       1.0  0.25547  0.32716  0.12581  1.0000
  S   S6        1.0  0.20693  0.31512  0.13895  1.0000
  S   S7        1.0  0.34402  0.35185  0.11257  1.0000
  S   S8        1.0  0.29512  0.37719  0.12821  1.0000
  H   H1        1.0  0.05883  0.36573  0.01800  1.0000
  C   C1        1.0  0.37411  0.24183  0.12784  1.0000
  C   C2        1.0  0.24088  0.22430  0.14868  1.0000
  C   C3        1.0  0.37941  0.30837  0.16100  1.0000
  C   C4        1.0  0.49015  0.38769  0.99480  1.0000
  Fe  Fe5       1.0  0.06151  0.31900  0.08816  1.0000
  S   S9        1.0  0.08241  0.36530  0.10597  1.0000
  S   S10       1.0  0.09445  0.30146  0.07628  1.0000
  Fe  Fe6       1.0  0.03633  0.34341  0.12510  1.0000
  H   H2        1.0  0.01709  0.41112  0.98067  1.0000
  Fe  Fe7       1.0  0.05606  0.37717  0.08021  1.0000
  S   S11       1.0  0.08031  0.41993  0.05785  1.0000
  Fe  Fe8       1.0  0.48413  0.29862  0.10766  1.0000
  S   S12       1.0  0.50314  0.34968  0.09991  1.0000
  C   C5        1.0  0.04394  0.38234  0.19835  1.0000
  S   S13       1.0  0.43864  0.27041  0.12751  1.0000
  C   C6        1.0  0.40044  0.29185  0.10819  1.0000
  H   H3        1.0  0.48121  0.36002  0.14259  1.0000
  H   H4        1.0  0.23607  0.05306  0.20310  1.0000
  C   C7        1.0  0.05740  0.43699  0.19495  1.0000
  N   N1        1.0  0.39229  0.27672  0.18507  1.0000
  H   H5        1.0  0.26605  0.21176  0.17288  1.0000
  H   H6        1.0  0.24754  0.22985  0.20593  1.0000
  C   C8        1.0  0.30747  0.48729  0.99227  1.0000
  C   C9        1.0  0.26485  0.43503  0.98735  1.0000
  C   C10       1.0  0.04219  0.37932  0.17485  1.0000
  C   C11       1.0  0.04763  0.40501  0.16132  1.0000
  C   C12       1.0  0.05494  0.43378  0.17141  1.0000
  C   C13       1.0  0.22022  0.24418  0.18548  1.0000
  C   C14       1.0  0.05190  0.41118  0.20835  1.0000
  S   S14       1.0  0.03377  0.34327  0.16296  1.0000
  C   C15       1.0  0.10772  0.41627  0.04053  1.0000
  C   C16       1.0  0.11994  0.43482  0.02103  1.0000
  C   C17       1.0  0.13925  0.42946  0.00604  1.0000
  C   C18       1.0  0.14666  0.40581  0.01073  1.0000
  C   C19       1.0  0.13456  0.38751  0.03026  1.0000
  C   C20       1.0  0.11531  0.39277  0.04511  1.0000
  H   H7        1.0  0.11382  0.45279  0.01723  1.0000
  H   H8        1.0  0.14816  0.44353  0.99090  1.0000
  H   H9        1.0  0.19038  0.21711  0.11765  1.0000
  H   H10       1.0  0.10588  0.37812  0.05994  1.0000
  H   H11       1.0  0.45640  0.35197  0.03676  1.0000
  C   C21       1.0  0.45908  0.37434  0.02992  1.0000
  H   H12       1.0  0.24917  0.21655  0.13436  1.0000
  H   H13       1.0  0.31833  0.26355  0.19651  1.0000
  H   H14       1.0  0.03102  0.39622  0.01757  1.0000
  N   N2        1.0  0.27558  0.46640  0.99068  1.0000
  H   H15       1.0  0.33353  0.32068  0.02192  1.0000
  H   H16       1.0  0.41074  0.34803  0.00105  1.0000
  C   C22       1.0  0.25058  0.22160  0.17044  1.0000
  S   S15       1.0  0.01705  0.29571  0.10933  1.0000
  C   C23       1.0  0.33710  0.33171  0.21339  1.0000
  H   H17       1.0  0.48320  0.44058  0.18067  1.0000
  H   H18       1.0  0.03966  0.36254  0.20888  1.0000
  S   S16       1.0  0.03726  0.33196  0.06138  1.0000
  H   H19       1.0  0.21219  0.25221  0.19980  1.0000
  H   H20       1.0  0.33591  0.43708  0.98502  1.0000
  S   S17       1.0  0.17017  0.39776  0.99235  1.0000
  C   C24       1.0  0.21100  0.24660  0.16348  1.0000
  H   H21       1.0  0.50040  0.41301  0.15897  1.0000
  C   C25       1.0  0.32582  0.34536  0.19778  1.0000
  C   C26       1.0  0.34126  0.27318  0.18827  1.0000
  C   C27       1.0  0.21178  0.23956  0.12245  1.0000
  H   H22       1.0  0.35488  0.49353  0.99178  1.0000
  C   C28       1.0  0.34942  0.29516  0.17088  1.0000
  N   N3        1.0  0.46110  0.37422  0.00522  1.0000
  H   H23       1.0  0.42953  0.28313  0.20697  1.0000
  C   C29       1.0  0.24020  0.23169  0.18892  1.0000
  H   H24       1.0  0.23117  0.24497  0.11009  1.0000
  H   H25       1.0  0.28497  0.34774  0.18617  1.0000
  C   C30       1.0  0.34264  0.26372  0.11268  1.0000
  S   S18       1.0  0.35894  0.34986  0.97895  1.0000
  H   H26       1.0  0.38583  0.32555  0.14750  1.0000
  H   H27       1.0  0.43857  0.37690  0.03539  1.0000
  H   H28       1.0  0.24793  0.30780  0.21336  1.0000
  C   C31       1.0  0.34456  0.23959  0.12395  1.0000
  H   H29       1.0  0.36937  0.30853  0.09577  1.0000
  C   C32       1.0  0.28634  0.42392  0.98542  1.0000
  H   H30       1.0  0.37521  0.22322  0.13698  1.0000
  H   H31       1.0  0.32312  0.21917  0.12996  1.0000
  C   C33       1.0  0.17621  0.31172  0.12113  1.0000
  C   C34       1.0  0.15264  0.31725  0.13010  1.0000
  C   C35       1.0  0.12768  0.31459  0.11645  1.0000
  C   C36       1.0  0.12565  0.30550  0.09387  1.0000
  C   C37       1.0  0.14901  0.29958  0.08498  1.0000
  C   C38       1.0  0.17450  0.30314  0.09845  1.0000
  H   H32       1.0  0.15375  0.32373  0.14767  1.0000
  H   H33       1.0  0.10965  0.31895  0.12348  1.0000
  H   H34       1.0  0.14738  0.29230  0.06756  1.0000
  H   H35       1.0  0.19239  0.29860  0.09140  1.0000
  C   C39       1.0  0.33695  0.38692  0.04306  1.0000
  C   C40       1.0  0.33132  0.35600  0.04228  1.0000
  C   C41       1.0  0.33819  0.34470  0.02255  1.0000
  C   C42       1.0  0.35089  0.36434  0.00365  1.0000
  C   C43       1.0  0.35706  0.39542  0.00457  1.0000
  C   C44       1.0  0.34993  0.40664  0.02423  1.0000
  H   H36       1.0  0.32156  0.34070  0.05681  1.0000
  H   H37       1.0  0.05923  0.45371  0.16097  1.0000
  H   H38       1.0  0.36741  0.41081  0.99015  1.0000
  H   H39       1.0  0.35476  0.43070  0.02496  1.0000
  C   C45       1.0  0.43513  0.35742  0.96926  1.0000
  H   H40       1.0  0.10371  0.36230  0.97424  1.0000
  S   S19       1.0  0.06798  0.47328  0.20760  1.0000
  C   C46       1.0  0.12564  0.41924  0.19989  1.0000
  H   H41       1.0  0.42198  0.31208  0.10211  1.0000
  C   C47       1.0  0.08013  0.34778  0.98240  1.0000
  H   H42       1.0  0.33279  0.30241  0.16529  1.0000
  C   C48       1.0  0.40215  0.26775  0.11988  1.0000
  H   H43       1.0  0.18805  0.37633  0.10257  1.0000
  C   C49       1.0  0.11339  0.38057  0.17078  1.0000
  C   C50       1.0  0.12518  0.41184  0.17711  1.0000
  N   N4        1.0  0.10218  0.36443  0.20967  1.0000
  H   H44       1.0  0.40275  0.24283  0.19928  1.0000
  H   H45       1.0  0.22837  0.45897  0.99462  1.0000
  H   H46       1.0  0.48098  0.39411  0.03733  1.0000
  C   C51       1.0  0.29374  0.33694  0.19800  1.0000
  H   H47       1.0  0.27795  0.39921  0.98224  1.0000
  H   H48       1.0  0.11182  0.37437  0.15307  1.0000
  S   S20       1.0  0.49903  0.28791  0.07439  1.0000
  C   C52       1.0  0.02940  0.39770  0.98112  1.0000
  C   C53       1.0  0.41516  0.26750  0.19292  1.0000
  H   H49       1.0  0.04631  0.40280  0.14313  1.0000
  C   C54       1.0  0.36326  0.26439  0.19535  1.0000
  C   C55       1.0  0.37068  0.28997  0.10480  1.0000
  C   C56       1.0  0.43380  0.35902  0.99279  1.0000
  H   H50       1.0  0.19574  0.25669  0.16093  1.0000
  C   C57       1.0  0.49238  0.38628  0.97134  1.0000
  N   N5        1.0  0.22169  0.23707  0.14541  1.0000
  H   H51       1.0  0.25357  0.48946  0.97493  1.0000
  H   H52       1.0  0.13911  0.36846  0.03361  1.0000
  H   H53       1.0  0.20614  0.25892  0.12112  1.0000
  H   H54       1.0  0.13304  0.43019  0.16435  1.0000
  C   C58       1.0  0.05320  0.37230  0.00190  1.0000
  H   H55       1.0  0.35713  0.24781  0.20921  1.0000
  H   H56       1.0  0.42125  0.42184  0.19047  1.0000
  H   H57       1.0  0.22566  0.41184  0.09756  1.0000
  N   N6        1.0  0.21560  0.37443  0.07509  1.0000
  C   C59       1.0  0.19161  0.36616  0.05976  1.0000
  C   C60       1.0  0.24242  0.37352  0.06928  1.0000
  C   C61       1.0  0.19378  0.35583  0.03816  1.0000
  C   C62       1.0  0.24532  0.36319  0.04786  1.0000
  C   C63       1.0  0.22077  0.35423  0.03225  1.0000
  C   C64       1.0  0.21329  0.38572  0.09753  1.0000
  H   H58       1.0  0.17028  0.36683  0.06437  1.0000
  H   H59       1.0  0.26175  0.38071  0.08124  1.0000
  H   H60       1.0  0.17456  0.34895  0.02611  1.0000
  H   H61       1.0  0.26653  0.36219  0.04346  1.0000
  H   H62       1.0  0.22260  0.34599  0.01563  1.0000
  H   H63       1.0  0.22411  0.37754  0.11058  1.0000
  C   C65       1.0  0.40070  0.29880  0.16833  1.0000
  H   H64       1.0  0.36193  0.33818  0.21330  1.0000
  H   H65       1.0  0.23958  0.41849  0.98582  1.0000
  C   C66       1.0  0.32953  0.47688  0.99091  1.0000
  H   H66       1.0  0.40336  0.44567  0.19594  1.0000
  H   H67       1.0  0.42367  0.30855  0.16015  1.0000
  C   C67       1.0  0.49577  0.35630  0.15535  1.0000
  H   H68       1.0  0.48386  0.35246  0.17199  1.0000
  H   H69       1.0  0.06672  0.32512  0.97326  1.0000
  H   H70       1.0  0.13395  0.44340  0.20487  1.0000
  C   C68       1.0  0.31886  0.44508  0.98715  1.0000
  C   C69       1.0  0.25312  0.47818  0.99135  1.0000
  C   C70       1.0  0.10162  0.35698  0.18735  1.0000
  H   H71       1.0  0.44371  0.45963  0.20434  1.0000
  H   H72       1.0  0.49702  0.33499  0.15081  1.0000
  H   H73       1.0  0.06826  0.47444  0.96925  1.0000
  N   N7        1.0  0.06239  0.36479  0.98211  1.0000
  H   H74       1.0  0.25945  0.49581  0.00501  1.0000
  C   C71       1.0  0.27275  0.31429  0.21336  1.0000
  C   C72       1.0  0.03705  0.38928  0.00174  1.0000
  H   H75       1.0  0.43100  0.26863  0.17892  1.0000
  H   H76       1.0  0.09084  0.33259  0.18209  1.0000
  C   C73       1.0  0.41990  0.43818  0.20281  1.0000
  H   H77       1.0  0.08450  0.34248  0.99991  1.0000
  C   C74       1.0  0.50712  0.44490  0.18336  1.0000
  H   H78       1.0  0.51186  0.39940  0.00462  1.0000
  C   C75       1.0  0.11394  0.39508  0.21606  1.0000
  Fe  Fe9       1.0  0.08193  0.47296  0.24367  1.0000
  S   S21       1.0  0.12081  0.46167  0.24946  1.0000
  C   C76       1.0  0.50150  0.02369  0.45910  1.0000
  Fe  Fe10      1.0  0.07064  0.47527  0.29355  1.0000
  S   S22       1.0  0.10778  0.46312  0.30305  1.0000
  H   H79       1.0  0.04357  0.44175  0.42009  1.0000
  H   H80       1.0  0.25292  0.19391  0.43028  1.0000
  H   H81       1.0  0.49931  0.48652  0.34507  1.0000
  Fe  Fe11      1.0  0.08697  0.42765  0.27509  1.0000
  S   S23       1.0  0.07915  0.37829  0.27785  1.0000
  C   C77       1.0  0.36610  0.38991  0.25001  1.0000
  S   S24       1.0  0.04724  0.43696  0.26791  1.0000
  C   C78       1.0  0.20418  0.13905  0.32559  1.0000
  C   C79       1.0  0.43068  0.33820  0.30374  1.0000
  H   H82       1.0  0.30339  0.28813  0.32977  1.0000
  S   S25       1.0  0.13609  0.05690  0.43869  1.0000
  N   N8        1.0  0.21593  0.00797  0.25033  1.0000
  H   H83       1.0  0.22893  0.17017  0.39509  1.0000
  H   H84       1.0  0.48154  0.38416  0.26244  1.0000
  C   C80       1.0  0.11992  0.12126  0.32082  1.0000
  H   H85       1.0  0.51222  0.01689  0.41191  1.0000
  S   S26       1.0  0.20234  0.12550  0.43914  1.0000
  H   H86       1.0  0.25461  0.11556  0.29677  1.0000
  Fe  Fe12      1.0  0.29761  0.22506  0.30607  1.0000
  S   S27       1.0  0.32326  0.20343  0.28861  1.0000
  S   S28       1.0  0.29028  0.22598  0.34341  1.0000
  Fe  Fe13      1.0  0.27946  0.24444  0.26260  1.0000
  S   S29       1.0  0.30261  0.22393  0.24150  1.0000
  Fe  Fe14      1.0  0.28071  0.18287  0.26552  1.0000
  S   S30       1.0  0.25458  0.13436  0.24991  1.0000
  Fe  Fe15      1.0  0.34263  0.24666  0.26635  1.0000
  S   S31       1.0  0.39154  0.27726  0.25148  1.0000
  S   S32       1.0  0.25385  0.20166  0.28452  1.0000
  S   S33       1.0  0.32060  0.26989  0.28598  1.0000
  C   C81       1.0  0.47473  0.39204  0.37870  1.0000
  H   H87       1.0  0.19655  0.07958  0.23748  1.0000
  C   C82       1.0  0.13163  0.09765  0.28927  1.0000
  Fe  Fe16      1.0  0.40570  0.33699  0.42534  1.0000
  S   S34       1.0  0.38707  0.36685  0.41124  1.0000
  S   S35       1.0  0.41607  0.31169  0.39813  1.0000
  Fe  Fe17      1.0  0.41824  0.40272  0.43675  1.0000
  S   S36       1.0  0.44916  0.45406  0.42678  1.0000
  Fe  Fe18      1.0  0.35014  0.34464  0.43837  1.0000
  S   S37       1.0  0.29872  0.32087  0.42777  1.0000
  S   S38       1.0  0.43981  0.37430  0.44896  1.0000
  C   C83       1.0  0.03953  0.31501  0.27904  1.0000
  C   C84       1.0  0.32566  0.25083  0.35777  1.0000
  C   C85       1.0  0.32434  0.26521  0.37780  1.0000
  C   C86       1.0  0.35224  0.28475  0.38973  1.0000
  C   C87       1.0  0.38149  0.28910  0.38218  1.0000
  C   C88       1.0  0.38287  0.27495  0.36200  1.0000
  C   C89       1.0  0.35500  0.25612  0.34963  1.0000
  H   H88       1.0  0.30173  0.26130  0.38417  1.0000
  H   H89       1.0  0.35080  0.29568  0.40513  1.0000
  H   H90       1.0  0.40549  0.27847  0.35597  1.0000
  H   H91       1.0  0.35618  0.24512  0.33412  1.0000
  H   H92       1.0  0.32462  0.29730  0.23993  1.0000
  C   C90       1.0  0.22658  0.23182  0.43954  1.0000
  C   C91       1.0  0.24732  0.26082  0.42908  1.0000
  C   C92       1.0  0.27410  0.28391  0.44060  1.0000
  S   S39       1.0  0.49555  0.47434  0.28191  1.0000
  C   C93       1.0  0.33294  0.22639  0.42705  1.0000
  H   H93       1.0  0.24131  0.14105  0.39439  1.0000
  H   H94       1.0  0.24237  0.26553  0.41214  1.0000
  C   C94       1.0  0.24883  0.16606  0.39063  1.0000
  H   H95       1.0  0.15822  0.14603  0.34427  1.0000
  S   S40       1.0  0.25642  0.26882  0.24564  1.0000
  C   C95       1.0  0.10847  0.04453  0.33170  1.0000
  H   H96       1.0  0.16162  0.02955  0.25741  1.0000
  C   C96       1.0  0.08777  0.33924  0.22661  1.0000
  H   H97       1.0  0.37946  0.37523  0.28050  1.0000
  H   H98       1.0  0.47603  0.04886  0.45484  1.0000
  H   H99       1.0  0.17897  0.10503  0.28828  1.0000
  H   H100      1.0  0.43712  0.40437  0.27135  1.0000
  H   H101      1.0  0.09827  0.08390  0.38539  1.0000
  H   H102      1.0  0.22108  0.14136  0.31207  1.0000
  H   H103      1.0  0.25761  0.28231  0.35175  1.0000
  C   C97       1.0  0.03533  0.02027  0.45892  1.0000
  C   C98       1.0  0.20119  0.07684  0.25499  1.0000
  C   C99       1.0  0.22774  0.10117  0.26585  1.0000
  C   C100      1.0  0.23385  0.09717  0.28838  1.0000
  C   C101      1.0  0.11012  0.10324  0.30115  1.0000
  C   C102      1.0  0.46177  0.36400  0.27040  1.0000
  H   H104      1.0  0.30833  0.18347  0.37891  1.0000
  N   N9        1.0  0.49357  0.42648  0.37706  1.0000
  C   C103      1.0  0.05362  0.48569  0.40518  1.0000
  H   H105      1.0  0.45180  0.38494  0.38730  1.0000
  H   H106      1.0  0.28059  0.07465  0.26837  1.0000
  C   C104      1.0  0.41050  0.31157  0.29087  1.0000
  C   C105      1.0  0.41614  0.31086  0.26776  1.0000
  H   H107      1.0  0.21950  0.06508  0.31680  1.0000
  S   S41       1.0  0.13316  0.12376  0.43651  1.0000
  H   H108      1.0  0.05997  0.31432  0.28567  1.0000
  H   H109      1.0  0.39118  0.29119  0.29897  1.0000
  Fe  Fe19      1.0  0.15786  0.10162  0.41831  1.0000
  H   H110      1.0  0.35866  0.31035  0.32545  1.0000
  C   C106      1.0  0.02678  0.02655  0.43779  1.0000
  H   H111      1.0  0.42678  0.33822  0.32172  1.0000
  S   S42       1.0  0.36749  0.31302  0.45141  1.0000
  C   C107      1.0  0.44189  0.33710  0.25757  1.0000
  C   C108      1.0  0.23222  0.22610  0.46177  1.0000
  C   C109      1.0  0.38770  0.38872  0.26497  1.0000
  H   H112      1.0  0.20565  0.21439  0.43074  1.0000
  C   C110      1.0  0.28575  0.32423  0.37137  1.0000
  C   C111      1.0  0.13436  0.06189  0.34602  1.0000
  C   C112      1.0  0.50438  0.47454  0.35849  1.0000
  H   H113      1.0  0.10305  0.12472  0.33065  1.0000
  H   H114      1.0  0.26600  0.32139  0.38172  1.0000
  H   H115      1.0  0.35768  0.21864  0.39982  1.0000
  H   H116      1.0  0.23990  0.02196  0.28204  1.0000
  N   N10       1.0  0.27782  0.18699  0.40321  1.0000
  Fe  Fe20      1.0  0.17641  0.14439  0.45907  1.0000
  C   C113      1.0  0.26264  0.05812  0.25689  1.0000
  C   C114      1.0  0.23953  0.02829  0.26450  1.0000
  C   C115      1.0  0.50189  0.46293  0.45102  1.0000
  C   C116      1.0  0.07510  0.05551  0.35598  1.0000
  C   C117      1.0  0.27583  0.19937  0.42343  1.0000
  C   C118      1.0  0.33470  0.21290  0.40677  1.0000
  H   H117      1.0  0.25283  0.17022  0.37216  1.0000
  C   C119      1.0  0.18115  0.04852  0.26636  1.0000
  C   C120      1.0  0.18778  0.04400  0.28861  1.0000
  H   H118      1.0  0.20336  0.12211  0.33849  1.0000
  Fe  Fe21      1.0  0.11421  0.08025  0.45848  1.0000
  H   H119      1.0  0.01463  0.34274  0.32264  1.0000
  C   C121      1.0  0.43023  0.42107  0.23924  1.0000
  S   S43       1.0  0.16496  0.10209  0.38073  1.0000
  C   C122      1.0  0.10103  0.07259  0.37057  1.0000
  H   H120      1.0  0.09916  0.34751  0.24342  1.0000
  H   H121      1.0  0.36022  0.40745  0.21814  1.0000
  N   N11       1.0  0.17219  0.12790  0.31656  1.0000
  H   H122      1.0  0.37496  0.35239  0.32326  1.0000
  C   C123      1.0  0.48895  0.47617  0.43647  1.0000
  C   C124      1.0  0.21406  0.06852  0.29965  1.0000
  C   C125      1.0  0.15119  0.13335  0.32839  1.0000
  C   C126      1.0  0.48716  0.44170  0.36022  1.0000
  H   H123      1.0  0.48773  0.43877  0.45646  1.0000
  H   H124      1.0  0.21373  0.16261  0.33351  1.0000
  H   H125      1.0  0.08558  0.09260  0.29561  1.0000
  C   C127      1.0  0.16271  0.11016  0.29731  1.0000
  H   H126      1.0  0.32004  0.36638  0.38839  1.0000
  C   C128      1.0  0.42002  0.40474  0.25972  1.0000
  C   C129      1.0  0.13087  0.07632  0.36531  1.0000
  H   H127      1.0  0.11191  0.03435  0.31656  1.0000
  C   C130      1.0  0.07890  0.04168  0.33639  1.0000
  H   H128      1.0  0.34080  0.37712  0.25366  1.0000
  Fe  Fe22      1.0  0.17809  0.08312  0.46151  1.0000
  C   C131      1.0  0.28365  0.29951  0.22824  1.0000
  H   H129      1.0  0.05395  0.41338  0.22645  1.0000
  C   C132      1.0  0.30333  0.21951  0.43552  1.0000
  H   H130      1.0  0.38336  0.33510  0.34752  1.0000
  S   S44       1.0  0.47997  0.39803  0.31022  1.0000
  H   H131      1.0  0.45529  0.43269  0.23505  1.0000
  H   H132      1.0  0.12404  0.08292  0.27433  1.0000
  H   H133      1.0  0.04137  0.04930  0.42988  1.0000
  C   C133      1.0  0.04203  0.34394  0.27350  1.0000
  H   H134      1.0  0.27847  0.09067  0.22888  1.0000
  C   C134      1.0  0.30672  0.19312  0.39500  1.0000
  H   H135      1.0  0.46877  0.42845  0.34791  1.0000
  C   C135      1.0  0.47407  0.02592  0.45649  1.0000
  C   C136      1.0  0.36482  0.33208  0.33510  1.0000
  Fe  Fe23      1.0  0.13743  0.49864  0.27645  1.0000
  C   C137      1.0  0.03092  0.47803  0.46028  1.0000
  H   H136      1.0  0.15731  0.06455  0.34186  1.0000
  H   H137      1.0  0.46992  0.38117  0.36162  1.0000
  C   C138      1.0  0.45620  0.36458  0.29355  1.0000
  N   N12       1.0  0.40892  0.42226  0.22469  1.0000
  H   H138      1.0  0.44644  0.33666  0.23974  1.0000
  C   C139      1.0  0.04177  0.50136  0.39220  1.0000
  H   H139      1.0  0.36546  0.37139  0.36601  1.0000
  C   C140      1.0  0.28024  0.27772  0.46255  1.0000
  H   H140      1.0  0.05228  0.05334  0.35976  1.0000
  C   C141      1.0  0.31619  0.34953  0.37516  1.0000
  N   N13       1.0  0.33719  0.32977  0.34692  1.0000
  C   C142      1.0  0.30721  0.30565  0.34237  1.0000
  C   C143      1.0  0.34178  0.35200  0.36266  1.0000
  C   C144      1.0  0.28110  0.30228  0.35471  1.0000
  H   H141      1.0  0.06207  0.33135  0.22833  1.0000
  H   H142      1.0  0.09043  0.31876  0.22184  1.0000
  S   S45       1.0  0.04694  0.02092  0.31767  1.0000
  S   S46       1.0  0.04439  0.48253  0.32181  1.0000
  C   C145      1.0  0.31595  0.30852  0.22845  1.0000
  H   H143      1.0  0.48737  0.38210  0.38837  1.0000
  C   C146      1.0  0.03434  0.45348  0.40951  1.0000
  H   H144      1.0  0.11341  0.40083  0.23368  1.0000
  C   C147      1.0  0.21482  0.01647  0.22844  1.0000
  C   C148      1.0  0.37722  0.40704  0.22987  1.0000
  S   S47       1.0  0.37870  0.38438  0.46244  1.0000
  H   H145      1.0  0.30163  0.22986  0.45126  1.0000
  C   C149      1.0  0.26145  0.06711  0.23468  1.0000
  H   H146      1.0  0.08926  0.48552  0.35504  1.0000
  H   H147      1.0  0.35456  0.24249  0.43598  1.0000
  S   S48       1.0  0.16576  0.00682  0.30184  1.0000
  C   C150      1.0  0.01686  0.49290  0.44865  1.0000
  C   C151      1.0  0.23749  0.04615  0.22030  1.0000
  H   H148      1.0  0.03380  0.39950  0.31693  1.0000
  H   H149      1.0  0.01714  0.36664  0.26015  1.0000
  H   H150      1.0  0.07731  0.49854  0.41232  1.0000
  C   C152      1.0  0.01538  0.34445  0.26478  1.0000
  H   H151      1.0  0.40504  0.46281  0.46704  1.0000
  S   S49       1.0  0.07183  0.49734  0.46713  1.0000
  S   S50       1.0  0.50957  0.48321  0.21720  1.0000
  C   C153      1.0  0.31670  0.23273  0.66107  1.0000
  H   H152      1.0  0.36081  0.33975  0.57670  1.0000
  C   C154      1.0  0.32582  0.27015  0.52439  1.0000
  H   H153      1.0  0.40447  0.48189  0.53798  1.0000
  C   C155      1.0  0.25826  0.14510  0.51255  1.0000
  H   H154      1.0  0.38736  0.19364  0.69102  1.0000
  H   H155      1.0  0.22584  0.39174  0.69046  1.0000
  Fe  Fe24      1.0  0.32459  0.40797  0.58563  1.0000
  S   S51       1.0  0.28448  0.38257  0.56137  1.0000
  S   S52       1.0  0.37589  0.43220  0.57527  1.0000
  Fe  Fe25      1.0  0.28069  0.38734  0.62587  1.0000
  S   S53       1.0  0.23679  0.35951  0.60507  1.0000
  S   S54       1.0  0.28071  0.39335  0.66328  1.0000
  Fe  Fe26      1.0  0.26626  0.34281  0.58657  1.0000
  S   S55       1.0  0.25415  0.29457  0.57345  1.0000
  Fe  Fe27      1.0  0.25943  0.40212  0.58222  1.0000
  S   S56       1.0  0.22919  0.42032  0.56621  1.0000
  S   S57       1.0  0.30824  0.36732  0.60952  1.0000
  S   S58       1.0  0.30137  0.43091  0.60443  1.0000
  C   C156      1.0  0.33545  0.32298  0.57304  1.0000
  S   S59       1.0  0.29820  0.10993  0.60143  1.0000
  N   N14       1.0  0.34518  0.47310  0.68111  1.0000
  Fe  Fe28      1.0  0.25475  0.15271  0.62510  1.0000
  S   S60       1.0  0.30480  0.17891  0.61261  1.0000
  S   S61       1.0  0.23425  0.18233  0.63761  1.0000
  Fe  Fe29      1.0  0.28621  0.14386  0.58450  1.0000
  S   S62       1.0  0.29638  0.16458  0.54969  1.0000
  Fe  Fe30      1.0  0.31108  0.14247  0.63106  1.0000
  S   S63       1.0  0.35238  0.15275  0.65329  1.0000
  S   S64       1.0  0.23540  0.11916  0.59599  1.0000
  S   S65       1.0  0.26261  0.11915  0.64643  1.0000
  H   H156      1.0  0.17820  0.02920  0.52361  1.0000
  C   C157      1.0  0.27166  0.13636  0.53006  1.0000
  C   C158      1.0  0.26497  0.10518  0.53192  1.0000
  C   C159      1.0  0.24529  0.08283  0.51595  1.0000
  H   H157      1.0  0.44465  0.46596  0.54448  1.0000
  H   H158      1.0  0.29611  0.06258  0.70408  1.0000
  C   C160      1.0  0.28479  0.19164  0.68773  1.0000
  H   H159      1.0  0.27568  0.09851  0.54531  1.0000
  H   H160      1.0  0.24128  0.05911  0.51689  1.0000
  C   C161      1.0  0.27382  0.23320  0.68135  1.0000
  H   H161      1.0  0.21984  0.17135  0.69925  1.0000
  C   C162      1.0  0.33374  0.06069  0.68615  1.0000
  C   C163      1.0  0.31506  0.07405  0.69194  1.0000
  C   C164      1.0  0.32022  0.10194  0.68142  1.0000
  C   C165      1.0  0.34457  0.11691  0.66545  1.0000
  C   C166      1.0  0.36353  0.10382  0.65990  1.0000
  S   S66       1.0  0.22877  0.26446  0.71564  1.0000
  H   H162      1.0  0.30560  0.11209  0.68585  1.0000
  H   H163      1.0  0.22753  0.47751  0.50866  1.0000
  C   C167      1.0  0.25255  0.26618  0.59267  1.0000
  C   C168      1.0  0.26009  0.24362  0.58498  1.0000
  C   C169      1.0  0.25613  0.21880  0.59909  1.0000
  C   C170      1.0  0.24337  0.21563  0.62077  1.0000
  C   C171      1.0  0.23641  0.23853  0.62866  1.0000
  C   C172      1.0  0.24145  0.26403  0.61478  1.0000
  H   H164      1.0  0.26797  0.24469  0.56776  1.0000
  H   H165      1.0  0.26131  0.20115  0.59273  1.0000
  H   H166      1.0  0.22646  0.23621  0.64539  1.0000
  H   H167      1.0  0.23531  0.28116  0.62084  1.0000
  C   C173      1.0  0.22455  0.45243  0.57478  1.0000
  C   C174      1.0  0.19642  0.45177  0.56850  1.0000
  C   C175      1.0  0.19075  0.47610  0.57472  1.0000
  C   C176      1.0  0.38672  0.18725  0.70867  1.0000
  H   H168      1.0  0.20203  0.25322  0.53560  1.0000
  C   C177      1.0  0.24759  0.47840  0.58699  1.0000
  H   H169      1.0  0.17855  0.43198  0.55901  1.0000
  H   H170      1.0  0.16856  0.01029  0.58450  1.0000
  C   C178      1.0  0.35078  0.44860  0.67807  1.0000
  H   H171      1.0  0.26953  0.47927  0.59181  1.0000
  C   C179      1.0  0.38305  0.40773  0.55764  1.0000
  C   C180      1.0  0.36504  0.39497  0.53805  1.0000
  C   C181      1.0  0.37249  0.37725  0.52322  1.0000
  C   C182      1.0  0.39737  0.37155  0.52829  1.0000
  C   C183      1.0  0.41480  0.38366  0.54818  1.0000
  C   C184      1.0  0.40805  0.40221  0.56261  1.0000
  H   H172      1.0  0.34586  0.39940  0.53405  1.0000
  S   S67       1.0  0.32700  0.02517  0.69846  1.0000
  H   H173      1.0  0.43393  0.37915  0.55223  1.0000
  H   H174      1.0  0.42203  0.41208  0.57774  1.0000
  C   C185      1.0  0.23745  0.12246  0.49723  1.0000
  Fe  Fe31      1.0  0.24893  0.08811  0.61575  1.0000
  N   N15       1.0  0.26737  0.20598  0.69227  1.0000
  H   H175      1.0  0.26342  0.16921  0.51106  1.0000
  H   H176      1.0  0.20256  0.23037  0.51207  1.0000
  N   N16       1.0  0.33258  0.29634  0.55994  1.0000
  H   H177      1.0  0.30329  0.26842  0.65690  1.0000
  H   H178      1.0  0.25941  0.43113  0.68967  1.0000
  H   H179      1.0  0.32265  0.26961  0.50623  1.0000
  C   C186      1.0  0.23565  0.30030  0.67817  1.0000
  C   C187      1.0  0.24768  0.32888  0.66632  1.0000
  C   C188      1.0  0.26632  0.35741  0.67754  1.0000
  H   H180      1.0  0.02278  0.43454  0.47537  1.0000
  C   C189      1.0  0.38434  0.15847  0.71455  1.0000
  C   C190      1.0  0.17878  0.02341  0.56846  1.0000
  H   H181      1.0  0.24217  0.32878  0.64862  1.0000
  H   H182      1.0  0.22440  0.42269  0.70566  1.0000
  H   H183      1.0  0.27942  0.16992  0.69625  1.0000
  N   N17       1.0  0.20436  0.21178  0.54419  1.0000
  C   C191      1.0  0.21323  0.19035  0.53799  1.0000
  C   C192      1.0  0.18960  0.20887  0.56449  1.0000
  C   C193      1.0  0.20755  0.16529  0.55232  1.0000
  C   C194      1.0  0.18338  0.18399  0.57918  1.0000
  C   C195      1.0  0.19252  0.16216  0.57305  1.0000
  C   C196      1.0  0.21212  0.23867  0.52931  1.0000
  H   H184      1.0  0.22508  0.19274  0.52196  1.0000
  S   S68       1.0  0.28350  0.49972  0.69498  1.0000
  H   H185      1.0  0.21518  0.14871  0.54748  1.0000
  H   H186      1.0  0.22268  0.38988  0.64943  1.0000
  H   H187      1.0  0.26217  0.04195  0.58547  1.0000
  H   H188      1.0  0.34772  0.43791  0.66155  1.0000
  C   C197      1.0  0.25501  0.00651  0.66861  1.0000
  H   H189      1.0  0.23830  0.25421  0.52834  1.0000
  H   H190      1.0  0.38385  0.14308  0.70126  1.0000
  S   S69       1.0  0.21874  0.03550  0.62180  1.0000
  C   C198      1.0  0.29868  0.24710  0.66570  1.0000
  C   C199      1.0  0.20252  0.45672  0.65119  1.0000
  C   C200      1.0  0.22221  0.49565  0.51377  1.0000
  C   C201      1.0  0.43582  0.45407  0.48845  1.0000
  H   H191      1.0  0.16296  0.03224  0.56241  1.0000
  H   H192      1.0  0.33569  0.24292  0.64870  1.0000
  H   H193      1.0  0.32527  0.33575  0.56382  1.0000
  S   S70       1.0  0.40695  0.34914  0.51025  1.0000
  C   C202      1.0  0.25913  0.24909  0.47319  1.0000
  C   C203      1.0  0.20537  0.41578  0.63061  1.0000
  H   H194      1.0  0.47439  0.44306  0.53190  1.0000
  H   H195      1.0  0.20263  0.40311  0.61497  1.0000
  C   C204      1.0  0.18197  0.01010  0.52903  1.0000
  H   H196      1.0  0.18882  0.44559  0.61642  1.0000
  C   C205      1.0  0.24228  0.50354  0.59267  1.0000
  S   S71       1.0  0.06595  0.05062  0.47468  1.0000
  C   C206      1.0  0.41352  0.46358  0.48415  1.0000
  H   H197      1.0  0.21756  0.46214  0.68576  1.0000
  C   C207      1.0  0.32818  0.24608  0.53529  1.0000
  C   C208      1.0  0.24305  0.30024  0.70103  1.0000
  H   H198      1.0  0.44415  0.44575  0.47458  1.0000
  H   H199      1.0  0.46085  0.42039  0.50654  1.0000
  H   H200      1.0  0.33485  0.22883  0.56715  1.0000
  Fe  Fe32      1.0  0.39885  0.35404  0.47348  1.0000
  H   H201      1.0  0.38433  0.48054  0.49905  1.0000
  H   H202      1.0  0.32631  0.22629  0.52577  1.0000
  H   H203      1.0  0.33926  0.27409  0.58879  1.0000
  H   H204      1.0  0.32204  0.31469  0.58917  1.0000
  C   C209      1.0  0.33397  0.48413  0.66204  1.0000
  H   H205      1.0  0.34551  0.48345  0.64601  1.0000
  H   H206      1.0  0.28779  0.37941  0.70916  1.0000
  H   H207      1.0  0.16859  0.47481  0.56996  1.0000
  C   C210      1.0  0.40211  0.47367  0.50203  1.0000
  C   C211      1.0  0.34807  0.48591  0.70211  1.0000
  C   C212      1.0  0.30980  0.20484  0.67216  1.0000
  C   C213      1.0  0.25167  0.01838  0.59235  1.0000
  C   C214      1.0  0.33309  0.24755  0.55857  1.0000
  C   C215      1.0  0.43623  0.46540  0.52742  1.0000
  H   H208      1.0  0.35847  0.36743  0.50816  1.0000
  H   H209      1.0  0.18864  0.14333  0.58462  1.0000
  H   H210      1.0  0.22091  0.27825  0.66956  1.0000
  N   N18       1.0  0.44668  0.45479  0.50986  1.0000
  C   C216      1.0  0.21677  0.40850  0.65011  1.0000
  C   C217      1.0  0.23097  0.09128  0.49883  1.0000
  H   H211      1.0  0.32607  0.31376  0.52849  1.0000
  H   H212      1.0  0.38242  0.11539  0.64759  1.0000
  C   C218      1.0  0.35783  0.07552  0.66999  1.0000
  C   C219      1.0  0.19789  0.43982  0.63132  1.0000
  H   H213      1.0  0.32342  0.19325  0.66856  1.0000
  H   H214      1.0  0.17274  0.18238  0.59561  1.0000
  H   H215      1.0  0.26347  0.24487  0.49042  1.0000
  H   H216      1.0  0.49279  0.46096  0.50526  1.0000
  N   N19       1.0  0.22037  0.42459  0.66977  1.0000
  C   C220      1.0  0.21381  0.44872  0.67040  1.0000
  C   C221      1.0  0.32800  0.29521  0.53707  1.0000
  C   C222      1.0  0.33557  0.27316  0.57068  1.0000
  H   H217      1.0  0.18365  0.22649  0.56982  1.0000
  H   H218      1.0  0.36280  0.41611  0.69392  1.0000
  C   C223      1.0  0.27337  0.35738  0.70044  1.0000
  S   S72       1.0  0.20422  0.06275  0.47995  1.0000
  C   C224      1.0  0.35929  0.43613  0.69631  1.0000
  H   H219      1.0  0.30781  0.46882  0.66030  1.0000
  H   H220      1.0  0.19769  0.47612  0.65163  1.0000
  S   S73       1.0  0.15477  0.10318  0.48286  1.0000
  C   C225      1.0  0.41356  0.47466  0.52381  1.0000
  C   C226      1.0  0.23303  0.41713  0.68990  1.0000
  H   H221      1.0  0.37234  0.06530  0.66542  1.0000
  H   H222      1.0  0.20259  0.04386  0.57232  1.0000
  C   C227      1.0  0.21359  0.50222  0.58664  1.0000
  C   C228      1.0  0.46990  0.44440  0.51363  1.0000
  S   S74       1.0  0.20536  0.19152  0.47640  1.0000
  H   H223      1.0  0.22664  0.12929  0.48412  1.0000
  H   H224      1.0  0.25938  0.24403  0.68440  1.0000
  H   H225      1.0  0.26177  0.02945  0.66143  1.0000
  H   H226      1.0  0.18529  0.48332  0.48896  1.0000
  C   C229      1.0  0.26215  0.32882  0.71207  1.0000
  H   H227      1.0  0.29100  0.02137  0.63302  1.0000
  H   H228      1.0  0.22371  0.00930  0.69326  1.0000
  C   C230      1.0  0.24050  0.19089  0.70797  1.0000
  H   H229      1.0  0.30058  0.29554  0.47165  1.0000
  C   C231      1.0  0.23046  0.00953  0.61051  1.0000
  H   H230      1.0  0.01625  0.04736  0.51016  1.0000
  C   C232      1.0  0.19830  0.49863  0.50292  1.0000
  H   H231      1.0  0.23330  0.20782  0.71418  1.0000
  H   H232      1.0  0.31544  0.01069  0.64950  1.0000
  Fe  Fe33      1.0  0.37908  0.38687  0.95191  1.0000
  S   S75       1.0  0.14370  0.39785  0.92922  1.0000
  H   H233      1.0  0.38548  0.30720  0.86270  1.0000
  Fe  Fe34      1.0  0.30772  0.24524  0.75488  1.0000
  C   C233      1.0  0.37359  0.33018  0.83649  1.0000
  H   H234      1.0  0.05559  0.43767  0.89008  1.0000
  H   H235      1.0  0.33372  0.45317  0.93074  1.0000
  H   H236      1.0  0.41091  0.43428  0.84364  1.0000
  H   H237      1.0  0.30640  0.14801  0.72500  1.0000
  S   S76       1.0  0.35244  0.40903  0.93714  1.0000
  C   C234      1.0  0.05834  0.44536  0.90746  1.0000
  C   C235      1.0  0.35747  0.45102  0.78061  1.0000
  Fe  Fe35      1.0  0.27975  0.26764  0.79161  1.0000
  S   S77       1.0  0.32969  0.27965  0.78348  1.0000
  S   S78       1.0  0.26746  0.26446  0.82854  1.0000
  S   S79       1.0  0.25756  0.23014  0.76498  1.0000
  S   S80       1.0  0.27977  0.30521  0.76997  1.0000
  C   C236      1.0  0.37910  0.35913  0.82793  1.0000
  H   H238      1.0  0.12424  0.40532  0.84090  1.0000
  S   S81       1.0  0.36911  0.36625  0.76201  1.0000
  H   H239      1.0  0.11254  0.47194  0.95002  1.0000
  S   S82       1.0  0.34617  0.39964  0.87125  1.0000
  H   H240      1.0  0.38997  0.47051  0.86599  1.0000
  H   H241      1.0  0.38138  0.41349  0.82276  1.0000
  H   H242      1.0  0.42250  0.42556  0.81667  1.0000
  Fe  Fe36      1.0  0.30217  0.04817  0.77567  1.0000
  S   S83       1.0  0.31430  0.09404  0.79295  1.0000
  H   H243      1.0  0.11111  0.42955  0.85507  1.0000
  H   H244      1.0  0.21244  0.05210  0.84807  1.0000
  H   H245      1.0  0.46602  0.36979  0.94031  1.0000
  Fe  Fe37      1.0  0.32865  0.31593  0.76065  1.0000
  Fe  Fe38      1.0  0.18655  0.40747  0.90885  1.0000
  C   C237      1.0  0.31409  0.14990  0.79014  1.0000
  C   C238      1.0  0.31072  0.12365  0.77821  1.0000
  C   C239      1.0  0.30694  0.12268  0.75474  1.0000
  C   C240      1.0  0.33514  0.47538  0.93422  1.0000
  S   S84       1.0  0.21957  0.42405  0.93838  1.0000
  H   H246      1.0  0.30453  0.10276  0.74529  1.0000
  H   H247      1.0  0.21771  0.32346  0.77167  1.0000
  C   C241      1.0  0.08709  0.45447  0.91876  1.0000
  H   H248      1.0  0.06448  0.03131  0.94329  1.0000
  C   C242      1.0  0.33319  0.39574  0.76962  1.0000
  S   S85       1.0  0.31262  0.28322  0.73089  1.0000
  S   S86       1.0  0.47817  0.41836  0.90772  1.0000
  S   S87       1.0  0.31819  0.20864  0.73988  1.0000
  H   H249      1.0  0.31223  0.47240  0.83321  1.0000
  C   C243      1.0  0.21627  0.42878  0.82847  1.0000
  H   H250      1.0  0.16068  0.36138  0.80320  1.0000
  H   H251      1.0  0.31708  0.15089  0.80829  1.0000
  H   H252      1.0  0.33522  0.06381  0.86812  1.0000
  S   S88       1.0  0.20093  0.42140  0.78317  1.0000
  C   C244      1.0  0.46464  0.37106  0.95852  1.0000
  C   C245      1.0  0.23083  0.35593  0.79951  1.0000
  C   C246      1.0  0.40392  0.41654  0.82999  1.0000
  S   S89       1.0  0.18826  0.46908  0.95078  1.0000
  C   C247      1.0  0.31668  0.33493  0.87327  1.0000
  C   C248      1.0  0.29890  0.30485  0.86362  1.0000
  C   C249      1.0  0.28885  0.30176  0.84110  1.0000
  H   H253      1.0  0.32494  0.33739  0.89053  1.0000
  N   N20       1.0  0.39923  0.38655  0.83884  1.0000
  C   C250      1.0  0.39009  0.42680  0.77456  1.0000
  H   H254      1.0  0.29343  0.28407  0.87345  1.0000
  C   C251      1.0  0.13204  0.42678  0.85132  1.0000
  C   C252      1.0  0.31434  0.17528  0.77870  1.0000
  N   N21       1.0  0.28520  0.04530  0.86670  1.0000
  C   C253      1.0  0.26155  0.03922  0.88192  1.0000
  C   C254      1.0  0.03820  0.38928  0.96101  1.0000
  H   H255      1.0  0.31142  0.02139  0.86529  1.0000
  H   H256      1.0  0.26787  0.32901  0.72968  1.0000
  C   C255      1.0  0.17164  0.48292  0.85178  1.0000
  C   C256      1.0  0.31281  0.04251  0.87335  1.0000
  C   C257      1.0  0.23511  0.04171  0.87550  1.0000
  H   H257      1.0  0.35917  0.48444  0.73732  1.0000
  C   C258      1.0  0.09659  0.01426  0.93585  1.0000
  S   S90       1.0  0.27093  0.03094  0.74511  1.0000
  H   H258      1.0  0.38811  0.22914  0.72140  1.0000
  H   H259      1.0  0.11730  0.03760  0.93611  1.0000
  H   H260      1.0  0.31378  0.03971  0.89195  1.0000
  N   N22       1.0  0.15687  0.45518  0.84011  1.0000
  S   S91       1.0  0.28027  0.45886  0.75143  1.0000
  H   H261      1.0  0.30722  0.42055  0.77514  1.0000
  S   S92       1.0  0.41663  0.44972  0.90527  1.0000
  H   H262      1.0  0.28755  0.32680  0.81163  1.0000
  C   C259      1.0  0.22132  0.32663  0.78980  1.0000
  H   H263      1.0  0.25545  0.06255  0.82055  1.0000
  C   C260      1.0  0.06655  0.01070  0.93988  1.0000
  C   C261      1.0  0.18989  0.38663  0.85601  1.0000
  Fe  Fe39      1.0  0.22776  0.47174  0.92914  1.0000
  C   C262      1.0  0.33034  0.42235  0.77505  1.0000
  H   H264      1.0  0.42449  0.35769  0.88104  1.0000
  S   S93       1.0  0.42494  0.43194  0.95714  1.0000
  C   C263      1.0  0.17170  0.36621  0.83872  1.0000
  C   C264      1.0  0.38719  0.45291  0.78055  1.0000
  H   H265      1.0  0.43225  0.40797  0.86593  1.0000
  S   S94       1.0  0.18481  0.37242  0.88377  1.0000
  C   C265      1.0  0.23620  0.33908  0.86063  1.0000
  H   H266      1.0  0.24286  0.38237  0.83034  1.0000
  H   H267      1.0  0.31230  0.37378  0.76524  1.0000
  H   H268      1.0  0.21788  0.28615  0.83733  1.0000
  C   C266      1.0  0.19769  0.40840  0.81122  1.0000
  H   H269      1.0  0.21371  0.33434  0.86899  1.0000
  C   C267      1.0  0.17524  0.37720  0.81644  1.0000
  H   H270      1.0  0.25503  0.36348  0.86479  1.0000
  C   C268      1.0  0.32351  0.36169  0.86051  1.0000
  H   H271      1.0  0.22668  0.43367  0.86417  1.0000
  H   H272      1.0  0.35645  0.30840  0.82841  1.0000
  C   C269      1.0  0.29585  0.32871  0.82862  1.0000
  S   S95       1.0  0.19770  0.45562  0.89799  1.0000
  H   H273      1.0  0.28656  0.45910  0.92419  1.0000
  H   H274      1.0  0.23309  0.45304  0.82469  1.0000
  H   H275      1.0  0.36647  0.35944  0.81285  1.0000
  C   C270      1.0  0.31264  0.35849  0.83833  1.0000
  H   H276      1.0  0.36666  0.11030  0.75912  1.0000
  C   C271      1.0  0.41578  0.38621  0.85747  1.0000
  S   S96       1.0  0.35582  0.48511  0.78812  1.0000
  C   C272      1.0  0.21223  0.41796  0.85089  1.0000
  C   C273      1.0  0.35114  0.46938  0.84761  1.0000
  C   C274      1.0  0.23575  0.35962  0.82287  1.0000
  C   C275      1.0  0.38398  0.16955  0.75352  1.0000
  C   C276      1.0  0.30822  0.47870  0.93061  1.0000
  H   H277      1.0  0.28142  0.48964  0.85612  1.0000
  Fe  Fe40      1.0  0.24634  0.46494  0.77352  1.0000
  C   C277      1.0  0.25687  0.05592  0.83787  1.0000
  C   C278      1.0  0.36322  0.39799  0.76932  1.0000
  H   H278      1.0  0.15443  0.34196  0.84262  1.0000
  Fe  Fe41      1.0  0.15678  0.44746  0.92043  1.0000
  S   S97       1.0  0.11863  0.45439  0.90378  1.0000
  H   H279      1.0  0.30160  0.05783  0.83280  1.0000
  C   C279      1.0  0.38978  0.32953  0.85579  1.0000
  C   C280      1.0  0.41142  0.35774  0.86616  1.0000
  C   C281      1.0  0.09041  0.46455  0.94120  1.0000
  Fe  Fe42      1.0  0.26357  0.26964  0.74241  1.0000
  Fe  Fe43      1.0  0.30593  0.01685  0.73322  1.0000
  C   C282      1.0  0.31188  0.17489  0.75515  1.0000
  C   C283      1.0  0.30789  0.14837  0.74325  1.0000
  Fe  Fe44      1.0  0.43738  0.42300  0.92229  1.0000
  H   H280      1.0  0.31769  0.19569  0.78802  1.0000
  H   H281      1.0  0.26288  0.03212  0.89909  1.0000
  H   H282      1.0  0.41340  0.42896  0.77403  1.0000
  Fe  Fe45      1.0  0.39899  0.45363  0.93942  1.0000
  S   S98       1.0  0.39254  0.37642  0.91822  1.0000
  H   H283      1.0  0.38206  0.16249  0.77111  1.0000
  C   C284      1.0  0.22131  0.30585  0.82684  1.0000
  H   H284      1.0  0.31768  0.37912  0.82845  1.0000
  H   H285      1.0  0.40826  0.47493  0.78473  1.0000
  N   N23       1.0  0.23138  0.33485  0.83616  1.0000
  Fe  Fe46      1.0  0.28577  0.50121  0.73283  1.0000
  H   H286      1.0  0.24406  0.32306  0.86779  1.0000
  H   H287      1.0  0.06278  0.36756  0.94611  1.0000
  C   C285      1.0  0.35695  0.47428  0.72068  1.0000
  Fe  Fe47      1.0  0.37114  0.40391  0.90391  1.0000
  S   S99       1.0  0.33900  0.03687  0.76279  1.0000
  C   C286      1.0  0.03297  0.44598  0.91849  1.0000
  H   H288      1.0  0.23409  0.37562  0.78906  1.0000
  H   H289      1.0  0.20939  0.27854  0.79617  1.0000
  C   C287      1.0  0.21646  0.30138  0.80353  1.0000
  H   H290      1.0  0.19555  0.47981  0.79013  1.0000
  H   H291      1.0  0.40181  0.12011  0.74258  1.0000
  C   C288      1.0  0.03644  0.45664  0.94076  1.0000
  C   C289      1.0  0.05521  0.37317  0.96182  1.0000
  H   H292      1.0  0.14103  0.42276  0.86754  1.0000
  H   H293      1.0  0.15311  0.43223  0.80868  1.0000
  C   C290      1.0  0.28300  0.05332  0.84490  1.0000
  C   C291      1.0  0.23282  0.05012  0.85331  1.0000
  H   H294      1.0  0.21642  0.03692  0.88764  1.0000
  S   S100      1.0  0.28311  0.49754  0.79793  1.0000
  C   C292      1.0  0.16488  0.45410  0.81810  1.0000
  N   N24       1.0  0.38201  0.14955  0.73670  1.0000
  C   C293      1.0  0.38669  0.19867  0.74826  1.0000
  C   C294      1.0  0.37286  0.47859  0.86534  1.0000
  Fe  Fe48      1.0  0.17800  0.41980  0.95786  1.0000
  H   H295      1.0  0.36275  0.10068  0.72981  1.0000
  H   H296      1.0  0.35159  0.45448  0.83424  1.0000
  H   H297      1.0  0.36907  0.43967  0.73194  1.0000
  H   H298      1.0  0.38649  0.21378  0.76155  1.0000
  C   C295      1.0  0.36354  0.50076  0.94234  1.0000
  C   C296      1.0  0.32874  0.47942  0.84723  1.0000
  Fe  Fe49      1.0  0.31737  0.49375  0.77450  1.0000
  C   C297      1.0  0.06534  0.46612  0.95202  1.0000
  H   H299      1.0  0.16479  0.48395  0.86908  1.0000
  C   C298      1.0  0.18895  0.48102  0.80746  1.0000
  S   S101      1.0  0.39748  0.49757  0.94865  1.0000
  H   H300      1.0  0.03245  0.39579  0.94488  1.0000
  C   C299      1.0  0.38753  0.20728  0.72567  1.0000
  H   H301      1.0  0.41335  0.34561  0.95951  1.0000
  C   C300      1.0  0.37229  0.49802  0.88227  1.0000
  N   N25       1.0  0.32777  0.49780  0.86424  1.0000
  C   C301      1.0  0.37826  0.11871  0.74236  1.0000
  H   H302      1.0  0.24700  0.18167  0.72302  1.0000
  S   S102      1.0  0.24768  0.50366  0.75247  1.0000
  C   C302      1.0  0.36250  0.44918  0.71770  1.0000
  Fe  Fe50      1.0  0.40619  0.88070  0.10672  1.0000
  S   S103      1.0  0.38415  0.82821  0.10601  1.0000
  S   S104      1.0  0.43372  0.91201  0.07747  1.0000
  Fe  Fe51      1.0  0.38359  0.87993  0.15487  1.0000
  S   S105      1.0  0.35999  0.82745  0.15735  1.0000
  S   S106      1.0  0.37943  0.90713  0.18379  1.0000
  Fe  Fe52      1.0  0.40469  0.83387  0.14084  1.0000
  S   S107      1.0  0.43480  0.81447  0.15535  1.0000
  Fe  Fe53      1.0  0.34239  0.82866  0.12246  1.0000
  S   S108      1.0  0.29179  0.79711  0.11089  1.0000
  S   S109      1.0  0.42925  0.88655  0.14057  1.0000
  S   S110      1.0  0.36334  0.88075  0.12093  1.0000
  H   H303      1.0  0.11502  0.85815  0.00951  1.0000
  C   C303      1.0  0.33416  0.83569  0.05564  1.0000
  Fe  Fe54      1.0  0.10342  0.86600  0.10473  1.0000
  S   S111      1.0  0.13728  0.91785  0.10787  1.0000
  S   S112      1.0  0.05731  0.85504  0.08739  1.0000
  Fe  Fe55      1.0  0.15659  0.85020  0.11653  1.0000
  S   S113      1.0  0.19339  0.90095  0.11980  1.0000
  S   S114      1.0  0.16806  0.81064  0.11915  1.0000
  Fe  Fe56      1.0  0.15506  0.90472  0.13865  1.0000
  S   S115      1.0  0.16641  0.92992  0.17205  1.0000
  Fe  Fe57      1.0  0.17106  0.90798  0.08866  1.0000
  S   S116      1.0  0.19836  0.93668  0.05828  1.0000
  S   S117      1.0  0.11890  0.85315  0.13713  1.0000
  S   S118      1.0  0.13677  0.85674  0.08417  1.0000
  H   H304      1.0  0.06495  0.93010  0.17213  1.0000
  C   C304      1.0  0.09370  0.91207  0.01448  1.0000
  H   H305      1.0  0.46295  0.82065  0.20072  1.0000
  C   C305      1.0  0.37727  0.72702  0.21249  1.0000
  C   C306      1.0  0.46648  0.82411  0.11487  1.0000
  C   C307      1.0  0.49182  0.82759  0.10133  1.0000
  H   H306      1.0  0.10395  0.94564  0.05848  1.0000
  N   N26       1.0  0.50791  0.86234  0.20482  1.0000
  H   H307      1.0  0.10164  0.90772  0.05789  1.0000
  C   C308      1.0  0.02030  0.84118  0.12589  1.0000
  C   C309      1.0  0.49541  0.89109  0.07372  1.0000
  C   C310      1.0  0.37078  0.85960  0.21322  1.0000
  H   H308      1.0  0.19954  0.84310  0.07742  1.0000
  C   C311      1.0  0.48627  0.83125  0.20847  1.0000
  C   C312      1.0  0.10887  0.92902  0.17176  1.0000
  H   H309      1.0  0.20383  0.87185  0.00895  1.0000
  H   H310      1.0  0.10653  0.92180  0.15429  1.0000
  C   C313      1.0  0.18168  0.91934  0.03213  1.0000
  C   C314      1.0  0.19947  0.93131  0.01228  1.0000
  C   C315      1.0  0.37251  0.91732  0.03141  1.0000
  C   C316      1.0  0.15649  0.89022  0.99043  1.0000
  C   C317      1.0  0.13866  0.87852  0.01021  1.0000
  C   C318      1.0  0.15106  0.89328  0.03091  1.0000
  H   H311      1.0  0.22319  0.95153  0.01304  1.0000
  H   H312      1.0  0.26744  0.79562  0.16693  1.0000
  H   H313      1.0  0.38423  0.94144  0.03738  1.0000
  H   H314      1.0  0.13644  0.88481  0.04575  1.0000
  H   H315      1.0  0.49350  0.90793  0.06210  1.0000
  H   H316      1.0  0.38298  0.85309  0.20100  1.0000
  H   H317      1.0  0.07366  0.89209  0.02253  1.0000
  H   H318      1.0  0.49037  0.82894  0.08318  1.0000
  H   H319      1.0  0.36403  0.89740  0.06475  1.0000
  C   C319      1.0  0.18984  0.83853  0.06047  1.0000
  H   H320      1.0  0.23828  0.90856  0.03617  1.0000
  C   C320      1.0  0.32781  0.72705  0.18905  1.0000
  H   H321      1.0  0.15396  0.82279  0.00054  1.0000
  C   C321      1.0  0.25981  0.86885  0.17938  1.0000
  N   N27       1.0  0.34699  0.86182  0.03934  1.0000
  C   C322      1.0  0.35507  0.88001  0.00083  1.0000
  H   H322      1.0  0.20125  0.92536  0.97634  1.0000
  C   C323      1.0  0.36711  0.88584  0.20929  1.0000
  C   C324      1.0  0.18692  0.91674  0.99144  1.0000
  C   C325      1.0  0.08823  0.94322  0.20456  1.0000
  H   H323      1.0  0.48732  0.92609  0.10412  1.0000
  C   C326      1.0  0.02371  0.84917  0.10296  1.0000
  H   H324      1.0  0.33915  0.81689  0.05015  1.0000
  H   H325      1.0  0.35302  0.87505  0.98284  1.0000
  H   H326      1.0  0.12665  0.78298  0.03104  1.0000
  C   C327      1.0  0.13825  0.94332  0.20680  1.0000
  C   C328      1.0  0.19223  0.85462  0.02231  1.0000
  H   H327      1.0  0.20307  0.85492  0.15817  1.0000
  H   H328      1.0  0.50384  0.87746  0.06378  1.0000
  N   N28       1.0  0.23341  0.84091  0.17393  1.0000
  H   H329      1.0  0.34511  0.84350  0.07259  1.0000
  C   C329      1.0  0.14520  0.96241  0.99361  1.0000
  C   C330      1.0  0.50017  0.88117  0.18952  1.0000
  C   C331      1.0  0.46722  0.82032  0.13822  1.0000
  C   C332      1.0  0.29235  0.84450  0.17661  1.0000
  H   H330      1.0  0.47403  0.87118  0.18795  1.0000
  C   C333      1.0  0.23356  0.88995  0.04889  1.0000
  C   C334      1.0  0.36098  0.89226  0.04681  1.0000
  C   C335      1.0  0.34394  0.85550  0.01668  1.0000
  H   H331      1.0  0.44584  0.82318  0.10712  1.0000
  H   H332      1.0  0.19690  0.84749  0.18824  1.0000
  C   C336      1.0  0.23589  0.81475  0.16965  1.0000
  C   C337      1.0  0.20259  0.83957  0.17223  1.0000
  C   C338      1.0  0.25912  0.80379  0.11313  1.0000
  C   C339      1.0  0.22870  0.77736  0.11220  1.0000
  C   C340      1.0  0.20157  0.78036  0.11395  1.0000
  C   C341      1.0  0.20411  0.80993  0.11614  1.0000
  C   C342      1.0  0.23455  0.83689  0.11663  1.0000
  C   C343      1.0  0.26212  0.83378  0.11535  1.0000
  H   H333      1.0  0.22601  0.75415  0.11037  1.0000
  H   H334      1.0  0.17832  0.75940  0.11356  1.0000
  H   H335      1.0  0.23686  0.85991  0.11845  1.0000
  H   H336      1.0  0.28552  0.85443  0.11603  1.0000
  C   C344      1.0  0.43021  0.89451  0.05092  1.0000
  C   C345      1.0  0.41325  0.86182  0.04816  1.0000
  C   C346      1.0  0.40909  0.84867  0.02653  1.0000
  C   C347      1.0  0.42193  0.86817  0.00759  1.0000
  C   C348      1.0  0.44057  0.90072  0.01055  1.0000
  C   C349      1.0  0.44449  0.91388  0.03212  1.0000
  H   H337      1.0  0.40289  0.84658  0.06250  1.0000
  H   H338      1.0  0.39528  0.82339  0.02442  1.0000
  H   H339      1.0  0.45216  0.91584  0.99629  1.0000
  H   H340      1.0  0.45827  0.93917  0.03417  1.0000
  C   C350      1.0  0.16408  0.82674  0.01741  1.0000
  C   C351      1.0  0.13551  0.93402  0.18421  1.0000
  H   H341      1.0  0.47130  0.87432  0.08034  1.0000
  H   H342      1.0  0.13957  0.94254  0.05972  1.0000
  H   H343      1.0  0.30822  0.72681  0.18003  1.0000
  C   C352      1.0  0.16184  0.81026  0.05615  1.0000
  H   H344      1.0  0.23135  0.89941  0.06545  1.0000
  H   H345      1.0  0.07658  0.89565  0.98068  1.0000
  H   H346      1.0  0.33335  0.83145  0.01070  1.0000
  C   C353      1.0  0.49384  0.82063  0.14792  1.0000
  C   C354      1.0  0.36929  0.91108  0.00828  1.0000
  C   C355      1.0  0.14874  0.80451  0.03450  1.0000
  C   C356      1.0  0.50562  0.89528  0.97775  1.0000
  C   C357      1.0  0.08531  0.93373  0.18191  1.0000
  H   H347      1.0  0.30807  0.82552  0.05750  1.0000
  C   C358      1.0  0.11493  0.94825  0.21687  1.0000
  H   H348      1.0  0.37795  0.93025  0.99611  1.0000
  H   H349      1.0  0.25788  0.88964  0.18254  1.0000
  H   H350      1.0  0.29757  0.68600  0.20886  1.0000
  N   N29       1.0  0.20432  0.86050  0.04376  1.0000
  C   C359      1.0  0.14316  0.95964  0.01718  1.0000
  S   S119      1.0  0.41353  0.85151  0.98043  1.0000
  H   H351      1.0  0.18286  0.81535  0.16865  1.0000
  H   H352      1.0  0.49441  0.81689  0.16581  1.0000
  C   C360      1.0  0.12098  0.93943  0.98042  1.0000
  H   H353      1.0  0.31539  0.84603  0.17765  1.0000
  H   H354      1.0  0.16552  0.98208  0.98556  1.0000
  C   C361      1.0  0.35908  0.75025  0.18442  1.0000
  C   C362      1.0  0.32194  0.70406  0.20543  1.0000
  N   N30       1.0  0.11769  0.93462  0.02730  1.0000
  C   C363      1.0  0.28965  0.87105  0.18086  1.0000
  H   H355      1.0  0.21515  0.79277  0.16475  1.0000
  H   H356      1.0  0.03896  0.83938  0.13459  1.0000
  H   H357      1.0  0.15011  0.79330  0.06970  1.0000
  H   H358      1.0  0.25408  0.88586  0.04942  1.0000
  C   C364      1.0  0.09513  0.91398  0.99086  1.0000
  H   H359      1.0  0.31068  0.89319  0.18516  1.0000
  C   C365      1.0  0.38399  0.75026  0.19618  1.0000
  H   H360      1.0  0.50993  0.88177  0.17244  1.0000
  H   H361      1.0  0.31606  0.51229  0.99410  1.0000
  C   C366      1.0  0.26540  0.81618  0.17087  1.0000
  H   H362      1.0  0.48006  0.88445  0.97602  1.0000
  H   H363      1.0  0.40835  0.76814  0.19262  1.0000
  H   H364      1.0  0.36414  0.76815  0.17168  1.0000
  H   H365      1.0  0.16235  0.97732  0.02734  1.0000
  H   H366      1.0  0.51038  0.90571  0.19580  1.0000
  C   C367      1.0  0.11556  0.93261  0.05202  1.0000
  C   C368      1.0  0.50925  0.92563  0.10649  1.0000
  H   H367      1.0  0.50564  0.85138  0.97533  1.0000
  H   H368      1.0  0.15834  0.94631  0.21652  1.0000
  N   N31       1.0  0.34654  0.70453  0.21710  1.0000
  H   H369      1.0  0.17263  0.56515  0.25038  1.0000
  S   S120      1.0  0.08512  0.93163  0.27525  1.0000
  Fe  Fe58      1.0  0.18467  0.57389  0.45274  1.0000
  C   C369      1.0  0.18702  0.56309  0.33915  1.0000
  H   H370      1.0  0.41838  0.77279  0.45952  1.0000
  H   H371      1.0  0.07831  0.99675  0.39133  1.0000
  H   H372      1.0  0.46832  0.77639  0.29113  1.0000
  H   H373      1.0  0.11769  0.95608  0.23413  1.0000
  Fe  Fe59      1.0  0.04572  0.92235  0.29964  1.0000
  H   H374      1.0  0.05643  0.52640  0.38885  1.0000
  C   C370      1.0  0.44087  0.96894  0.45775  1.0000
  S   S121      1.0  0.09604  0.00442  0.27046  1.0000
  S   S122      1.0  0.14567  0.54119  0.42950  1.0000
  C   C371      1.0  0.34102  0.87742  0.24569  1.0000
  C   C372      1.0  0.47702  0.90687  0.30108  1.0000
  H   H375      1.0  0.27370  0.73487  0.45255  1.0000
  C   C373      1.0  0.20471  0.61564  0.32377  1.0000
  H   H376      1.0  0.10361  0.59253  0.34556  1.0000
  C   C374      1.0  0.49855  0.99373  0.46135  1.0000
  C   C375      1.0  0.20849  0.57237  0.27481  1.0000
  C   C376      1.0  0.22658  0.70097  0.46464  1.0000
  S   S123      1.0  0.19225  0.61790  0.43558  1.0000
  C   C377      1.0  0.19527  0.58193  0.25767  1.0000
  Fe  Fe60      1.0  0.32723  0.73864  0.31473  1.0000
  S   S124      1.0  0.33657  0.70967  0.28976  1.0000
  S   S125      1.0  0.31365  0.72449  0.35103  1.0000
  Fe  Fe61      1.0  0.32954  0.78422  0.27883  1.0000
  S   S126      1.0  0.33728  0.75817  0.25089  1.0000
  Fe  Fe62      1.0  0.30068  0.71396  0.26840  1.0000
  S   S127      1.0  0.26044  0.67455  0.24881  1.0000
  Fe  Fe63      1.0  0.37235  0.75668  0.27478  1.0000
  S   S128      1.0  0.42030  0.76963  0.25999  1.0000
  S   S129      1.0  0.28945  0.74045  0.29413  1.0000
  S   S130      1.0  0.36642  0.78501  0.30194  1.0000
  S   S131      1.0  0.14888  0.59618  0.37818  1.0000
  H   H377      1.0  0.42324  0.00114  0.45313  1.0000
  C   C378      1.0  0.06851  0.97896  0.37759  1.0000
  Fe  Fe64      1.0  0.39028  0.82777  0.44681  1.0000
  S   S132      1.0  0.36279  0.84965  0.43311  1.0000
  S   S133      1.0  0.41563  0.81345  0.42216  1.0000
  C   C379      1.0  0.45329  0.92812  0.27581  1.0000
  C   C380      1.0  0.42350  0.87452  0.28930  1.0000
  H   H378      1.0  0.19250  0.95801  0.24913  1.0000
  H   H379      1.0  0.50029  0.88239  0.26024  1.0000
  H   H380      1.0  0.06099  0.98874  0.36348  1.0000
  H   H381      1.0  0.28325  0.76488  0.37784  1.0000
  C   C381      1.0  0.34275  0.74840  0.37065  1.0000
  C   C382      1.0  0.33381  0.74833  0.39313  1.0000
  C   C383      1.0  0.35615  0.76856  0.40887  1.0000
  C   C384      1.0  0.38786  0.78790  0.40243  1.0000
  C   C385      1.0  0.39715  0.78711  0.38016  1.0000
  C   C386      1.0  0.37448  0.76769  0.36416  1.0000
  H   H382      1.0  0.30948  0.73296  0.39831  1.0000
  H   H383      1.0  0.34883  0.76895  0.42602  1.0000
  H   H384      1.0  0.42171  0.80189  0.37518  1.0000
  H   H385      1.0  0.38162  0.76731  0.34693  1.0000
  C   C387      1.0  0.21746  0.73240  0.41022  1.0000
  H   H386      1.0  0.22957  0.68075  0.46210  1.0000
  C   C388      1.0  0.34388  0.85072  0.24943  1.0000
  H   H387      1.0  0.47641  0.78820  0.22550  1.0000
  C   C389      1.0  0.17410  0.62514  0.29593  1.0000
  H   H388      1.0  0.04641  0.92222  0.35895  1.0000
  H   H389      1.0  0.37092  0.72829  0.44237  1.0000
  C   C390      1.0  0.50710  0.94676  0.40873  1.0000
  H   H390      1.0  0.47059  0.85594  0.31981  1.0000
  C   C391      1.0  0.44409  0.99882  0.45560  1.0000
  H   H391      1.0  0.41745  0.91910  0.40982  1.0000
  H   H392      1.0  0.20941  0.56368  0.33425  1.0000
  C   C392      1.0  0.50798  0.50768  0.42958  1.0000
  C   C393      1.0  0.46289  0.83365  0.26225  1.0000
  C   C394      1.0  0.49307  0.85952  0.26746  1.0000
  H   H393      1.0  0.35010  0.91544  0.22293  1.0000
  C   C395      1.0  0.20126  0.63640  0.30931  1.0000
  C   C396      1.0  0.10023  0.56913  0.34788  1.0000
  C   C397      1.0  0.07685  0.54388  0.33545  1.0000
  H   H394      1.0  0.17151  0.64081  0.28423  1.0000
  H   H395      1.0  0.28612  0.76887  0.40824  1.0000
  H   H396      1.0  0.20765  0.65745  0.38159  1.0000
  C   C398      1.0  0.21152  0.61326  0.24977  1.0000
  C   C399      1.0  0.24079  0.63541  0.25921  1.0000
  C   C400      1.0  0.25396  0.62589  0.27642  1.0000
  C   C401      1.0  0.37034  0.73341  0.46013  1.0000
  C   C402      1.0  0.47936  0.93213  0.28840  1.0000
  H   H397      1.0  0.20124  0.62038  0.23637  1.0000
  H   H398      1.0  0.27653  0.64265  0.28377  1.0000
  H   H399      1.0  0.22031  0.75331  0.41863  1.0000
  C   C403      1.0  0.18981  0.70354  0.41412  1.0000
  H   H400      1.0  0.32955  0.88445  0.25823  1.0000
  S   S134      1.0  0.07709  0.96615  0.31902  1.0000
  H   H401      1.0  0.24848  0.58715  0.29718  1.0000
  H   H402      1.0  0.45486  0.94748  0.26581  1.0000
  S   S135      1.0  0.10115  0.51294  0.26856  1.0000
  H   H403      1.0  0.16485  0.65391  0.40652  1.0000
  C   C404      1.0  0.23770  0.70767  0.38626  1.0000
  C   C405      1.0  0.35268  0.89498  0.22574  1.0000
  H   H404      1.0  0.39681  0.72724  0.22157  1.0000
  H   H405      1.0  0.12960  0.52997  0.37795  1.0000
  C   C406      1.0  0.11906  0.56412  0.36338  1.0000
  H   H406      1.0  0.16758  0.53827  0.33737  1.0000
  H   H407      1.0  0.50125  0.95470  0.28832  1.0000
  H   H408      1.0  0.08825  0.97544  0.37161  1.0000
  C   C407      1.0  0.23802  0.59441  0.28399  1.0000
  N   N32       1.0  0.24090  0.73420  0.39638  1.0000
  C   C408      1.0  0.21023  0.67849  0.38963  1.0000
  N   N33       1.0  0.18195  0.58448  0.32462  1.0000
  S   S136      1.0  0.27407  0.79506  0.45092  1.0000
  H   H409      1.0  0.13714  0.54858  0.31228  1.0000
  H   H410      1.0  0.25643  0.70893  0.37553  1.0000
  C   C409      1.0  0.44261  0.92658  0.40921  1.0000
  S   S137      1.0  0.11382  0.58637  0.43841  1.0000
  Fe  Fe65      1.0  0.05789  0.98936  0.29667  1.0000
  C   C410      1.0  0.18616  0.67648  0.40363  1.0000
  N   N34       1.0  0.44935  0.87849  0.30134  1.0000
  H   H411      1.0  0.34027  0.65962  0.22529  1.0000
  H   H412      1.0  0.06220  0.54781  0.32357  1.0000
  H   H413      1.0  0.17159  0.70205  0.42554  1.0000
  C   C411      1.0  0.46521  0.95850  0.40664  1.0000
  H   H414      1.0  0.21994  0.66084  0.30801  1.0000
  Fe  Fe66      1.0  0.14970  0.58536  0.41498  1.0000
  S   S138      1.0  0.02420  0.94483  0.27853  1.0000
  C   C412      1.0  0.45269  0.90457  0.41160  1.0000
  C   C413      1.0  0.15069  0.59345  0.29726  1.0000
  H   H415      1.0  0.35824  0.68879  0.24740  1.0000
  C   C414      1.0  0.47474  0.79961  0.28487  1.0000
  C   C415      1.0  0.27029  0.76445  0.39348  1.0000
  H   H416      1.0  0.31663  0.67111  0.24194  1.0000
  C   C416      1.0  0.34015  0.67978  0.23371  1.0000
  C   C417      1.0  0.42515  0.89916  0.27624  1.0000
  S   S139      1.0  0.32920  0.82970  0.27483  1.0000
  Fe  Fe67      1.0  0.11386  0.97899  0.29203  1.0000
  H   H417      1.0  0.03027  0.97042  0.41265  1.0000
  H   H418      1.0  0.26511  0.78411  0.39231  1.0000
  S   S140      1.0  0.18864  0.53346  0.28563  1.0000
  H   H419      1.0  0.44720  0.83674  0.25085  1.0000
  H   H420      1.0  0.40462  0.89583  0.26666  1.0000
  H   H421      1.0  0.03101  0.51753  0.44414  1.0000
  C   C418      1.0  0.15509  0.57331  0.31173  1.0000
  H   H422      1.0  0.45716  0.97552  0.40526  1.0000
  Fe  Fe68      1.0  0.11247  0.54412  0.45467  1.0000
  C   C419      1.0  0.45393  0.80346  0.27065  1.0000
  H   H423      1.0  0.40132  0.85225  0.28970  1.0000
  H   H424      1.0  0.12959  0.58431  0.28680  1.0000
  H   H425      1.0  0.18818  0.57003  0.35712  1.0000
  C   C420      1.0  0.11483  0.53388  0.36619  1.0000
  H   H426      1.0  0.22612  0.62437  0.33383  1.0000
  Fe  Fe69      1.0  0.06521  0.95678  0.25501  1.0000
  C   C421      1.0  0.25167  0.73161  0.45954  1.0000
  H   H427      1.0  0.43355  0.85064  0.33117  1.0000
  C   C422      1.0  0.19136  0.97701  0.25853  1.0000
  C   C423      1.0  0.35921  0.84206  0.23330  1.0000
  H   H428      1.0  0.43542  0.87975  0.41374  1.0000
  H   H429      1.0  0.46592  0.94330  0.46260  1.0000
  N   N35       1.0  0.49699  0.96824  0.40672  1.0000
  S   S141      1.0  0.40212  0.93621  0.45528  1.0000
  C   C424      1.0  0.49390  0.81265  0.22219  1.0000
  N   N36       1.0  0.04141  0.94918  0.38532  1.0000
  C   C425      1.0  0.50447  0.82537  0.29034  1.0000
  C   C426      1.0  0.46814  0.96631  0.46093  1.0000
  H   H430      1.0  0.36238  0.82207  0.23632  1.0000
  C   C427      1.0  0.09212  0.50879  0.35318  1.0000
  C   C428      1.0  0.48512  0.91464  0.41131  1.0000
  Fe  Fe70      1.0  0.32631  0.81969  0.45901  1.0000
  C   C429      1.0  0.02381  0.94890  0.40347  1.0000
  H   H431      1.0  0.49823  0.51817  0.41832  1.0000
  C   C430      1.0  0.44680  0.85259  0.31539  1.0000
  C   C431      1.0  0.31524  0.68942  0.46278  1.0000
  S   S142      1.0  0.22543  0.56794  0.46421  1.0000
  C   C432      1.0  0.03284  0.92205  0.37359  1.0000
  H   H432      1.0  0.43415  0.82993  0.30616  1.0000
  H   H433      1.0  0.49757  0.91007  0.31056  1.0000
  H   H434      1.0  0.31672  0.68933  0.44404  1.0000
  H   H435      1.0  0.49316  0.89765  0.41314  1.0000
  H   H436      1.0  0.19393  0.97374  0.27686  1.0000
  Fe  Fe71      1.0  0.15655  0.61566  0.46038  1.0000
  H   H437      1.0  0.16747  0.97457  0.25635  1.0000
  Fe  Fe72      1.0  0.38645  0.88491  0.46080  1.0000
  C   C433      1.0  0.07284  0.51373  0.33803  1.0000
  C   C434      1.0  0.24721  0.75766  0.46207  1.0000
  H   H438      1.0  0.19602  0.00055  0.21721  1.0000
  S   S143      1.0  0.05833  0.94841  0.21743  1.0000
  Fe  Fe73      1.0  0.24091  0.58299  0.59932  1.0000
  H   H439      1.0  0.34445  0.85234  0.53175  1.0000
  H   H440      1.0  0.19910  0.95627  0.50688  1.0000
  H   H441      1.0  0.22384  0.76839  0.52092  1.0000
  H   H442      1.0  0.24130  0.72937  0.51566  1.0000
  H   H443      1.0  0.25296  0.66173  0.50894  1.0000
  H   H444      1.0  0.22161  0.58737  0.53939  1.0000
  Fe  Fe74      1.0  0.31255  0.89130  0.60732  1.0000
  S   S144      1.0  0.27934  0.87644  0.57792  1.0000
  S   S145      1.0  0.36408  0.90540  0.60462  1.0000
  Fe  Fe75      1.0  0.25906  0.87390  0.64093  1.0000
  S   S146      1.0  0.22155  0.85754  0.61406  1.0000
  S   S147      1.0  0.24748  0.87318  0.67774  1.0000
  Fe  Fe76      1.0  0.24760  0.83431  0.59929  1.0000
  S   S148      1.0  0.22619  0.78537  0.58423  1.0000
  Fe  Fe77      1.0  0.25736  0.90150  0.59579  1.0000
  S   S149      1.0  0.24987  0.93708  0.57609  1.0000
  S   S150      1.0  0.28260  0.84789  0.62748  1.0000
  S   S151      1.0  0.29314  0.91934  0.62385  1.0000
  S   S152      1.0  0.38537  0.82497  0.53061  1.0000
  S   S153      1.0  0.29110  0.60276  0.58746  1.0000
  N   N37       1.0  0.29310  0.67596  0.68464  1.0000
  Fe  Fe78      1.0  0.25239  0.64723  0.61689  1.0000
  S   S154      1.0  0.30349  0.67126  0.60656  1.0000
  S   S155      1.0  0.23792  0.67804  0.63616  1.0000
  Fe  Fe79      1.0  0.28563  0.64313  0.57479  1.0000
  S   S156      1.0  0.30007  0.66688  0.54090  1.0000
  Fe  Fe80      1.0  0.30314  0.62853  0.62055  1.0000
  S   S157      1.0  0.33840  0.63180  0.64634  1.0000
  S   S158      1.0  0.23421  0.62163  0.58408  1.0000
  S   S159      1.0  0.25319  0.60620  0.63333  1.0000
  C   C435      1.0  0.32867  0.86586  0.68849  1.0000
  C   C436      1.0  0.27988  0.63965  0.51937  1.0000
  C   C437      1.0  0.28579  0.61489  0.51538  1.0000
  C   C438      1.0  0.36954  0.74775  0.50534  1.0000
  H   H445      1.0  0.26007  0.52357  0.60198  1.0000
  H   H446      1.0  0.17280  0.52396  0.50149  1.0000
  H   H447      1.0  0.32050  0.78518  0.57570  1.0000
  H   H448      1.0  0.30292  0.61246  0.52565  1.0000
  N   N38       1.0  0.20802  0.54153  0.52742  1.0000
  C   C439      1.0  0.25787  0.64283  0.50595  1.0000
  C   C440      1.0  0.30314  0.77272  0.56256  1.0000
  H   H449      1.0  0.45280  0.92226  0.56402  1.0000
  C   C441      1.0  0.16075  0.70720  0.62198  1.0000
  C   C442      1.0  0.33228  0.59355  0.68213  1.0000
  C   C443      1.0  0.32327  0.59517  0.65991  1.0000
  C   C444      1.0  0.30169  0.56754  0.64875  1.0000
  H   H450      1.0  0.33671  0.71490  0.67414  1.0000
  H   H451      1.0  0.34888  0.61489  0.69083  1.0000
  H   H452      1.0  0.29463  0.56866  0.63160  1.0000
  C   C445      1.0  0.23257  0.75710  0.59837  1.0000
  C   C446      1.0  0.24163  0.76062  0.62109  1.0000
  C   C447      1.0  0.24450  0.73680  0.63232  1.0000
  C   C448      1.0  0.23882  0.70947  0.62084  1.0000
  C   C449      1.0  0.23051  0.70623  0.59797  1.0000
  C   C450      1.0  0.22690  0.72974  0.58690  1.0000
  H   H453      1.0  0.24523  0.78109  0.63031  1.0000
  H   H454      1.0  0.25061  0.73935  0.65006  1.0000
  H   H455      1.0  0.22552  0.68499  0.58906  1.0000
  H   H456      1.0  0.21915  0.72643  0.56951  1.0000
  C   C451      1.0  0.24423  0.96526  0.59072  1.0000
  C   C452      1.0  0.22380  0.95669  0.60934  1.0000
  C   C453      1.0  0.21661  0.97864  0.61898  1.0000
  C   C454      1.0  0.22740  0.77932  0.70847  1.0000
  C   C455      1.0  0.42442  0.94473  0.56118  1.0000
  C   C456      1.0  0.23729  0.94800  0.68725  1.0000
  H   H457      1.0  0.21254  0.93279  0.61572  1.0000
  H   H458      1.0  0.19990  0.97152  0.63287  1.0000
  C   C457      1.0  0.34270  0.88271  0.66872  1.0000
  C   C458      1.0  0.19390  0.96924  0.51938  1.0000
  C   C459      1.0  0.36848  0.88152  0.58456  1.0000
  C   C460      1.0  0.35233  0.87500  0.56396  1.0000
  C   C461      1.0  0.35723  0.85742  0.54744  1.0000
  C   C462      1.0  0.37810  0.84605  0.55147  1.0000
  C   C463      1.0  0.39377  0.85198  0.57227  1.0000
  C   C464      1.0  0.38929  0.87004  0.58869  1.0000
  H   H459      1.0  0.33687  0.88441  0.56040  1.0000
  H   H460      1.0  0.27348  0.51696  0.65072  1.0000
  H   H461      1.0  0.40985  0.84312  0.57554  1.0000
  H   H462      1.0  0.40188  0.87505  0.60459  1.0000
  H   H463      1.0  0.30801  0.73126  0.56417  1.0000
  H   H464      1.0  0.42672  0.95122  0.57889  1.0000
  H   H465      1.0  0.24846  0.80400  0.53578  1.0000
  H   H466      1.0  0.29204  0.80963  0.55780  1.0000
  C   C465      1.0  0.24126  0.62088  0.48894  1.0000
  C   C466      1.0  0.29624  0.74261  0.55604  1.0000
  C   C467      1.0  0.24902  0.78601  0.52465  1.0000
  C   C468      1.0  0.27382  0.72695  0.53914  1.0000
  C   C469      1.0  0.25535  0.67072  0.71303  1.0000
  H   H467      1.0  0.30389  0.70332  0.65459  1.0000
  C   C470      1.0  0.23353  0.81171  0.67563  1.0000
  C   C471      1.0  0.23832  0.83665  0.68960  1.0000
  C   C472      1.0  0.01592  0.99097  0.46928  1.0000
  Fe  Fe81      1.0  0.37582  0.83462  0.49517  1.0000
  H   H468      1.0  0.18752  0.97449  0.57598  1.0000
  H   H469      1.0  0.23340  0.81414  0.65755  1.0000
  C   C473      1.0  0.39693  0.76575  0.49254  1.0000
  C   C474      1.0  0.25866  0.74169  0.52886  1.0000
  H   H470      1.0  0.26798  0.70337  0.53429  1.0000
  N   N39       1.0  0.40138  0.94188  0.52471  1.0000
  C   C475      1.0  0.19369  0.96247  0.54232  1.0000
  C   C476      1.0  0.40551  0.95125  0.54681  1.0000
  N   N40       1.0  0.26747  0.98895  0.66020  1.0000
  H   H471      1.0  0.27372  0.00287  0.56774  1.0000
  H   H472      1.0  0.30551  0.63982  0.68387  1.0000
  C   C477      1.0  0.38207  0.94935  0.50960  1.0000
  H   H473      1.0  0.16721  0.72679  0.68550  1.0000
  H   H474      1.0  0.32164  0.70914  0.50512  1.0000
  H   H475      1.0  0.35558  0.92503  0.64980  1.0000
  C   C478      1.0  0.31703  0.87855  0.70448  1.0000
  H   H476      1.0  0.32652  0.56333  0.71037  1.0000
  C   C479      1.0  0.43897  0.92841  0.55286  1.0000
  H   H477      1.0  0.26884  0.94616  0.66272  1.0000
  C   C480      1.0  0.41609  0.92642  0.51632  1.0000
  H   H478      1.0  0.24444  0.55425  0.55203  1.0000
  C   C481      1.0  0.28716  0.78657  0.55220  1.0000
  H   H479      1.0  0.35158  0.87309  0.65600  1.0000
  C   C482      1.0  0.33297  0.92387  0.68156  1.0000
  S   S160      1.0  0.16453  0.65929  0.47872  1.0000
  H   H480      1.0  0.32323  0.68044  0.65680  1.0000
  H   H481      1.0  0.20685  0.69531  0.67759  1.0000
  C   C483      1.0  0.25890  0.96005  0.66929  1.0000
  N   N41       1.0  0.34348  0.71604  0.47280  1.0000
  H   H482      1.0  0.22374  0.62310  0.47908  1.0000
  C   C484      1.0  0.31537  0.69462  0.66666  1.0000
  C   C485      1.0  0.18050  0.68143  0.67622  1.0000
  H   H483      1.0  0.36877  0.75340  0.52299  1.0000
  H   H484      1.0  0.34334  0.50512  0.70462  1.0000
  H   H485      1.0  0.39373  0.96332  0.55360  1.0000
  C   C486      1.0  0.23910  0.51596  0.53139  1.0000
  H   H486      1.0  0.39783  0.96958  0.49852  1.0000
  H   H487      1.0  0.16006  0.70219  0.60407  1.0000
  H   H488      1.0  0.41312  0.91933  0.49878  1.0000
  H   H489      1.0  0.41746  0.78559  0.50018  1.0000
  H   H490      1.0  0.27439  0.57429  0.49479  1.0000
  H   H491      1.0  0.44551  0.90590  0.52373  1.0000
  H   H492      1.0  0.15334  0.74668  0.61706  1.0000
  H   H493      1.0  0.26142  0.79739  0.50861  1.0000
  C   C487      1.0  0.43481  0.91915  0.53028  1.0000
  C   C488      1.0  0.18746  0.97979  0.55821  1.0000
  C   C489      1.0  0.34290  0.72284  0.49513  1.0000
  S   S161      1.0  0.15163  0.57360  0.47914  1.0000
  C   C490      1.0  0.34493  0.91192  0.66521  1.0000
  C   C491      1.0  0.31956  0.56435  0.69322  1.0000
  C   C492      1.0  0.23706  0.83272  0.71309  1.0000
  H   H494      1.0  0.17024  0.67968  0.69332  1.0000
  S   S162      1.0  0.34708  0.85718  0.48556  1.0000
  H   H495      1.0  0.17183  0.67153  0.63182  1.0000
  H   H496      1.0  0.23050  0.92499  0.69430  1.0000
  H   H497      1.0  0.36687  0.92888  0.49864  1.0000
  C   C493      1.0  0.26976  0.59341  0.49791  1.0000
  H   H498      1.0  0.15631  0.75857  0.65818  1.0000
  H   H499      1.0  0.27753  0.70926  0.68955  1.0000
  C   C494      1.0  0.29847  0.53667  0.68189  1.0000
  C   C495      1.0  0.22870  0.78337  0.68503  1.0000
  H   H500      1.0  0.22658  0.76483  0.67409  1.0000
  C   C496      1.0  0.28971  0.53828  0.65960  1.0000
  S   S163      1.0  0.20429  0.53186  0.59360  1.0000
  H   H501      1.0  0.18498  0.55589  0.55095  1.0000
  C   C497      1.0  0.19130  0.52169  0.51012  1.0000
  C   C498      1.0  0.19744  0.69666  0.47274  1.0000
  H   H502      1.0  0.28695  0.98324  0.62951  1.0000
  C   C499      1.0  0.24715  0.59614  0.48488  1.0000
  H   H503      1.0  0.17372  0.65728  0.67052  1.0000
  H   H504      1.0  0.32671  0.84309  0.69151  1.0000
  N   N42       1.0  0.26508  0.77094  0.53570  1.0000
  H   H505      1.0  0.02233  0.98612  0.48572  1.0000
  H   H506      1.0  0.33437  0.94640  0.67862  1.0000
  N   N43       1.0  0.16970  0.69708  0.66027  1.0000
  C   C500      1.0  0.16731  0.68988  0.63778  1.0000
  C   C501      1.0  0.16487  0.72080  0.66767  1.0000
  H   H507      1.0  0.36600  0.95525  0.51911  1.0000
  C   C502      1.0  0.15872  0.73889  0.65231  1.0000
  C   C503      1.0  0.15696  0.73218  0.62928  1.0000
  C   C504      1.0  0.25816  0.99617  0.58230  1.0000
  N   N44       1.0  0.31938  0.90726  0.70093  1.0000
  H   H508      1.0  0.18834  0.99894  0.49487  1.0000
  H   H509      1.0  0.18664  0.57019  0.52240  1.0000
  H   H510      1.0  0.19892  0.94433  0.54786  1.0000
  C   C505      1.0  0.29115  0.64843  0.69176  1.0000
  C   C506      1.0  0.27093  0.63118  0.70956  1.0000
  S   S164      1.0  0.35190  0.79491  0.47051  1.0000
  H   H511      1.0  0.17152  0.71982  0.48250  1.0000
  C   C507      1.0  0.22464  0.96584  0.69604  1.0000
  C   C508      1.0  0.23161  0.53888  0.53805  1.0000
  C   C509      1.0  0.19387  0.72295  0.47620  1.0000
  C   C510      1.0  0.18781  0.99306  0.51264  1.0000
  C   C511      1.0  0.19978  0.56484  0.53543  1.0000
  H   H512      1.0  0.25735  0.51352  0.54024  1.0000
  H   H513      1.0  0.21440  0.77295  0.47201  1.0000
  C   C512      1.0  0.21829  0.75311  0.47045  1.0000
  H   H514      1.0  0.20807  0.95693  0.71014  1.0000
  H   H515      1.0  0.33924  0.50878  0.66455  1.0000
  C   C513      1.0  0.27560  0.68721  0.69502  1.0000
  H   H516      1.0  0.28560  0.92058  0.71027  1.0000
  S   S165      1.0  0.41698  0.86536  0.47250  1.0000
  C   C514      1.0  0.39742  0.75857  0.46978  1.0000
  C   C515      1.0  0.23343  0.99523  0.68662  1.0000
  H   H517      1.0  0.26989  0.60963  0.71536  1.0000
  N   N45       1.0  0.18203  0.00346  0.55149  1.0000
  C   C516      1.0  0.29139  0.00169  0.64216  1.0000
  H   H518      1.0  0.29351  0.69049  0.46719  1.0000
  H   H519      1.0  0.31242  0.66684  0.46935  1.0000
  C   C517      1.0  0.31261  0.86688  0.84650  1.0000
  Fe  Fe82      1.0  0.25945  0.75477  0.74508  1.0000
  C   C518      1.0  0.34965  0.50774  0.88132  1.0000
  H   H520      1.0  0.39731  0.73110  0.77120  1.0000
  S   S166      1.0  0.18946  0.95481  0.93903  1.0000
  S   S167      1.0  0.45361  0.90155  0.92456  1.0000
  H   H521      1.0  0.27771  0.94135  0.83610  1.0000
  H   H522      1.0  0.30895  0.78268  0.87531  1.0000
  C   C519      1.0  0.14371  0.90900  0.78641  1.0000
  S   S168      1.0  0.37656  0.87419  0.93002  1.0000
  H   H523      1.0  0.29844  0.51273  0.88089  1.0000
  H   H524      1.0  0.38294  0.86535  0.82222  1.0000
  Fe  Fe83      1.0  0.28823  0.76364  0.79199  1.0000
  S   S169      1.0  0.33728  0.78156  0.77802  1.0000
  S   S170      1.0  0.28458  0.76460  0.82990  1.0000
  S   S171      1.0  0.26481  0.72173  0.76877  1.0000
  S   S172      1.0  0.27648  0.79387  0.77017  1.0000
  C   C520      1.0  0.30412  0.50811  0.86357  1.0000
  H   H525      1.0  0.11260  0.93717  0.86002  1.0000
  C   C521      1.0  0.25345  0.93205  0.84325  1.0000
  C   C522      1.0  0.37467  0.77534  0.83040  1.0000
  S   S173      1.0  0.32633  0.53637  0.75400  1.0000
  C   C523      1.0  0.34762  0.74680  0.83577  1.0000
  S   S174      1.0  0.50847  0.99222  0.93377  1.0000
  S   S175      1.0  0.26224  0.97148  0.89607  1.0000
  Fe  Fe84      1.0  0.28768  0.53647  0.77501  1.0000
  S   S176      1.0  0.28371  0.57686  0.79020  1.0000
  H   H526      1.0  0.38674  0.54938  0.95242  1.0000
  H   H527      1.0  0.24049  0.85182  0.72400  1.0000
  C   C524      1.0  0.37377  0.85027  0.85699  1.0000
  C   C525      1.0  0.17723  0.86326  0.82341  1.0000
  C   C526      1.0  0.32818  0.65205  0.74729  1.0000
  C   C527      1.0  0.31722  0.62223  0.75735  1.0000
  C   C528      1.0  0.29600  0.61274  0.77557  1.0000
  C   C529      1.0  0.28512  0.63288  0.78311  1.0000
  C   C530      1.0  0.29543  0.66228  0.77270  1.0000
  H   H528      1.0  0.32588  0.60699  0.75142  1.0000
  H   H529      1.0  0.26874  0.62576  0.79720  1.0000
  C   C531      1.0  0.23357  0.91100  0.80548  1.0000
  C   C532      1.0  0.20981  0.88984  0.79096  1.0000
  C   C533      1.0  0.35787  0.72312  0.80357  1.0000
  C   C534      1.0  0.33382  0.95559  0.91457  1.0000
  H   H530      1.0  0.23812  0.62986  0.73462  1.0000
  C   C535      1.0  0.31512  0.96549  0.90272  1.0000
  C   C536      1.0  0.09231  0.96436  0.87293  1.0000
  Fe  Fe85      1.0  0.45988  0.94893  0.93209  1.0000
  C   C537      1.0  0.40166  0.75439  0.77731  1.0000
  C   C538      1.0  0.14284  0.90594  0.82741  1.0000
  H   H531      1.0  0.30598  0.86511  0.71970  1.0000
  H   H532      1.0  0.25328  0.92212  0.86021  1.0000
  H   H533      1.0  0.02154  0.93124  0.93502  1.0000
  C   C539      1.0  0.17462  0.93481  0.78691  1.0000
  H   H534      1.0  0.24202  0.68010  0.72148  1.0000
  C   C540      1.0  0.32491  0.80093  0.86378  1.0000
  H   H535      1.0  0.24882  0.95193  0.84547  1.0000
  C   C541      1.0  0.36681  0.84744  0.83391  1.0000
  C   C542      1.0  0.33871  0.82191  0.82584  1.0000
  C   C543      1.0  0.31809  0.79814  0.84060  1.0000
  H   H536      1.0  0.35628  0.93537  0.83379  1.0000
  S   S177      1.0  0.12338  0.88576  0.85230  1.0000
  C   C544      1.0  0.31742  0.67224  0.75497  1.0000
  H   H537      1.0  0.33286  0.82102  0.80820  1.0000
  C   C545      1.0  0.34098  0.90131  0.87666  1.0000
  S   S178      1.0  0.27889  0.96803  0.74754  1.0000
  H   H538      1.0  0.31330  0.52999  0.85332  1.0000
  C   C546      1.0  0.35219  0.94172  0.76541  1.0000
  H   H539      1.0  0.32437  0.97950  0.88753  1.0000
  C   C547      1.0  0.12791  0.89457  0.80659  1.0000
  C   C548      1.0  0.28998  0.84537  0.86161  1.0000
  H   H540      1.0  0.23048  0.80105  0.74066  1.0000
  Fe  Fe86      1.0  0.38759  0.92347  0.93746  1.0000
  S   S179      1.0  0.35481  0.86259  0.74812  1.0000
  S   S180      1.0  0.17889  0.96162  0.88556  1.0000
  S   S181      1.0  0.32265  0.95810  0.79835  1.0000
  H   H541      1.0  0.27071  0.82310  0.85550  1.0000
  S   S182      1.0  0.40910  0.88299  0.86618  1.0000
  C   C549      1.0  0.03387  0.90974  0.86896  1.0000
  H   H542      1.0  0.21290  0.89279  0.77278  1.0000
  H   H543      1.0  0.35118  0.70259  0.79322  1.0000
  H   H544      1.0  0.38601  0.92707  0.84551  1.0000
  C   C550      1.0  0.33838  0.53308  0.94225  1.0000
  C   C551      1.0  0.31509  0.89986  0.78979  1.0000
  H   H545      1.0  0.13212  0.89979  0.77037  1.0000
  H   H546      1.0  0.27609  0.83554  0.89660  1.0000
  H   H547      1.0  0.24979  0.93373  0.93667  1.0000
  H   H548      1.0  0.36092  0.92306  0.88270  1.0000
  H   H549      1.0  0.34950  0.52301  0.89448  1.0000
  H   H550      1.0  0.33290  0.74525  0.85008  1.0000
  Fe  Fe87      1.0  0.32439  0.81022  0.75515  1.0000
  H   H551      1.0  0.41275  0.79988  0.80669  1.0000
  N   N46       1.0  0.22926  0.90828  0.82840  1.0000
  Fe  Fe88      1.0  0.30898  0.98885  0.77818  1.0000
  H   H552      1.0  0.28706  0.67756  0.77891  1.0000
  S   S183      1.0  0.13906  0.99545  0.92567  1.0000
  H   H553      1.0  0.32142  0.88597  0.91012  1.0000
  H   H554      1.0  0.15473  0.84556  0.83061  1.0000
  N   N47       1.0  0.38399  0.75133  0.79814  1.0000
  Fe  Fe89      1.0  0.31328  0.74183  0.75337  1.0000
  S   S184      1.0  0.11902  0.90803  0.91551  1.0000
  H   H555      1.0  0.35799  0.82917  0.88988  1.0000
  H   H556      1.0  0.21288  0.96674  0.80837  1.0000
  C   C552      1.0  0.04243  0.95441  0.93511  1.0000
  C   C553      1.0  0.18147  0.86586  0.80003  1.0000
  C   C554      1.0  0.39251  0.77730  0.81126  1.0000
  H   H557      1.0  0.31173  0.85473  0.78524  1.0000
  S   S185      1.0  0.33304  0.71032  0.74291  1.0000
  H   H558      1.0  0.10422  0.87429  0.80600  1.0000
  Fe  Fe90      1.0  0.15358  0.95943  0.91778  1.0000
  C   C555      1.0  0.35976  0.92048  0.75492  1.0000
  C   C556      1.0  0.33914  0.72046  0.82232  1.0000
  C   C557      1.0  0.32266  0.87868  0.77934  1.0000
  H   H559      1.0  0.34519  0.65950  0.73357  1.0000
  H   H560      1.0  0.37727  0.92866  0.74151  1.0000
  C   C558      1.0  0.09095  0.93706  0.86472  1.0000
  S   S186      1.0  0.34525  0.92627  0.95068  1.0000
  S   S187      1.0  0.27738  0.51359  0.92959  1.0000
  C   C559      1.0  0.31869  0.88043  0.89224  1.0000
  H   H561      1.0  0.39374  0.76472  0.76376  1.0000
  C   C560      1.0  0.29317  0.85221  0.88463  1.0000
  C   C561      1.0  0.18931  0.94663  0.80776  1.0000
  N   N48       1.0  0.03546  0.93667  0.87695  1.0000
  Fe  Fe91      1.0  0.14689  0.90945  0.88481  1.0000
  C   C562      1.0  0.06413  0.96384  0.87879  1.0000
  S   S188      1.0  0.17988  0.89813  0.90384  1.0000
  H   H562      1.0  0.33995  0.55562  0.94521  1.0000
  H   H563      1.0  0.25512  0.93007  0.79824  1.0000
  C   C563      1.0  0.29191  0.93023  0.94233  1.0000
  Fe  Fe92      1.0  0.21072  0.95044  0.90645  1.0000
  H   H564      1.0  0.36223  0.90459  0.82235  1.0000
  C   C564      1.0  0.36171  0.91647  0.83818  1.0000
  H   H565      1.0  0.29784  0.89183  0.80334  1.0000
  H   H566      1.0  0.20771  0.53215  0.85109  1.0000
  H   H567      1.0  0.31793  0.69823  0.82618  1.0000
  N   N49       1.0  0.33800  0.89418  0.85415  1.0000
  C   C565      1.0  0.34499  0.88881  0.76180  1.0000
  S   S189      1.0  0.22060  0.74334  0.72000  1.0000
  H   H568      1.0  0.16241  0.84997  0.78893  1.0000
  C   C566      1.0  0.03925  0.98099  0.93927  1.0000
  Fe  Fe93      1.0  0.41327  0.89624  0.90277  1.0000
  S   S190      1.0  0.42171  0.94512  0.90849  1.0000
  C   C567      1.0  0.35263  0.82719  0.87203  1.0000
  H   H569      1.0  0.38126  0.79603  0.84065  1.0000
  C   C568      1.0  0.07294  0.95797  0.93137  1.0000
  S   S191      1.0  0.19467  0.95058  0.76121  1.0000
  Fe  Fe94      1.0  0.24724  0.98415  0.76281  1.0000
  Fe  Fe95      1.0  0.15610  0.90302  0.93487  1.0000
  H   H570      1.0  0.35745  0.96228  0.90866  1.0000
  H   H571      1.0  0.36423  0.96621  0.76030  1.0000
  H   H572      1.0  0.07535  0.93756  0.92805  1.0000
  H   H573      1.0  0.06549  0.98510  0.88547  1.0000
  H   H574      1.0  0.42765  0.76955  0.77996  1.0000
  C   C569      1.0  0.27309  0.93977  0.93036  1.0000
  C   C570      1.0  0.17353  0.93215  0.82796  1.0000
  C   C571      1.0  0.20143  0.88493  0.83743  1.0000
  C   C572      1.0  0.20465  0.50923  0.81939  1.0000
  C   C573      1.0  0.28478  0.95776  0.91067  1.0000
  H   H575      1.0  0.18563  0.94064  0.84381  1.0000
  C   C574      1.0  0.32993  0.93146  0.78299  1.0000
  C   C575      1.0  0.32233  0.93813  0.93455  1.0000
  H   H576      1.0  0.31038  0.86093  0.82874  1.0000
  Fe  Fe96      1.0  0.41781  0.88507  0.95275  1.0000
  H   H577      1.0  0.19731  0.88359  0.85552  1.0000
  H   H578      1.0  0.06050  0.88815  0.85647  1.0000
  C   C576      1.0  0.06160  0.90952  0.86271  1.0000
  C   C577      1.0  0.25310  0.64254  0.72033  1.0000
  H   H579      1.0  0.29878  0.90591  0.73324  1.0000
  S   S192      1.0  0.27562  0.00222  0.79454  1.0000
  C   C578      1.0  0.36495  0.52959  0.94625  1.0000
  C   C579      1.0  0.19586  0.51029  0.84167  1.0000
  H   H580      1.0  0.22353  0.53023  0.81134  1.0000
  H   H581      1.0  0.28290  0.91681  0.95779  1.0000
  H   H582      1.0  0.11507  0.98567  0.87514  1.0000
  S   S193      1.0  0.30673  0.77283  0.72835  1.0000
  C   C580      1.0  0.23169  0.80409  0.72252  1.0000
  H   H583      1.0  0.32482  0.94459  0.72209  1.0000
  C   C581      1.0  0.30982  0.50763  0.93467  1.0000
  C   C582      1.0  0.10011  0.98814  0.93149  1.0000
  H   H584      1.0  0.12239  0.94128  0.96213  1.0000
  S   S194      1.0  0.14058  0.87065  0.96490  1.0000
  S   S195      1.0  0.42674  0.93303  0.96182  1.0000
  H   H585      1.0  0.38908  0.50524  0.89619  1.0000
  C   C583      1.0  0.30652  0.92021  0.71748  1.0000
  Fe  Fe97      1.0  0.79335  0.36152  0.07769  1.0000
  S   S196      1.0  0.75842  0.30977  0.07944  1.0000
  S   S197      1.0  0.79771  0.38701  0.04518  1.0000
  Fe  Fe98      1.0  0.81574  0.36412  0.12571  1.0000
  S   S198      1.0  0.78255  0.31264  0.13115  1.0000
  S   S199      1.0  0.84565  0.38835  0.15594  1.0000
  Fe  Fe99      1.0  0.79861  0.30741  0.09679  1.0000
  S   S200      1.0  0.81026  0.26926  0.08902  1.0000
  Fe  Fe100     1.0  0.74652  0.32105  0.11347  1.0000
  S   S201      1.0  0.69816  0.30438  0.12896  1.0000
  S   S202      1.0  0.83437  0.35835  0.09243  1.0000
  S   S203      1.0  0.77869  0.37321  0.11052  1.0000
  C   C584      1.0  0.96060  0.33474  0.16447  1.0000
  H   H586      1.0  0.52439  0.40738  0.12276  1.0000
  H   H587      1.0  0.77779  0.30305  0.97445  1.0000
  S   S204      1.0  0.88560  0.29052  0.18807  1.0000
  C   C585      1.0  0.89508  0.36221  0.04305  1.0000
  Fe  Fe101     1.0  0.54532  0.30046  0.09139  1.0000
  S   S205      1.0  0.56908  0.35191  0.08376  1.0000
  S   S206      1.0  0.57151  0.27500  0.08156  1.0000
  Fe  Fe102     1.0  0.54775  0.35607  0.11622  1.0000
  S   S207      1.0  0.57759  0.39173  0.14264  1.0000
  H   H588      1.0  0.89093  0.40160  0.05511  1.0000
  H   H589      1.0  0.74957  0.30509  0.00866  1.0000
  H   H590      1.0  0.79367  0.10766  0.20484  1.0000
  N   N50       1.0  0.52789  0.38351  0.15653  1.0000
  C   C586      1.0  0.90953  0.28207  0.07659  1.0000
  H   H591      1.0  0.71102  0.40887  0.99888  1.0000
  C   C587      1.0  0.96543  0.30768  0.19802  1.0000
  Fe  Fe103     1.0  0.99510  0.31423  0.08448  1.0000
  C   C588      1.0  0.72132  0.04164  0.20003  1.0000
  C   C589      1.0  0.71688  0.38111  0.05034  1.0000
  H   H592      1.0  0.61805  0.32011  0.03984  1.0000
  S   S208      1.0  0.61088  0.33344  0.97065  1.0000
  C   C590      1.0  0.83940  0.23919  0.13969  1.0000
  C   C591      1.0  0.60572  0.26782  0.16334  1.0000
  S   S209      1.0  0.86221  0.33888  0.97561  1.0000
  C   C592      1.0  0.55068  0.43233  0.17239  1.0000
  Fe  Fe104     1.0  0.52229  0.33994  0.06839  1.0000
  C   C593      1.0  0.82283  0.20824  0.17393  1.0000
  C   C594      1.0  0.56403  0.24349  0.13559  1.0000
  C   C595      1.0  0.53974  0.40964  0.13671  1.0000
  H   H593      1.0  0.65381  0.37662  0.00836  1.0000
  C   C596      1.0  0.54615  0.35238  0.01605  1.0000
  C   C597      1.0  0.56062  0.37150  0.99714  1.0000
  S   S210      1.0  0.94605  0.28435  0.06946  1.0000
  C   C598      1.0  0.93307  0.40238  0.00898  1.0000
  C   C599      1.0  0.56931  0.32008  0.00577  1.0000
  C   C600      1.0  0.55050  0.32664  0.02030  1.0000
  H   H594      1.0  0.55768  0.39161  0.99379  1.0000
  C   C601      1.0  0.92597  0.37098  0.00986  1.0000
  C   C602      1.0  0.85931  0.35710  0.18877  1.0000
  H   H595      1.0  0.53934  0.31164  0.03476  1.0000
  H   H596      1.0  0.62576  0.46296  0.16041  1.0000
  C   C603      1.0  0.52546  0.46557  0.19994  1.0000
  H   H597      1.0  0.75177  0.41168  0.02597  1.0000
  H   H598      1.0  0.87822  0.30339  0.03750  1.0000
  C   C604      1.0  0.90129  0.39334  0.04249  1.0000
  H   H599      1.0  0.57078  0.21590  0.11051  1.0000
  C   C605      1.0  0.86760  0.33478  0.19605  1.0000
  C   C606      1.0  0.51853  0.42868  0.17056  1.0000
  C   C607      1.0  0.57726  0.44154  0.13799  1.0000
  H   H600      1.0  0.85181  0.24516  0.12362  1.0000
  H   H601      1.0  0.65204  0.23588  0.12589  1.0000
  N   N51       1.0  0.80948  0.24879  0.16773  1.0000
  C   C608      1.0  0.96577  0.38379  0.19077  1.0000
  H   H602      1.0  0.88341  0.23710  0.06023  1.0000
  H   H603      1.0  0.87993  0.34660  0.05631  1.0000
  H   H604      1.0  0.89358  0.30831  0.00949  1.0000
  C   C609      1.0  0.58459  0.33976  0.98730  1.0000
  C   C610      1.0  0.90708  0.30595  0.08798  1.0000
  H   H605      1.0  0.58604  0.45903  0.12467  1.0000
  C   C611      1.0  0.86006  0.36404  0.16570  1.0000
  N   N52       1.0  0.66226  0.36283  0.04070  1.0000
  H   H606      1.0  0.56482  0.27415  0.16188  1.0000
  C   C612      1.0  0.67149  0.37813  0.02035  1.0000
  C   C613      1.0  0.87941  0.32815  0.15737  1.0000
  C   C614      1.0  0.87022  0.34961  0.15006  1.0000
  C   C615      1.0  0.83898  0.21570  0.15332  1.0000
  H   H607      1.0  0.57255  0.30013  0.00915  1.0000
  H   H608      1.0  0.88713  0.31698  0.14514  1.0000
  H   H609      1.0  0.87095  0.35501  0.13229  1.0000
  C   C616      1.0  0.84915  0.27605  0.08414  1.0000
  C   C617      1.0  0.85195  0.25238  0.07310  1.0000
  H   H610      1.0  0.94792  0.41784  0.99551  1.0000
  H   H611      1.0  0.61632  0.28324  0.17773  1.0000
  C   C618      1.0  0.79451  0.26673  0.17550  1.0000
  C   C619      1.0  0.87682  0.30300  0.09164  1.0000
  H   H612      1.0  0.83082  0.23143  0.06737  1.0000
  H   H613      1.0  0.74587  0.08418  0.18020  1.0000
  C   C620      1.0  0.54855  0.38458  0.17785  1.0000
  H   H614      1.0  0.87488  0.32128  0.10044  1.0000
  C   C621      1.0  0.66854  0.30446  0.11191  1.0000
  C   C622      1.0  0.65908  0.28693  0.09197  1.0000
  C   C623      1.0  0.62990  0.27942  0.08196  1.0000
  C   C624      1.0  0.61056  0.29012  0.09150  1.0000
  C   C625      1.0  0.62144  0.31013  0.11017  1.0000
  C   C626      1.0  0.65016  0.31685  0.12057  1.0000
  H   H615      1.0  0.67301  0.27708  0.08530  1.0000
  H   H616      1.0  0.62161  0.26409  0.06739  1.0000
  H   H617      1.0  0.60673  0.31865  0.11753  1.0000
  H   H618      1.0  0.65736  0.33035  0.13605  1.0000
  C   C627      1.0  0.81597  0.37416  0.02575  1.0000
  C   C628      1.0  0.82836  0.39054  0.00549  1.0000
  C   C629      1.0  0.84262  0.37981  0.98993  1.0000
  C   C630      1.0  0.84425  0.35260  0.99457  1.0000
  C   C631      1.0  0.83102  0.33578  0.01451  1.0000
  C   C632      1.0  0.81737  0.34681  0.03023  1.0000
  H   H619      1.0  0.82695  0.41148  0.00183  1.0000
  C   C633      1.0  0.58681  0.41493  0.18027  1.0000
  H   H620      1.0  0.83174  0.31443  0.01800  1.0000
  H   H621      1.0  0.80763  0.33382  0.04569  1.0000
  H   H622      1.0  0.60182  0.41545  0.19398  1.0000
  H   H623      1.0  0.73450  0.38191  0.06210  1.0000
  C   C634      1.0  0.95970  0.36002  0.15415  1.0000
  C   C635      1.0  0.74589  0.34481  0.99680  1.0000
  C   C636      1.0  0.62587  0.22097  0.12360  1.0000
  C   C637      1.0  0.68440  0.36361  0.05546  1.0000
  H   H624      1.0  0.54216  0.24017  0.12805  1.0000
  C   C638      1.0  0.55590  0.47113  0.20330  1.0000
  H   H625      1.0  0.59253  0.46373  0.19502  1.0000
  H   H626      1.0  0.92501  0.43755  0.02448  1.0000
  C   C639      1.0  0.96233  0.38468  0.16743  1.0000
  H   H627      1.0  0.62165  0.21860  0.10506  1.0000
  N   N53       1.0  0.96448  0.33428  0.18735  1.0000
  H   H628      1.0  0.61510  0.35546  0.03887  1.0000
  S   S211      1.0  0.52814  0.30536  0.12546  1.0000
  H   H629      1.0  0.85157  0.39220  0.97416  1.0000
  H   H630      1.0  0.73445  0.34638  0.01208  1.0000
  H   H631      1.0  0.85122  0.36812  0.20085  1.0000
  N   N54       1.0  0.60903  0.23550  0.13421  1.0000
  H   H632      1.0  0.86607  0.32866  0.21376  1.0000
  H   H633      1.0  0.76989  0.25602  0.16889  1.0000
  C   C640      1.0  0.62838  0.34454  0.04632  1.0000
  H   H634      1.0  0.61785  0.19741  0.13112  1.0000
  H   H635      1.0  0.62445  0.34354  0.06486  1.0000
  N   N55       1.0  0.90679  0.35124  0.02654  1.0000
  H   H636      1.0  0.91988  0.31667  0.03352  1.0000
  C   C641      1.0  0.89935  0.31833  0.02681  1.0000
  C   C642      1.0  0.56829  0.45610  0.19011  1.0000
  C   C643      1.0  0.74704  0.07116  0.19467  1.0000
  C   C644      1.0  0.87738  0.32016  0.18024  1.0000
  C   C645      1.0  0.75302  0.36645  0.97926  1.0000
  C   C646      1.0  0.72659  0.39774  0.02999  1.0000
  H   H637      1.0  0.79540  0.21895  0.19685  1.0000
  H   H638      1.0  0.67703  0.35084  0.07137  1.0000
  H   H639      1.0  0.95857  0.31568  0.15404  1.0000
  C   C647      1.0  0.70378  0.39613  0.01481  1.0000
  H   H640      1.0  0.53905  0.36578  0.19020  1.0000
  H   H641      1.0  0.93504  0.36221  0.99671  1.0000
  C   C648      1.0  0.62150  0.25380  0.15300  1.0000
  H   H642      1.0  0.82229  0.19005  0.18476  1.0000
  C   C649      1.0  0.92031  0.41347  0.02528  1.0000
  H   H643      1.0  0.85126  0.20344  0.14792  1.0000
  C   C650      1.0  0.80785  0.22492  0.18080  1.0000
  C   C651      1.0  0.82416  0.25539  0.14710  1.0000
  C   C652      1.0  0.88181  0.25553  0.06915  1.0000
  H   H644      1.0  0.92841  0.32669  0.09364  1.0000
  H   H645      1.0  0.82489  0.27387  0.13652  1.0000
  C   C653      1.0  0.60137  0.44398  0.15980  1.0000
  H   H646      1.0  0.95689  0.36038  0.13601  1.0000
  H   H647      1.0  0.96159  0.40441  0.15967  1.0000
  H   H648      1.0  0.80820  0.29159  0.16958  1.0000
  H   H649      1.0  0.79423  0.26770  0.19425  1.0000
  C   C654      1.0  0.57687  0.26271  0.15448  1.0000
  S   S212      1.0  0.52355  0.36133  0.03469  1.0000
  C   C655      1.0  0.57998  0.36533  0.98289  1.0000
  H   H650      1.0  0.64443  0.25871  0.15954  1.0000
  S   S213      1.0  0.66202  0.42119  0.96863  1.0000
  C   C656      1.0  0.58045  0.22987  0.12567  1.0000
  H   H651      1.0  0.96799  0.40296  0.20120  1.0000
  C   C657      1.0  0.75434  0.32155  0.99489  1.0000
  H   H652      1.0  0.74680  0.38484  0.98051  1.0000
  H   H653      1.0  0.70010  0.03145  0.18963  1.0000
  C   C658      1.0  0.96654  0.35812  0.20053  1.0000
  S   S214      1.0  0.01194  0.36067  0.10143  1.0000
  C   C659      1.0  0.77037  0.32058  0.97553  1.0000
  H   H654      1.0  0.81473  0.45769  0.97628  1.0000
  H   H655      1.0  0.97183  0.29476  0.18561  1.0000
  H   H656      1.0  0.94186  0.29110  0.20543  1.0000
  C   C660      1.0  0.77397  0.08424  0.20839  1.0000
  H   H657      1.0  0.98372  0.31603  0.21150  1.0000
  H   H658      1.0  0.57044  0.48756  0.21629  1.0000
  H   H659      1.0  0.59137  0.38049  0.96854  1.0000
  S   S215      1.0  0.68981  0.02935  0.27475  1.0000
  S   S216      1.0  0.54482  0.45221  0.26220  1.0000
  C   C661      1.0  0.98378  0.28708  0.26819  1.0000
  H   H660      1.0  0.66909  0.09268  0.38025  1.0000
  C   C662      1.0  0.51646  0.44331  0.39281  1.0000
  C   C663      1.0  0.00878  0.38236  0.31474  1.0000
  C   C664      1.0  0.96595  0.44351  0.44811  1.0000
  H   H661      1.0  0.75043  0.07949  0.28977  1.0000
  S   S217      1.0  0.94779  0.25058  0.26689  1.0000
  C   C665      1.0  0.95542  0.36991  0.30522  1.0000
  C   C666      1.0  0.65854  0.03752  0.33057  1.0000
  H   H662      1.0  0.81724  0.24549  0.36420  1.0000
  C   C667      1.0  0.74413  0.08751  0.27460  1.0000
  H   H663      1.0  0.74858  0.28738  0.41042  1.0000
  Fe  Fe105     1.0  0.83476  0.30638  0.44867  1.0000
  C   C668      1.0  0.73860  0.21247  0.37642  1.0000
  S   S218      1.0  0.63400  0.50404  0.27745  1.0000
  H   H664      1.0  0.97373  0.28894  0.31576  1.0000
  S   S219      1.0  0.69461  0.14363  0.41523  1.0000
  H   H665      1.0  0.96920  0.35754  0.21867  1.0000
  H   H666      1.0  0.64097  0.08819  0.30426  1.0000
  H   H667      1.0  0.62772  0.04825  0.29708  1.0000
  C   C669      1.0  0.57426  0.03616  0.33808  1.0000
  Fe  Fe106     1.0  0.85297  0.26429  0.27226  1.0000
  S   S220      1.0  0.85522  0.21996  0.27749  1.0000
  S   S221      1.0  0.84353  0.28952  0.30028  1.0000
  H   H668      1.0  0.94740  0.28952  0.33711  1.0000
  S   S222      1.0  0.87591  0.22631  0.22478  1.0000
  Fe  Fe107     1.0  0.82980  0.20492  0.24403  1.0000
  S   S223      1.0  0.78752  0.16039  0.22983  1.0000
  Fe  Fe108     1.0  0.90080  0.24653  0.25753  1.0000
  C   C670      1.0  0.94527  0.33796  0.30846  1.0000
  S   S224      1.0  0.82461  0.24788  0.24014  1.0000
  S   S225      1.0  0.89964  0.29123  0.25423  1.0000
  S   S226      1.0  0.85872  0.27768  0.45230  1.0000
  H   H669      1.0  0.93854  0.37724  0.30024  1.0000
  C   C671      1.0  0.76682  0.21481  0.36857  1.0000
  Fe  Fe109     1.0  0.88980  0.30803  0.42391  1.0000
  S   S227      1.0  0.86373  0.33465  0.41886  1.0000
  S   S228      1.0  0.90350  0.28784  0.39476  1.0000
  S   S229      1.0  0.61207  0.01874  0.24517  1.0000
  S   S230      1.0  0.92571  0.42185  0.43937  1.0000
  H   H670      1.0  0.76737  0.01196  0.24867  1.0000
  H   H671      1.0  0.96612  0.40449  0.46478  1.0000
  N   N56       1.0  0.65526  0.06336  0.32707  1.0000
  C   C672      1.0  0.71465  0.06803  0.26419  1.0000
  C   C673      1.0  0.86070  0.28928  0.32635  1.0000
  C   C674      1.0  0.86520  0.31173  0.34269  1.0000
  C   C675      1.0  0.87903  0.31195  0.36358  1.0000
  C   C676      1.0  0.88775  0.28930  0.36838  1.0000
  C   C677      1.0  0.88371  0.26720  0.35191  1.0000
  C   C678      1.0  0.87033  0.26727  0.33093  1.0000
  H   H672      1.0  0.85833  0.32920  0.33908  1.0000
  H   H673      1.0  0.88338  0.32995  0.37575  1.0000
  H   H674      1.0  0.89049  0.24966  0.35551  1.0000
  H   H675      1.0  0.86697  0.24986  0.31855  1.0000
  C   C679      1.0  0.71881  0.17942  0.42957  1.0000
  C   C680      1.0  0.97998  0.42898  0.46009  1.0000
  C   C681      1.0  0.79516  0.24342  0.37021  1.0000
  H   H676      1.0  0.97375  0.48721  0.43348  1.0000
  C   C682      1.0  0.77131  0.22618  0.43353  1.0000
  C   C683      1.0  0.75183  0.19508  0.42604  1.0000
  H   H677      1.0  0.71656  0.19009  0.37584  1.0000
  H   H678      1.0  0.67339  0.04471  0.38687  1.0000
  H   H679      1.0  0.99134  0.39679  0.42183  1.0000
  H   H680      1.0  0.76228  0.18348  0.41677  1.0000
  H   H681      1.0  0.00918  0.26475  0.28103  1.0000
  C   C684      1.0  0.98388  0.40368  0.40605  1.0000
  C   C685      1.0  0.98442  0.47566  0.44264  1.0000
  H   H682      1.0  0.99564  0.41715  0.30604  1.0000
  C   C686      1.0  0.66624  0.07711  0.36631  1.0000
  C   C687      1.0  0.66881  0.05032  0.37006  1.0000
  C   C688      1.0  0.76726  0.29439  0.39722  1.0000
  S   S231      1.0  0.53844  0.05923  0.45936  1.0000
  C   C689      1.0  0.99778  0.35022  0.31793  1.0000
  H   H683      1.0  0.93456  0.27979  0.30806  1.0000
  H   H684      1.0  0.59438  0.05051  0.37128  1.0000
  H   H685      1.0  0.55279  0.48948  0.40377  1.0000
  C   C690      1.0  0.72875  0.10798  0.23508  1.0000
  C   C691      1.0  0.75869  0.12701  0.24501  1.0000
  C   C692      1.0  0.76602  0.11697  0.26514  1.0000
  C   C693      1.0  0.70673  0.07877  0.24470  1.0000
  H   H686      1.0  0.79557  0.07818  0.23818  1.0000
  H   H687      1.0  0.66646  0.00927  0.35495  1.0000
  H   H688      1.0  0.78905  0.13128  0.27288  1.0000
  Fe  Fe110     1.0  0.61002  0.03289  0.41745  1.0000
  H   H689      1.0  0.79023  0.31019  0.40573  1.0000
  S   S232      1.0  0.78115  0.28216  0.45204  1.0000
  H   H690      1.0  0.95871  0.39751  0.40862  1.0000
  C   C694      1.0  0.99238  0.45247  0.38817  1.0000
  Fe  Fe111     1.0  0.58469  0.06162  0.45027  1.0000
  Fe  Fe112     1.0  0.65255  0.10132  0.43156  1.0000
  C   C695      1.0  0.75786  0.24204  0.44444  1.0000
  H   H691      1.0  0.96582  0.31660  0.25565  1.0000
  C   C696      1.0  0.79489  0.26936  0.37978  1.0000
  C   C697      1.0  0.70553  0.19482  0.44133  1.0000
  C   C698      1.0  0.73922  0.23883  0.38603  1.0000
  N   N57       1.0  0.00392  0.43744  0.40137  1.0000
  N   N58       1.0  0.76720  0.26674  0.38776  1.0000
  N   N59       1.0  0.96640  0.32850  0.31468  1.0000
  H   H692      1.0  0.81701  0.29153  0.38093  1.0000
  C   C699      1.0  0.95496  0.29509  0.31918  1.0000
  H   H693      1.0  0.65689  0.10387  0.34184  1.0000
  S   S233      1.0  0.58741  0.01757  0.45148  1.0000
  H   H694      1.0  0.92040  0.32080  0.30589  1.0000
  H   H695      1.0  0.57812  0.05919  0.33342  1.0000
  H   H696      1.0  0.68421  0.06405  0.23645  1.0000
  H   H697      1.0  0.71733  0.23657  0.39263  1.0000
  H   H698      1.0  0.99065  0.01013  0.41203  1.0000
  Fe  Fe113     1.0  0.52801  0.48562  0.25220  1.0000
  H   H699      1.0  0.79652  0.23819  0.43003  1.0000
  H   H700      1.0  0.76681  0.19441  0.36148  1.0000
  C   C700      1.0  0.58355  0.03127  0.35952  1.0000
  S   S234      1.0  0.55575  0.48258  0.31264  1.0000
  C   C701      1.0  0.01218  0.44616  0.46621  1.0000
  H   H701      1.0  0.66905  0.07749  0.29310  1.0000
  H   H702      1.0  0.76323  0.30766  0.38362  1.0000
  C   C702      1.0  0.53329  0.48107  0.45881  1.0000
  S   S235      1.0  0.60436  0.07536  0.41508  1.0000
  C   C703      1.0  0.77481  0.06752  0.22733  1.0000
  C   C704      1.0  0.72500  0.22607  0.44865  1.0000
  S   S236      1.0  0.65943  0.05919  0.43127  1.0000
  S   S237      1.0  0.92666  0.34353  0.44706  1.0000
  C   C705      1.0  0.64804  0.06982  0.30428  1.0000
  H   H703      1.0  0.98517  0.38970  0.39179  1.0000
  C   C706      1.0  0.65936  0.08330  0.34455  1.0000
  C   C707      1.0  0.52835  0.49183  0.37407  1.0000
  C   C708      1.0  0.98623  0.31602  0.26220  1.0000
  Fe  Fe114     1.0  0.89903  0.36870  0.44394  1.0000
  N   N60       1.0  0.74945  0.03864  0.23253  1.0000
  C   C709      1.0  0.66493  0.03037  0.35213  1.0000
  H   H704      1.0  0.68006  0.18320  0.44384  1.0000
  Fe  Fe115     1.0  0.87190  0.26974  0.22277  1.0000
  Fe  Fe116     1.0  0.58357  0.49444  0.28030  1.0000
  C   C710      1.0  0.98738  0.39223  0.30847  1.0000
  H   H705      1.0  0.65610  0.02217  0.31668  1.0000
  C   C711      1.0  0.01071  0.28687  0.27638  1.0000
  C   C712      1.0  0.53451  0.47617  0.39135  1.0000
  C   C713      1.0  0.56163  0.01171  0.32227  1.0000
  H   H706      1.0  0.52389  0.00746  0.38527  1.0000
  S   S238      1.0  0.55587  0.01909  0.29410  1.0000
  H   H707      1.0  0.96839  0.43970  0.38155  1.0000
  H   H708      1.0  0.71439  0.23815  0.45712  1.0000
  C   C714      1.0  0.72292  0.02559  0.21916  1.0000
  H   H709      1.0  0.54348  0.00779  0.41125  1.0000
  H   H710      1.0  0.94598  0.01602  0.45765  1.0000
  H   H711      1.0  0.52086  0.43142  0.40664  1.0000
  H   H712      1.0  0.72289  0.11547  0.21947  1.0000
  C   C715      1.0  0.01114  0.48462  0.38334  1.0000
  H   H713      1.0  0.00203  0.49650  0.37281  1.0000
  Fe  Fe117     1.0  0.63626  0.04859  0.46518  1.0000
  C   C716      1.0  0.75128  0.02144  0.25226  1.0000
  H   H714      1.0  0.76016  0.03724  0.26718  1.0000
  Fe  Fe118     1.0  0.51527  0.44391  0.29330  1.0000
  S   S239      1.0  0.63237  0.09232  0.46683  1.0000
  C   C717      1.0  0.85799  0.30437  0.61184  1.0000
  H   H715      1.0  0.75707  0.43720  0.69597  1.0000
  H   H716      1.0  0.76301  0.26830  0.51636  1.0000
  C   C718      1.0  0.98261  0.03559  0.48306  1.0000
  Fe  Fe119     1.0  0.74587  0.07279  0.59868  1.0000
  H   H717      1.0  0.82557  0.28933  0.67275  1.0000
  H   H718      1.0  0.80702  0.03845  0.52369  1.0000
  Fe  Fe120     1.0  0.84063  0.38049  0.58740  1.0000
  S   S240      1.0  0.80733  0.37046  0.55852  1.0000
  S   S241      1.0  0.89066  0.38961  0.58433  1.0000
  Fe  Fe121     1.0  0.79027  0.37096  0.62163  1.0000
  S   S242      1.0  0.75238  0.35914  0.59550  1.0000
  S   S243      1.0  0.78555  0.37416  0.65891  1.0000
  Fe  Fe122     1.0  0.77227  0.33023  0.58010  1.0000
  S   S244      1.0  0.74985  0.28130  0.56501  1.0000
  Fe  Fe123     1.0  0.79159  0.40062  0.57679  1.0000
  S   S245      1.0  0.79454  0.44253  0.55801  1.0000
  S   S246      1.0  0.80673  0.33906  0.60796  1.0000
  S   S247      1.0  0.82808  0.41375  0.60407  1.0000
  H   H719      1.0  0.80681  0.24482  0.64618  1.0000
  S   S248      1.0  0.79205  0.08636  0.58169  1.0000
  C   C719      1.0  0.78940  0.28170  0.51559  1.0000
  Fe  Fe124     1.0  0.76523  0.14192  0.60916  1.0000
  S   S249      1.0  0.81283  0.16051  0.59285  1.0000
  S   S250      1.0  0.75334  0.17607  0.62593  1.0000
  Fe  Fe125     1.0  0.78597  0.12478  0.56598  1.0000
  S   S251      1.0  0.78889  0.13394  0.52873  1.0000
  Fe  Fe126     1.0  0.81334  0.12014  0.61055  1.0000
  S   S252      1.0  0.85283  0.12535  0.63279  1.0000
  S   S253      1.0  0.73803  0.10914  0.58111  1.0000
  S   S254      1.0  0.76737  0.10373  0.62884  1.0000
  C   C720      1.0  0.99318  0.03006  0.50357  1.0000
  C   C721      1.0  0.75231  0.10500  0.51792  1.0000
  C   C722      1.0  0.73399  0.07739  0.53034  1.0000
  C   C723      1.0  0.70386  0.05487  0.52275  1.0000
  C   C724      1.0  0.69198  0.05969  0.50256  1.0000
  H   H720      1.0  0.80472  0.47395  0.66762  1.0000
  H   H721      1.0  0.85171  0.36209  0.66004  1.0000
  H   H722      1.0  0.74307  0.07310  0.54578  1.0000
  H   H723      1.0  0.82711  0.25444  0.60679  1.0000
  H   H724      1.0  0.87175  0.22747  0.69700  1.0000
  H   H725      1.0  0.65626  0.07503  0.58173  1.0000
  C   C725      1.0  0.81314  0.03686  0.67651  1.0000
  C   C726      1.0  0.79985  0.03570  0.65530  1.0000
  C   C727      1.0  0.81217  0.06285  0.64178  1.0000
  C   C728      1.0  0.83853  0.09089  0.64906  1.0000
  C   C729      1.0  0.85257  0.09169  0.66987  1.0000
  H   H726      1.0  0.69216  0.12449  0.60777  1.0000
  H   H727      1.0  0.80140  0.06200  0.62564  1.0000
  N   N61       1.0  0.90934  0.42360  0.51425  1.0000
  C   C730      1.0  0.75171  0.25255  0.58200  1.0000
  C   C731      1.0  0.75312  0.22741  0.57181  1.0000
  C   C732      1.0  0.75467  0.20432  0.58510  1.0000
  C   C733      1.0  0.75336  0.20551  0.60867  1.0000
  C   C734      1.0  0.75117  0.23017  0.61880  1.0000
  C   C735      1.0  0.75099  0.25396  0.60557  1.0000
  H   H728      1.0  0.75305  0.22582  0.55360  1.0000
  H   H729      1.0  0.75619  0.18526  0.57711  1.0000
  H   H730      1.0  0.74962  0.23091  0.63699  1.0000
  H   H731      1.0  0.74923  0.27283  0.61361  1.0000
  C   C736      1.0  0.77675  0.46448  0.56739  1.0000
  H   H732      1.0  0.81689  0.46007  0.64333  1.0000
  H   H733      1.0  0.65062  0.06027  0.54128  1.0000
  C   C737      1.0  0.88189  0.43845  0.54097  1.0000
  C   C738      1.0  0.73528  0.46911  0.58717  1.0000
  C   C739      1.0  0.74984  0.45134  0.58133  1.0000
  H   H734      1.0  0.84122  0.44027  0.52819  1.0000
  H   H735      1.0  0.78732  0.03292  0.55070  1.0000
  H   H736      1.0  0.87916  0.44457  0.55811  1.0000
  H   H737      1.0  0.73962  0.42716  0.58695  1.0000
  C   C740      1.0  0.89502  0.36624  0.56380  1.0000
  C   C741      1.0  0.92222  0.36321  0.56378  1.0000
  C   C742      1.0  0.92626  0.34517  0.54711  1.0000
  C   C743      1.0  0.90354  0.33088  0.53006  1.0000
  C   C744      1.0  0.87636  0.33382  0.53020  1.0000
  C   C745      1.0  0.87192  0.35113  0.54715  1.0000
  H   H738      1.0  0.94022  0.37482  0.57663  1.0000
  C   C746      1.0  0.74072  0.10965  0.49745  1.0000
  H   H739      1.0  0.85845  0.32224  0.51744  1.0000
  H   H740      1.0  0.85087  0.35316  0.54700  1.0000
  H   H741      1.0  0.87324  0.11312  0.67544  1.0000
  H   H742      1.0  0.75484  0.13096  0.48777  1.0000
  C   C747      1.0  0.81831  0.15737  0.67560  1.0000
  H   H743      1.0  0.79693  0.29451  0.49922  1.0000
  H   H744      1.0  0.81391  0.36496  0.69827  1.0000
  C   C748      1.0  0.82430  0.26842  0.64077  1.0000
  H   H745      1.0  0.68736  0.15767  0.60177  1.0000
  S   S255      1.0  0.86666  0.34389  0.47321  1.0000
  C   C749      1.0  0.77376  0.28515  0.69254  1.0000
  C   C750      1.0  0.75693  0.28288  0.67276  1.0000
  C   C751      1.0  0.76083  0.31025  0.66209  1.0000
  C   C752      1.0  0.78100  0.33980  0.67151  1.0000
  C   C753      1.0  0.79772  0.34206  0.69127  1.0000
  H   H746      1.0  0.80803  0.31704  0.71650  1.0000
  H   H747      1.0  0.74102  0.26002  0.66564  1.0000
  H   H748      1.0  0.74784  0.30845  0.64677  1.0000
  H   H749      1.0  0.73182  0.38051  0.68547  1.0000
  H   H750      1.0  0.79793  0.29966  0.52920  1.0000
  H   H751      1.0  0.84790  0.42595  0.48906  1.0000
  S   S256      1.0  0.70673  0.02205  0.60019  1.0000
  C   C754      1.0  0.84932  0.20876  0.69067  1.0000
  H   H752      1.0  0.88078  0.17172  0.66887  1.0000
  H   H753      1.0  0.86696  0.15407  0.69641  1.0000
  H   H754      1.0  0.77978  0.01402  0.64949  1.0000
  C   C755      1.0  0.66829  0.10779  0.52954  1.0000
  C   C756      1.0  0.67663  0.13189  0.59904  1.0000
  N   N62       1.0  0.67400  0.12385  0.57499  1.0000
  C   C757      1.0  0.79431  0.31483  0.70163  1.0000
  C   C758      1.0  0.67997  0.13907  0.53585  1.0000
  H   H755      1.0  0.82543  0.23572  0.69505  1.0000
  H   H756      1.0  0.94733  0.34288  0.54711  1.0000
  S   S257      1.0  0.90927  0.30955  0.50863  1.0000
  H   H757      1.0  0.69145  0.17109  0.56356  1.0000
  H   H758      1.0  0.68693  0.15722  0.52302  1.0000
  N   N63       1.0  0.85646  0.32363  0.64887  1.0000
  H   H759      1.0  0.68970  0.03374  0.53264  1.0000
  H   H760      1.0  0.65279  0.11997  0.60710  1.0000
  C   C759      1.0  0.78949  0.49578  0.56001  1.0000
  C   C760      1.0  0.83575  0.27385  0.61864  1.0000
  H   H761      1.0  0.84221  0.23980  0.55479  1.0000
  H   H762      1.0  0.89189  0.41576  0.48044  1.0000
  C   C761      1.0  0.79738  0.23953  0.50092  1.0000
  C   C762      1.0  0.66261  0.09313  0.56892  1.0000
  H   H763      1.0  0.77416  0.19365  0.67971  1.0000
  C   C763      1.0  0.82497  0.21849  0.52229  1.0000
  C   C764      1.0  0.83956  0.06486  0.68375  1.0000
  H   H764      1.0  0.54295  0.47065  0.47020  1.0000
  N   N64       1.0  0.80204  0.26018  0.51797  1.0000
  C   C765      1.0  0.93520  0.41736  0.50895  1.0000
  C   C766      1.0  0.79192  0.16169  0.67391  1.0000
  H   H765      1.0  0.71389  0.45846  0.59735  1.0000
  N   N65       1.0  0.84647  0.18070  0.68407  1.0000
  C   C767      1.0  0.86056  0.43593  0.52419  1.0000
  C   C768      1.0  0.81760  0.26018  0.53727  1.0000
  C   C769      1.0  0.82333  0.21372  0.68941  1.0000
  H   H766      1.0  0.79989  0.49685  0.60934  1.0000
  H   H767      1.0  0.78486  0.23940  0.48573  1.0000
  C   C770      1.0  0.87355  0.17534  0.68592  1.0000
  C   C771      1.0  0.79448  0.19002  0.68093  1.0000
  C   C772      1.0  0.86421  0.42775  0.50228  1.0000
  H   H768      1.0  0.81626  0.13530  0.67004  1.0000
  C   C773      1.0  0.80618  0.47441  0.64887  1.0000
  H   H769      1.0  0.92303  0.43459  0.54875  1.0000
  C   C774      1.0  0.74050  0.01861  0.50663  1.0000
  H   H770      1.0  0.78136  0.46331  0.64248  1.0000
  H   H771      1.0  0.80502  0.20198  0.48929  1.0000
  H   H772      1.0  0.83399  0.20224  0.52393  1.0000
  C   C775      1.0  0.86816  0.32910  0.62730  1.0000
  C   C776      1.0  0.83489  0.29374  0.65571  1.0000
  C   C777      1.0  0.65950  0.08463  0.54613  1.0000
  H   H773      1.0  0.76961  0.14331  0.66711  1.0000
  C   C778      1.0  0.74799  0.50041  0.57972  1.0000
  C   C779      1.0  0.88902  0.42184  0.49754  1.0000
  H   H774      1.0  0.95607  0.43912  0.50237  1.0000
  C   C780      1.0  0.82948  0.23950  0.53966  1.0000
  H   H775      1.0  0.89450  0.19541  0.69402  1.0000
  C   C781      1.0  0.80872  0.21836  0.50282  1.0000
  H   H776      1.0  0.94248  0.40901  0.52410  1.0000
  C   C782      1.0  0.90652  0.43253  0.53560  1.0000
  H   H777      1.0  0.92758  0.39849  0.49607  1.0000
  H   H778      1.0  0.66611  0.10144  0.51182  1.0000
  H   H779      1.0  0.74223  0.34444  0.70838  1.0000
  H   H780      1.0  0.89140  0.36776  0.66243  1.0000
  H   H781      1.0  0.86130  0.34275  0.68214  1.0000
  C   C783      1.0  0.71044  0.08699  0.48979  1.0000
  C   C784      1.0  0.86567  0.35032  0.66413  1.0000
  C   C785      1.0  0.68255  0.14673  0.55881  1.0000
  H   H782      1.0  0.82094  0.27629  0.55091  1.0000
  H   H783      1.0  0.88508  0.35283  0.62185  1.0000
  N   N66       1.0  0.75668  0.01183  0.52256  1.0000
  H   H784      1.0  0.85019  0.06586  0.70000  1.0000
  C   C786      1.0  0.76138  0.42107  0.70598  1.0000
  H   H785      1.0  0.86700  0.30909  0.59464  1.0000
  S   S258      1.0  0.65360  0.03174  0.49416  1.0000
  C   C787      1.0  0.75295  0.36895  0.71334  1.0000
  C   C788      1.0  0.74687  0.38926  0.70031  1.0000
  H   H786      1.0  0.70130  0.09082  0.47415  1.0000
  C   C789      1.0  0.78609  0.03715  0.53233  1.0000
  H   H787      1.0  0.76096  0.01090  0.60429  1.0000
  S   S259      1.0  0.77134  0.25133  0.70484  1.0000
  H   H788      1.0  0.74939  0.04266  0.50096  1.0000
  H   H789      1.0  0.78737  0.06043  0.53075  1.0000
  Fe  Fe127     1.0  0.89240  0.31665  0.47495  1.0000
  C   C790      1.0  0.95378  0.01252  0.47404  1.0000
  H   H790      1.0  0.99747  0.05721  0.47377  1.0000
  C   C791      1.0  0.57796  0.45088  0.93647  1.0000
  H   H791      1.0  0.77764  0.32447  0.92605  1.0000
  C   C792      1.0  0.78182  0.43218  0.72446  1.0000
  H   H792      1.0  0.92474  0.47779  0.80177  1.0000
  C   C793      1.0  0.86864  0.40354  0.75767  1.0000
  C   C794      1.0  0.83120  0.44156  0.92362  1.0000
  S   S260      1.0  0.94105  0.43659  0.90386  1.0000
  S   S261      1.0  0.84532  0.47014  0.79691  1.0000
  N   N67       1.0  0.63609  0.45549  0.84338  1.0000
  S   S262      1.0  0.87169  0.37468  0.91558  1.0000
  S   S263      1.0  0.69149  0.45748  0.92155  1.0000
  S   S264      1.0  0.86322  0.44541  0.90692  1.0000
  Fe  Fe128     1.0  0.82647  0.27157  0.78176  1.0000
  S   S265      1.0  0.87801  0.30369  0.77361  1.0000
  S   S266      1.0  0.81153  0.25836  0.81781  1.0000
  S   S267      1.0  0.81777  0.23580  0.75493  1.0000
  S   S268      1.0  0.80930  0.29860  0.76103  1.0000
  Fe  Fe129     1.0  0.79385  0.03278  0.77577  1.0000
  S   S269      1.0  0.84199  0.04711  0.78978  1.0000
  C   C795      1.0  0.64681  0.48710  0.84167  1.0000
  S   S270      1.0  0.91224  0.42704  0.95527  1.0000
  H   H793      1.0  0.82640  0.02780  0.84855  1.0000
  C   C796      1.0  0.90597  0.45771  0.83451  1.0000
  N   N68       1.0  0.77281  0.38001  0.73160  1.0000
  H   H794      1.0  0.61742  0.44486  0.89890  1.0000
  Fe  Fe130     1.0  0.85993  0.07413  0.75730  1.0000
  S   S271      1.0  0.90054  0.12432  0.75736  1.0000
  H   H795      1.0  0.87760  0.47729  0.75407  1.0000
  S   S272      1.0  0.81208  0.06231  0.74442  1.0000
  H   H796      1.0  0.62239  0.04801  0.94639  1.0000
  H   H797      1.0  0.81374  0.29195  0.85830  1.0000
  C   C797      1.0  0.92804  0.21529  0.74478  1.0000
  C   C798      1.0  0.92741  0.18687  0.74898  1.0000
  C   C799      1.0  0.89859  0.15861  0.75068  1.0000
  C   C800      1.0  0.86998  0.15907  0.74811  1.0000
  C   C801      1.0  0.87060  0.18802  0.74446  1.0000
  H   H798      1.0  0.94959  0.18682  0.75086  1.0000
  H   H799      1.0  0.84754  0.13733  0.74935  1.0000
  H   H800      1.0  0.81208  0.33323  0.94308  1.0000
  C   C802      1.0  0.63594  0.43793  0.82333  1.0000
  H   H801      1.0  0.51943  0.39269  0.90501  1.0000
  C   C803      1.0  0.83507  0.44896  0.94663  1.0000
  S   S273      1.0  0.00474  0.45728  0.95509  1.0000
  C   C804      1.0  0.80231  0.43418  0.91314  1.0000
  H   H802      1.0  0.69306  0.47112  0.87711  1.0000
  H   H803      1.0  0.57831  0.02429  0.88811  1.0000
  H   H804      1.0  0.51943  0.47074  0.93780  1.0000
  C   C805      1.0  0.79482  0.34107  0.93856  1.0000
  C   C806      1.0  0.86979  0.45387  0.76058  1.0000
  H   H805      1.0  0.83004  0.40621  0.80498  1.0000
  H   H806      1.0  0.56905  0.04226  0.94492  1.0000
  C   C807      1.0  0.87794  0.43372  0.74918  1.0000
  C   C808      1.0  0.56223  0.46765  0.94172  1.0000
  H   H807      1.0  0.88704  0.43118  0.86534  1.0000
  Fe  Fe131     1.0  0.91876  0.38405  0.90242  1.0000
  C   C809      1.0  0.89990  0.31433  0.84205  1.0000
  C   C810      1.0  0.87419  0.29124  0.82986  1.0000
  C   C811      1.0  0.84315  0.28361  0.83533  1.0000
  S   S274      1.0  0.93648  0.37917  0.93624  1.0000
  S   S275      1.0  0.68395  0.38698  0.93023  1.0000
  H   H808      1.0  0.73639  0.46656  0.80250  1.0000
  H   H809      1.0  0.87856  0.27967  0.81605  1.0000
  H   H810      1.0  0.75308  0.47653  0.89864  1.0000
  C   C812      1.0  0.78722  0.41120  0.73720  1.0000
  C   C813      1.0  0.60214  0.02536  0.94221  1.0000
  Fe  Fe132     1.0  0.95613  0.43114  0.93879  1.0000
  C   C814      1.0  0.81099  0.45076  0.95869  1.0000
  H   H811      1.0  0.79838  0.02179  0.87037  1.0000
  Fe  Fe133     1.0  0.89159  0.37526  0.94967  1.0000
  H   H812      1.0  0.51551  0.39683  0.96323  1.0000
  H   H813      1.0  0.63623  0.04480  0.89083  1.0000
  C   C815      1.0  0.76890  0.36466  0.96012  1.0000
  H   H814      1.0  0.80873  0.36474  0.93059  1.0000
  C   C816      1.0  0.80060  0.01705  0.85230  1.0000
  H   H815      1.0  0.80309  0.42005  0.75154  1.0000
  H   H816      1.0  0.65757  0.45223  0.81289  1.0000
  C   C817      1.0  0.63637  0.48896  0.88135  1.0000
  C   C818      1.0  0.57185  0.02209  0.94138  1.0000
  H   H817      1.0  0.72664  0.03444  0.83936  1.0000
  C   C819      1.0  0.84305  0.41381  0.78922  1.0000
  H   H818      1.0  0.01085  0.43856  0.90964  1.0000
  S   S276      1.0  0.85680  0.29737  0.72139  1.0000
  C   C820      1.0  0.70975  0.43999  0.83156  1.0000
  H   H819      1.0  0.85725  0.45484  0.95489  1.0000
  S   S277      1.0  0.86151  0.03392  0.73994  1.0000
  C   C821      1.0  0.62527  0.45675  0.88281  1.0000
  H   H820      1.0  0.77940  0.36286  0.76310  1.0000
  H   H821      1.0  0.79904  0.42831  0.89536  1.0000
  C   C822      1.0  0.90560  0.37607  0.81026  1.0000
  S   S278      1.0  0.62042  0.39296  0.92148  1.0000
  Fe  Fe134     1.0  0.89480  0.42685  0.92003  1.0000
  C   C823      1.0  0.51568  0.43057  0.92030  1.0000
  H   H822      1.0  0.63635  0.41611  0.82811  1.0000
  C   C824      1.0  0.62493  0.44016  0.86356  1.0000
  H   H823      1.0  0.88280  0.35462  0.81471  1.0000
  H   H824      1.0  0.90799  0.37631  0.79155  1.0000
  H   H825      1.0  0.92546  0.37425  0.81809  1.0000
  N   N69       1.0  0.85254  0.18467  0.80104  1.0000
  C   C825      1.0  0.87443  0.17487  0.80240  1.0000
  C   C826      1.0  0.82083  0.16318  0.79913  1.0000
  C   C827      1.0  0.86468  0.14275  0.80253  1.0000
  C   C828      1.0  0.81028  0.13086  0.79906  1.0000
  C   C829      1.0  0.83241  0.12070  0.80081  1.0000
  C   C830      1.0  0.86340  0.21846  0.80048  1.0000
  H   H826      1.0  0.89967  0.19190  0.80283  1.0000
  H   H827      1.0  0.80352  0.17099  0.79759  1.0000
  H   H828      1.0  0.88215  0.13504  0.80307  1.0000
  H   H829      1.0  0.78516  0.11367  0.79747  1.0000
  H   H830      1.0  0.82456  0.09576  0.80044  1.0000
  H   H831      1.0  0.88340  0.23145  0.81244  1.0000
  H   H832      1.0  0.87155  0.22794  0.78318  1.0000
  H   H833      1.0  0.84415  0.22328  0.80552  1.0000
  S   S279      1.0  0.88203  0.38032  0.74392  1.0000
  H   H834      1.0  0.84862  0.18841  0.74264  1.0000
  H   H835      1.0  0.80429  0.36342  0.74022  1.0000
  H   H836      1.0  0.85932  0.33283  0.87995  1.0000
  H   H837      1.0  0.92519  0.43036  0.78803  1.0000
  C   C831      1.0  0.69762  0.44108  0.85278  1.0000
  Fe  Fe135     1.0  0.70544  0.43334  0.94778  1.0000
  C   C832      1.0  0.86358  0.32115  0.86616  1.0000
  H   H838      1.0  0.79053  0.02866  0.84162  1.0000
  Fe  Fe136     1.0  0.64467  0.43888  0.93989  1.0000
  C   C833      1.0  0.72748  0.46770  0.81895  1.0000
  H   H839      1.0  0.90564  0.47837  0.84063  1.0000
  H   H840      1.0  0.95071  0.23680  0.74327  1.0000
  C   C834      1.0  0.91696  0.45748  0.81277  1.0000
  C   C835      1.0  0.77797  0.43530  0.92533  1.0000
  C   C836      1.0  0.78260  0.44454  0.94801  1.0000
  C   C837      1.0  0.91700  0.43052  0.80507  1.0000
  C   C838      1.0  0.70321  0.47003  0.86125  1.0000
  S   S280      1.0  0.78494  0.48802  0.76916  1.0000
  H   H841      1.0  0.75600  0.42991  0.91697  1.0000
  Fe  Fe137     1.0  0.86829  0.26919  0.74563  1.0000
  H   H842      1.0  0.92393  0.32078  0.83725  1.0000
  C   C839      1.0  0.89472  0.32989  0.85985  1.0000
  C   C840      1.0  0.83776  0.29794  0.85391  1.0000
  C   C841      1.0  0.78012  0.35892  0.74468  1.0000
  Fe  Fe138     1.0  0.80674  0.26669  0.73300  1.0000
  C   C842      1.0  0.89985  0.21625  0.74278  1.0000
  S   S281      1.0  0.76186  0.04015  0.79937  1.0000
  Fe  Fe139     1.0  0.86018  0.32801  0.75063  1.0000
  C   C843      1.0  0.85284  0.44420  0.78088  1.0000
  Fe  Fe140     1.0  0.63969  0.37615  0.94925  1.0000
  Fe  Fe141     1.0  0.81184  0.02005  0.72958  1.0000
  H   H843      1.0  0.70527  0.41763  0.82478  1.0000
  H   H844      1.0  0.84333  0.37018  0.78425  1.0000
  S   S282      1.0  0.92766  0.36226  0.87206  1.0000
  H   H845      1.0  0.76295  0.33370  0.74125  1.0000
  H   H846      1.0  0.61665  0.41514  0.86506  1.0000
  S   S283      1.0  0.61828  0.46612  0.94476  1.0000
  H   H847      1.0  0.57280  0.40936  0.92017  1.0000
  C   C844      1.0  0.53104  0.45732  0.93395  1.0000
  H   H848      1.0  0.88737  0.38411  0.85084  1.0000
  C   C845      1.0  0.85054  0.39335  0.77750  1.0000
  H   H849      1.0  0.61441  0.43141  0.81306  1.0000
  Fe  Fe142     1.0  0.66782  0.41021  0.90482  1.0000
  N   N70       1.0  0.90582  0.40433  0.81852  1.0000
  C   C846      1.0  0.89555  0.40458  0.84000  1.0000
  S   S284      1.0  0.67365  0.40581  0.86750  1.0000
  C   C847      1.0  0.53116  0.41354  0.91541  1.0000
  S   S285      1.0  0.64607  0.00717  0.93726  1.0000
  C   C848      1.0  0.89537  0.43119  0.84831  1.0000
  C   C849      1.0  0.56174  0.42319  0.92385  1.0000
  H   H850      1.0  0.77442  0.38153  0.94657  1.0000
  C   C850      1.0  0.62070  0.02125  0.88443  1.0000
  N   N71       1.0  0.77791  0.34234  0.95866  1.0000
  H   H851      1.0  0.89198  0.44177  0.73386  1.0000
  S   S286      1.0  0.90333  0.25329  0.73685  1.0000
  H   H852      1.0  0.79361  0.45697  0.72877  1.0000
  C   C851      1.0  0.72007  0.01093  0.83383  1.0000
  S   S287      1.0  0.75399  0.44957  0.96319  1.0000
  H   H853      1.0  0.80479  0.47590  0.83133  1.0000
  H   H854      1.0  0.76742  0.47938  0.85787  1.0000
  C   C852      1.0  0.81199  0.48355  0.84861  1.0000
  C   C853      1.0  0.77720  0.49734  0.90072  1.0000
  C   C854      1.0  0.79095  0.48562  0.86367  1.0000
  H   H855      1.0  0.57440  0.48900  0.95158  1.0000
  H   H856      1.0  0.78382  0.49775  0.91878  1.0000
  C   C855      1.0  0.72048  0.49764  0.84852  1.0000
  C   C856      1.0  0.73272  0.49654  0.82738  1.0000
  N   N72       1.0  0.79977  0.49504  0.88548  1.0000
  C   C857      1.0  0.84228  0.49121  0.85599  1.0000
  H   H857      1.0  0.85863  0.48934  0.84449  1.0000
  C   C858      1.0  0.85123  0.50104  0.87822  1.0000
  H   H858      1.0  0.63665  0.50183  0.89638  1.0000
  H   H859      1.0  0.65850  0.01068  0.88048  1.0000
  C   C859      1.0  0.64719  0.50434  0.86063  1.0000
  H   H860      1.0  0.65581  0.49928  0.82569  1.0000
  C   C860      1.0  0.58789  0.00940  0.88300  1.0000
  C   C861      1.0  0.73357  0.00678  0.81417  1.0000
  Fe  Fe143     1.0  0.83796  0.00542  0.77103  1.0000
  C   C862      1.0  0.82963  0.50309  0.89280  1.0000
  Fe  Fe144     1.0  0.87738  0.88020  0.10227  1.0000
  S   S288      1.0  0.86959  0.83142  0.09652  1.0000
  S   S289      1.0  0.89163  0.91560  0.07407  1.0000
  Fe  Fe145     1.0  0.86084  0.86860  0.15205  1.0000
  S   S290      1.0  0.85259  0.81978  0.14971  1.0000
  S   S291      1.0  0.85078  0.87933  0.18686  1.0000
  Fe  Fe146     1.0  0.89692  0.84004  0.12889  1.0000
  S   S292      1.0  0.93191  0.82533  0.14084  1.0000
  Fe  Fe147     1.0  0.82617  0.81695  0.11814  1.0000
  S   S293      1.0  0.77734  0.77475  0.11365  1.0000
  S   S294      1.0  0.90738  0.88971  0.13350  1.0000
  S   S295      1.0  0.83217  0.86496  0.12148  1.0000
  C   C863      1.0  0.73665  0.79542  0.06693  1.0000
  H   H861      1.0  0.87096  0.75500  0.14957  1.0000
  Fe  Fe148     1.0  0.59857  0.84301  0.10469  1.0000
  S   S296      1.0  0.63814  0.89273  0.09937  1.0000
  S   S297      1.0  0.55027  0.83440  0.09308  1.0000
  Fe  Fe149     1.0  0.64502  0.82113  0.12018  1.0000
  S   S298      1.0  0.68740  0.86899  0.11612  1.0000
  S   S299      1.0  0.65131  0.78061  0.13191  1.0000
  Fe  Fe150     1.0  0.65673  0.88569  0.13215  1.0000
  S   S300      1.0  0.67710  0.92248  0.15908  1.0000
  Fe  Fe151     1.0  0.66447  0.87079  0.08380  1.0000
  S   S301      1.0  0.69522  0.88853  0.05285  1.0000
  S   S302      1.0  0.61544  0.83750  0.13895  1.0000
  S   S303      1.0  0.62390  0.82138  0.08647  1.0000
  C   C864      1.0  0.51988  0.82554  0.13445  1.0000
  C   C865      1.0  0.60439  0.94961  0.18196  1.0000
  H   H862      1.0  0.77216  0.92737  0.01359  1.0000
  C   C866      1.0  0.88674  0.77884  0.20405  1.0000
  H   H863      1.0  0.67810  0.75276  0.07665  1.0000
  C   C867      1.0  0.74642  0.85126  0.17608  1.0000
  C   C868      1.0  0.89184  0.77227  0.18205  1.0000
  C   C869      1.0  0.99922  0.85125  0.09180  1.0000
  H   H864      1.0  0.00168  0.85729  0.07405  1.0000
  H   H865      1.0  0.58718  0.92393  0.11531  1.0000
  H   H866      1.0  0.92062  0.84476  0.05680  1.0000
  C   C870      1.0  0.64893  0.93268  0.16773  1.0000
  C   C871      1.0  0.61745  0.91562  0.16022  1.0000
  C   C872      1.0  0.59511  0.92391  0.16751  1.0000
  H   H867      1.0  0.88777  0.85020  0.19894  1.0000
  H   H868      1.0  0.61022  0.89582  0.14901  1.0000
  C   C873      1.0  0.94802  0.89500  0.05187  1.0000
  C   C874      1.0  0.67243  0.88158  0.02829  1.0000
  C   C875      1.0  0.68782  0.89220  0.00747  1.0000
  C   C876      1.0  0.67010  0.88729  0.98769  1.0000
  C   C877      1.0  0.63688  0.87145  0.98864  1.0000
  C   C878      1.0  0.62139  0.86032  0.00939  1.0000
  C   C879      1.0  0.63918  0.86562  0.02926  1.0000
  H   H869      1.0  0.71343  0.90458  0.00669  1.0000
  C   C880      1.0  0.52975  0.94332  0.12395  1.0000
  H   H870      1.0  0.57061  0.91005  0.16225  1.0000
  H   H871      1.0  0.62711  0.85754  0.04529  1.0000
  H   H872      1.0  0.83984  0.82815  0.02073  1.0000
  N   N73       1.0  0.71148  0.80065  0.06833  1.0000
  C   C881      1.0  0.60600  0.93804  0.98184  1.0000
  H   H873      1.0  0.98931  0.82710  0.15490  1.0000
  C   C882      1.0  0.99483  0.89273  0.18433  1.0000
  H   H874      1.0  0.59570  0.84811  0.01020  1.0000
  C   C883      1.0  0.81303  0.91719  0.98224  1.0000
  C   C884      1.0  0.55311  0.89111  0.97901  1.0000
  H   H875      1.0  0.91543  0.77762  0.17670  1.0000
  H   H876      1.0  0.68216  0.89573  0.97169  1.0000
  H   H877      1.0  0.71801  0.79202  0.19959  1.0000
  C   C885      1.0  0.78247  0.94045  0.99759  1.0000
  N   N74       1.0  0.83676  0.75284  0.17336  1.0000
  C   C886      1.0  0.77319  0.85149  0.06636  1.0000
  C   C887      1.0  0.71645  0.83069  0.06813  1.0000
  H   H878      1.0  0.54039  0.82602  0.14206  1.0000
  H   H879      1.0  0.80558  0.96197  0.00111  1.0000
  C   C888      1.0  0.54435  0.90735  0.09557  1.0000
  C   C889      1.0  0.65806  0.95804  0.18241  1.0000
  C   C890      1.0  0.82330  0.84384  0.20006  1.0000
  H   H880      1.0  0.81868  0.74499  0.13956  1.0000
  S   S304      1.0  0.86484  0.85456  0.97735  1.0000
  H   H881      1.0  0.73283  0.77162  0.06722  1.0000
  C   C891      1.0  0.77936  0.79009  0.19771  1.0000
  C   C892      1.0  0.80053  0.81873  0.18724  1.0000
  C   C893      1.0  0.74731  0.85655  0.06725  1.0000
  C   C894      1.0  0.63584  0.96660  0.18946  1.0000
  H   H882      1.0  0.76199  0.77070  0.18768  1.0000
  H   H883      1.0  0.79897  0.82145  0.16922  1.0000
  C   C895      1.0  0.72473  0.88585  0.17173  1.0000
  C   C896      1.0  0.92846  0.85732  0.02149  1.0000
  H   H884      1.0  0.63906  0.54845  0.21029  1.0000
  C   C897      1.0  0.52001  0.87673  0.97729  1.0000
  C   C898      1.0  0.85638  0.77210  0.21061  1.0000
  H   H885      1.0  0.68237  0.97104  0.18817  1.0000
  H   H886      1.0  0.66361  0.77954  0.08010  1.0000
  H   H887      1.0  0.66861  0.76846  0.05193  1.0000
  H   H888      1.0  0.68759  0.77559  0.17799  1.0000
  H   H889      1.0  0.95253  0.84640  0.09466  1.0000
  C   C899      1.0  0.74349  0.77805  0.12002  1.0000
  C   C900      1.0  0.71432  0.75040  0.12298  1.0000
  C   C901      1.0  0.68649  0.75170  0.12687  1.0000
  C   C902      1.0  0.68721  0.78061  0.12711  1.0000
  C   C903      1.0  0.71633  0.80845  0.12415  1.0000
  C   C904      1.0  0.74448  0.80718  0.12096  1.0000
  H   H890      1.0  0.71318  0.72778  0.12226  1.0000
  H   H891      1.0  0.66415  0.73008  0.12928  1.0000
  H   H892      1.0  0.71729  0.83094  0.12453  1.0000
  H   H893      1.0  0.76662  0.82869  0.11842  1.0000
  C   C905      1.0  0.88026  0.89909  0.04705  1.0000
  C   C906      1.0  0.86019  0.86670  0.04432  1.0000
  C   C907      1.0  0.85452  0.85338  0.02270  1.0000
  C   C908      1.0  0.86884  0.87243  0.00374  1.0000
  C   C909      1.0  0.88740  0.90505  0.00635  1.0000
  C   C910      1.0  0.89302  0.91838  0.02798  1.0000
  H   H894      1.0  0.84948  0.85181  0.05886  1.0000
  C   C911      1.0  0.67888  0.77400  0.06919  1.0000
  H   H895      1.0  0.89833  0.91997  0.99188  1.0000
  H   H896      1.0  0.90827  0.94353  0.03002  1.0000
  N   N75       1.0  0.71641  0.82589  0.17800  1.0000
  H   H897      1.0  0.93357  0.86765  0.17320  1.0000
  C   C912      1.0  0.69046  0.82992  0.17712  1.0000
  H   H898      1.0  0.55019  0.89308  0.08474  1.0000
  C   C913      1.0  0.69424  0.85993  0.17404  1.0000
  C   C914      1.0  0.55735  0.94144  0.98187  1.0000
  C   C915      1.0  0.99213  0.83423  0.13735  1.0000
  H   H899      1.0  0.00677  0.91865  0.18181  1.0000
  C   C916      1.0  0.71229  0.79447  0.18177  1.0000
  H   H900      1.0  0.79694  0.71291  0.15925  1.0000
  C   C917      1.0  0.91161  0.86036  0.20575  1.0000
  H   H901      1.0  0.83120  0.92977  0.99487  1.0000
  C   C918      1.0  0.97139  0.84511  0.10342  1.0000
  C   C919      1.0  0.51879  0.82879  0.11104  1.0000
  C   C920      1.0  0.75105  0.88155  0.17276  1.0000
  H   H902      1.0  0.97303  0.96041  0.00345  1.0000
  H   H903      1.0  0.80770  0.75240  0.20056  1.0000
  H   H904      1.0  0.55460  0.90020  0.21164  1.0000
  H   H905      1.0  0.57187  0.96690  0.98295  1.0000
  C   C921      1.0  0.96114  0.91935  0.03588  1.0000
  H   H906      1.0  0.78774  0.81641  0.06581  1.0000
  H   H907      1.0  0.52371  0.95716  0.13505  1.0000
  H   H908      1.0  0.69646  0.83478  0.06887  1.0000
  H   H909      1.0  0.57445  0.95720  0.14025  1.0000
  H   H910      1.0  0.64301  0.98641  0.20066  1.0000
  C   C922      1.0  0.94194  0.88222  0.00597  1.0000
  C   C923      1.0  0.76786  0.82073  0.06612  1.0000
  H   H911      1.0  0.75094  0.88030  0.06732  1.0000
  C   C924      1.0  0.96757  0.83605  0.12614  1.0000
  N   N76       1.0  0.96776  0.88255  0.19971  1.0000
  C   C925      1.0  0.55818  0.94317  0.12694  1.0000
  C   C926      1.0  0.97145  0.93853  0.99667  1.0000
  H   H912      1.0  0.72815  0.79053  0.17036  1.0000
  H   H913      1.0  0.95653  0.93245  0.98123  1.0000
  S   S305      1.0  0.57642  0.95967  0.19150  1.0000
  H   H914      1.0  0.67364  0.86308  0.17316  1.0000
  C   C927      1.0  0.81022  0.73891  0.15732  1.0000
  H   H915      1.0  0.94977  0.90034  0.06978  1.0000
  C   C928      1.0  0.83139  0.75845  0.19509  1.0000
  N   N77       1.0  0.95764  0.91277  0.01325  1.0000
  H   H916      1.0  0.79370  0.74819  0.16010  1.0000
  H   H917      1.0  0.99562  0.94359  0.99165  1.0000
  C   C929      1.0  0.86647  0.75930  0.16679  1.0000
  H   H918      1.0  0.79733  0.87130  0.06597  1.0000
  H   H919      1.0  0.56418  0.87656  0.97821  1.0000
  N   N78       1.0  0.57128  0.92307  0.98143  1.0000
  H   H920      1.0  0.72786  0.90917  0.16901  1.0000
  H   H921      1.0  0.91499  0.83320  0.01559  1.0000
  H   H922      1.0  0.97327  0.94352  0.04172  1.0000
  H   H923      1.0  0.66660  0.80984  0.17840  1.0000
  C   C930      1.0  0.56542  0.92478  0.11286  1.0000
  C   C931      1.0  0.93764  0.87009  0.19125  1.0000
  C   C932      1.0  0.93151  0.86381  0.04458  1.0000
  H   H924      1.0  0.77492  0.90151  0.17101  1.0000
  H   H925      1.0  0.76651  0.94880  0.99083  1.0000
  H   H926      1.0  0.93874  0.87691  0.98806  1.0000
  H   H927      1.0  0.76703  0.84821  0.17697  1.0000
  N   N79       1.0  0.51683  0.90821  0.09244  1.0000
  C   C933      1.0  0.52433  0.92785  0.98006  1.0000
  H   H928      1.0  0.61393  0.92140  0.98765  1.0000
  N   N80       1.0  0.78647  0.92020  0.98129  1.0000
  H   H929      1.0  0.61662  0.95858  0.99341  1.0000
  H   H930      1.0  0.98738  0.88096  0.16762  1.0000
  H   H931      1.0  0.51342  0.94258  0.97986  1.0000
  H   H932      1.0  0.01251  0.88689  0.19144  1.0000
  H   H933      1.0  0.90623  0.78894  0.21604  1.0000
  H   H934      1.0  0.83877  0.89632  0.96719  1.0000
  C   C934      1.0  0.53738  0.87563  0.21452  1.0000
  Fe  Fe152     1.0  0.58667  0.97135  0.22825  1.0000
  S   S306      1.0  0.61542  0.95252  0.24496  1.0000
  H   H935      1.0  0.78970  0.68748  0.35024  1.0000
  C   C935      1.0  0.55654  0.98198  0.32844  1.0000
  S   S307      1.0  0.60263  0.97741  0.29150  1.0000
  C   C936      1.0  0.73033  0.61195  0.34409  1.0000
  S   S308      1.0  0.01085  0.87987  0.31997  1.0000
  C   C937      1.0  0.99795  0.00441  0.42779  1.0000
  Fe  Fe153     1.0  0.57614  0.93390  0.27069  1.0000
  S   S309      1.0  0.55342  0.88565  0.28683  1.0000
  C   C938      1.0  0.62749  0.59120  0.33567  1.0000
  S   S310      1.0  0.54628  0.95015  0.25304  1.0000
  C   C939      1.0  0.56600  0.97717  0.34972  1.0000
  N   N81       1.0  0.76338  0.65658  0.37728  1.0000
  C   C940      1.0  0.94990  0.82987  0.31562  1.0000
  C   C941      1.0  0.53965  0.52578  0.43715  1.0000
  C   C942      1.0  0.77986  0.68068  0.39460  1.0000
  Fe  Fe154     1.0  0.66936  0.65318  0.45226  1.0000
  C   C943      1.0  0.91662  0.86418  0.22900  1.0000
  H   H936      1.0  0.76876  0.69572  0.39595  1.0000
  C   C944      1.0  0.97823  0.85100  0.30445  1.0000
  S   S311      1.0  0.70484  0.65697  0.42672  1.0000
  Fe  Fe155     1.0  0.57501  0.99499  0.27222  1.0000
  Fe  Fe156     1.0  0.79208  0.73399  0.31155  1.0000
  S   S312      1.0  0.82227  0.71206  0.30454  1.0000
  S   S313      1.0  0.78134  0.74197  0.34698  1.0000
  Fe  Fe157     1.0  0.77861  0.73817  0.26230  1.0000
  S   S314      1.0  0.80717  0.71613  0.25162  1.0000
  Fe  Fe158     1.0  0.78318  0.68234  0.28016  1.0000
  S   S315      1.0  0.76694  0.63087  0.27537  1.0000
  Fe  Fe159     1.0  0.84318  0.74842  0.27689  1.0000
  S   S316      1.0  0.89343  0.77745  0.26350  1.0000
  S   S317      1.0  0.75160  0.70176  0.28901  1.0000
  S   S318      1.0  0.81583  0.77264  0.28582  1.0000
  C   C945      1.0  0.70575  0.65147  0.23803  1.0000
  C   C946      1.0  0.80400  0.81122  0.23382  1.0000
  S   S319      1.0  0.75573  0.74938  0.23342  1.0000
  Fe  Fe160     1.0  0.89403  0.83543  0.43418  1.0000
  S   S320      1.0  0.87335  0.86453  0.42181  1.0000
  S   S321      1.0  0.90492  0.81094  0.40682  1.0000
  Fe  Fe161     1.0  0.91066  0.90249  0.44330  1.0000
  S   S322      1.0  0.94014  0.95036  0.42724  1.0000
  Fe  Fe162     1.0  0.84345  0.84744  0.45308  1.0000
  H   H937      1.0  0.89661  0.85668  0.24043  1.0000
  S   S323      1.0  0.93335  0.87440  0.45364  1.0000
  N   N82       1.0  0.66850  0.58678  0.23167  1.0000
  C   C947      1.0  0.81578  0.76062  0.36355  1.0000
  C   C948      1.0  0.81371  0.76903  0.38578  1.0000
  C   C949      1.0  0.84108  0.78416  0.39916  1.0000
  C   C950      1.0  0.87047  0.79035  0.39050  1.0000
  C   C951      1.0  0.87248  0.78146  0.36840  1.0000
  C   C952      1.0  0.84520  0.76696  0.35483  1.0000
  H   H938      1.0  0.79107  0.76424  0.39265  1.0000
  H   H939      1.0  0.83936  0.79095  0.41622  1.0000
  H   H940      1.0  0.89520  0.78629  0.36161  1.0000
  H   H941      1.0  0.84710  0.76093  0.33761  1.0000
  H   H942      1.0  0.99694  0.89742  0.22916  1.0000
  C   C953      1.0  0.71979  0.63378  0.23169  1.0000
  H   H943      1.0  0.66179  0.65004  0.24625  1.0000
  C   C954      1.0  0.76084  0.79519  0.45782  1.0000
  C   C955      1.0  0.76352  0.76877  0.45221  1.0000
  H   H944      1.0  0.96846  0.87085  0.40463  1.0000
  H   H945      1.0  0.80541  0.69597  0.39023  1.0000
  C   C956      1.0  0.65448  0.60396  0.23777  1.0000
  S   S324      1.0  0.79192  0.83420  0.45386  1.0000
  H   H946      1.0  0.64890  0.59470  0.32739  1.0000
  Fe  Fe163     1.0  0.53812  0.51358  0.29865  1.0000
  H   H947      1.0  0.89562  0.85778  0.37156  1.0000
  H   H948      1.0  0.71197  0.58765  0.22412  1.0000
  H   H949      1.0  0.51955  0.99173  0.46369  1.0000
  H   H950      1.0  0.90437  0.85205  0.34314  1.0000
  C   C957      1.0  0.67289  0.63652  0.24112  1.0000
  H   H951      1.0  0.52055  0.82183  0.30101  1.0000
  Fe  Fe164     1.0  0.62943  0.58145  0.44869  1.0000
  S   S325      1.0  0.53335  0.54591  0.32282  1.0000
  H   H952      1.0  0.00200  0.86503  0.27228  1.0000
  C   C958      1.0  0.97298  0.88693  0.22247  1.0000
  C   C959      1.0  0.95411  0.82602  0.26886  1.0000
  C   C960      1.0  0.70121  0.59764  0.28405  1.0000
  C   C961      1.0  0.72905  0.59696  0.27844  1.0000
  C   C962      1.0  0.72707  0.56808  0.27390  1.0000
  C   C963      1.0  0.98054  0.93963  0.33707  1.0000
  H   H953      1.0  0.56315  0.95439  0.35399  1.0000
  H   H954      1.0  0.70249  0.61987  0.28766  1.0000
  H   H955      1.0  0.74835  0.56724  0.26966  1.0000
  C   C964      1.0  0.69784  0.54015  0.27442  1.0000
  H   H956      1.0  0.72750  0.00159  0.25706  1.0000
  H   H957      1.0  0.84210  0.85956  0.23344  1.0000
  H   H958      1.0  0.55406  0.55003  0.43177  1.0000
  C   C965      1.0  0.92552  0.80540  0.27986  1.0000
  C   C966      1.0  0.92337  0.80747  0.30332  1.0000
  C   C967      1.0  0.55235  0.51254  0.45193  1.0000
  S   S326      1.0  0.59156  0.53423  0.46260  1.0000
  H   H959      1.0  0.94842  0.83073  0.33380  1.0000
  H   H960      1.0  0.90159  0.79135  0.31200  1.0000
  H   H961      1.0  0.85215  0.77703  0.22772  1.0000
  C   C968      1.0  0.98014  0.84916  0.28100  1.0000
  H   H962      1.0  0.70311  0.58158  0.37163  1.0000
  H   H963      1.0  0.69690  0.51810  0.27060  1.0000
  C   C969      1.0  0.70871  0.73405  0.46437  1.0000
  H   H964      1.0  0.99778  0.94792  0.32342  1.0000
  H   H965      1.0  0.76087  0.64790  0.32050  1.0000
  H   H966      1.0  0.59668  0.56285  0.30892  1.0000
  H   H967      1.0  0.54632  0.96285  0.31647  1.0000
  H   H968      1.0  0.62854  0.54211  0.23993  1.0000
  H   H969      1.0  0.64992  0.56968  0.28840  1.0000
  C   C970      1.0  0.73938  0.62728  0.38329  1.0000
  Fe  Fe165     1.0  0.66259  0.62152  0.40750  1.0000
  C   C971      1.0  0.93642  0.91785  0.37190  1.0000
  Fe  Fe166     1.0  0.63837  0.99875  0.26362  1.0000
  C   C972      1.0  0.95755  0.95020  0.36959  1.0000
  H   H970      1.0  0.91947  0.90966  0.38574  1.0000
  C   C973      1.0  0.82472  0.84016  0.22342  1.0000
  H   H971      1.0  0.62896  0.59243  0.24036  1.0000
  H   H972      1.0  0.80523  0.80856  0.25184  1.0000
  H   H973      1.0  0.77881  0.66987  0.41140  1.0000
  H   H974      1.0  0.95614  0.82410  0.25081  1.0000
  H   H975      1.0  0.73289  0.62140  0.40087  1.0000
  H   H976      1.0  0.95178  0.88141  0.25547  1.0000
  C   C974      1.0  0.75471  0.64191  0.33812  1.0000
  C   C975      1.0  0.66986  0.54044  0.27941  1.0000
  H   H977      1.0  0.73940  0.71781  0.45107  1.0000
  S   S327      1.0  0.66248  0.57985  0.42293  1.0000
  C   C976      1.0  0.57027  0.56887  0.33578  1.0000
  C   C977      1.0  0.60154  0.59925  0.36784  1.0000
  N   N83       1.0  0.69128  0.70961  0.37115  1.0000
  C   C978      1.0  0.66175  0.69143  0.38044  1.0000
  C   C979      1.0  0.71384  0.73570  0.38224  1.0000
  C   C980      1.0  0.65403  0.69946  0.40120  1.0000
  C   C981      1.0  0.70684  0.74459  0.40294  1.0000
  C   C982      1.0  0.67666  0.72636  0.41238  1.0000
  C   C983      1.0  0.69948  0.70050  0.34971  1.0000
  H   H978      1.0  0.64403  0.67039  0.37191  1.0000
  H   H979      1.0  0.73741  0.74981  0.37505  1.0000
  H   H980      1.0  0.63076  0.68478  0.40869  1.0000
  H   H981      1.0  0.72476  0.76532  0.41173  1.0000
  H   H982      1.0  0.67085  0.73283  0.42846  1.0000
  H   H983      1.0  0.71454  0.68972  0.35306  1.0000
  H   H984      1.0  0.67800  0.68293  0.34045  1.0000
  H   H985      1.0  0.71283  0.72135  0.33855  1.0000
  H   H986      1.0  0.78559  0.77197  0.44532  1.0000
  C   C984      1.0  0.72258  0.60453  0.36682  1.0000
  H   H987      1.0  0.81160  0.63537  0.45718  1.0000
  H   H988      1.0  0.71730  0.59460  0.33114  1.0000
  H   H989      1.0  0.72036  0.67668  0.24075  1.0000
  S   S328      1.0  0.56884  0.52837  0.26758  1.0000
  C   C985      1.0  0.57208  0.58215  0.35701  1.0000
  S   S329      1.0  0.62634  0.62092  0.43142  1.0000
  C   C986      1.0  0.78127  0.78615  0.22098  1.0000
  H   H990      1.0  0.60280  0.60914  0.38434  1.0000
  C   C987      1.0  0.70069  0.60129  0.22845  1.0000
  C   C988      1.0  0.73730  0.73813  0.45532  1.0000
  C   C989      1.0  0.67148  0.56927  0.28446  1.0000
  C   C990      1.0  0.98743  0.96857  0.45907  1.0000
  C   C991      1.0  0.59795  0.57320  0.32522  1.0000
  C   C992      1.0  0.62923  0.60390  0.35707  1.0000
  N   N84       1.0  0.93707  0.89697  0.35688  1.0000
  S   S330      1.0  0.86107  0.81498  0.46392  1.0000
  H   H991      1.0  0.55065  0.57872  0.36522  1.0000
  C   C993      1.0  0.95879  0.90748  0.33966  1.0000
  C   C994      1.0  0.91534  0.86304  0.35958  1.0000
  H   H992      1.0  0.95935  0.89099  0.32778  1.0000
  H   H993      1.0  0.95661  0.96673  0.38129  1.0000
  S   S331      1.0  0.66628  0.62601  0.36994  1.0000
  C   C995      1.0  0.97977  0.96110  0.35209  1.0000
  H   H994      1.0  0.66231  0.54037  0.23042  1.0000
  H   H995      1.0  0.92846  0.85149  0.36617  1.0000
  S   S332      1.0  0.74635  0.61283  0.44722  1.0000
  H   H996      1.0  0.54194  0.51732  0.37281  1.0000
  Fe  Fe167     1.0  0.70170  0.61525  0.44448  1.0000
  C   C996      1.0  0.77098  0.66413  0.35502  1.0000
  C   C997      1.0  0.97788  0.97573  0.43868  1.0000
  H   H997      1.0  0.56863  0.86880  0.23692  1.0000
  C   C998      1.0  0.54565  0.85786  0.22860  1.0000
  C   C999      1.0  0.94753  0.87796  0.23743  1.0000
  H   H998      1.0  0.70257  0.00296  0.22350  1.0000
  H   H999      1.0  0.74545  0.64497  0.23001  1.0000
  C   C1000     1.0  0.64866  0.55284  0.22773  1.0000
  H   H1000     1.0  0.99624  0.98615  0.35006  1.0000
  C   C1001     1.0  0.52022  0.00171  0.40357  1.0000
  H   H1001     1.0  0.98369  0.92075  0.42513  1.0000
  C   C1002     1.0  0.00652  0.89352  0.38032  1.0000
  C   C1003     1.0  0.58012  0.00193  0.36515  1.0000
  H   H1002     1.0  0.53228  0.95440  0.40849  1.0000
  H   H1003     1.0  0.68551  0.55358  0.46051  1.0000
  H   H1004     1.0  0.52954  0.81232  0.24378  1.0000
  C   C1004     1.0  0.98877  0.89291  0.39906  1.0000
  S   S333      1.0  0.59421  0.99554  0.39082  1.0000
  C   C1005     1.0  0.52373  0.82615  0.23241  1.0000
  C   C1006     1.0  0.99735  0.92081  0.41063  1.0000
  H   H1005     1.0  0.00006  0.87203  0.37104  1.0000
  C   C1007     1.0  0.73212  0.79084  0.46650  1.0000
  C   C1008     1.0  0.51417  0.85526  0.28127  1.0000
  N   N85       1.0  0.76717  0.68037  0.67644  1.0000
  H   H1006     1.0  0.93091  0.95135  0.53619  1.0000
  C   C1009     1.0  0.76611  0.71833  0.50261  1.0000
  C   C1010     1.0  0.80029  0.63733  0.47237  1.0000
  C   C1011     1.0  0.85563  0.91926  0.65469  1.0000
  H   H1007     1.0  0.75919  0.79103  0.51847  1.0000
  H   H1008     1.0  0.77227  0.56689  0.50346  1.0000
  Fe  Fe168     1.0  0.81683  0.89592  0.59295  1.0000
  S   S334      1.0  0.78121  0.87339  0.56530  1.0000
  S   S335      1.0  0.86953  0.92297  0.58752  1.0000
  Fe  Fe169     1.0  0.76695  0.86642  0.62934  1.0000
  S   S336      1.0  0.72721  0.84054  0.60459  1.0000
  S   S337      1.0  0.76071  0.86590  0.66685  1.0000
  Fe  Fe170     1.0  0.76177  0.82970  0.58680  1.0000
  S   S338      1.0  0.75669  0.78661  0.56866  1.0000
  Fe  Fe171     1.0  0.75084  0.88689  0.58576  1.0000
  S   S339      1.0  0.72143  0.90584  0.56934  1.0000
  S   S340      1.0  0.79936  0.85190  0.61332  1.0000
  S   S341      1.0  0.78833  0.91319  0.61174  1.0000
  H   H1009     1.0  0.86070  0.61854  0.68817  1.0000
  S   S342      1.0  0.80816  0.60022  0.58347  1.0000
  N   N86       1.0  0.69489  0.54380  0.49392  1.0000
  Fe  Fe172     1.0  0.75586  0.63539  0.60379  1.0000
  S   S343      1.0  0.80857  0.66445  0.60002  1.0000
  S   S344      1.0  0.73165  0.66080  0.61808  1.0000
  Fe  Fe173     1.0  0.80044  0.63772  0.56782  1.0000
  S   S345      1.0  0.82627  0.66440  0.53673  1.0000
  Fe  Fe174     1.0  0.81002  0.62382  0.61615  1.0000
  S   S346      1.0  0.84375  0.62925  0.64388  1.0000
  S   S347      1.0  0.74727  0.61041  0.57051  1.0000
  S   S348      1.0  0.75776  0.59660  0.62281  1.0000
  C   C1012     1.0  0.70033  0.96371  0.50477  1.0000
  C   C1013     1.0  0.80349  0.65061  0.51207  1.0000
  C   C1014     1.0  0.73773  0.71493  0.51132  1.0000
  H   H1010     1.0  0.65417  0.54400  0.48031  1.0000
  C   C1015     1.0  0.76240  0.80453  0.71173  1.0000
  C   C1016     1.0  0.92783  0.94871  0.51756  1.0000
  C   C1017     1.0  0.78961  0.77474  0.50531  1.0000
  C   C1018     1.0  0.93588  0.98410  0.48572  1.0000
  C   C1019     1.0  0.83666  0.54523  0.61123  1.0000
  C   C1020     1.0  0.84977  0.78739  0.54792  1.0000
  C   C1021     1.0  0.81899  0.51444  0.61953  1.0000
  C   C1022     1.0  0.80297  0.54123  0.68820  1.0000
  C   C1023     1.0  0.78945  0.54008  0.66709  1.0000
  C   C1024     1.0  0.80161  0.56722  0.65358  1.0000
  C   C1025     1.0  0.82737  0.59554  0.66111  1.0000
  C   C1026     1.0  0.84075  0.59671  0.68227  1.0000
  S   S349      1.0  0.66930  0.61381  0.47188  1.0000
  H   H1011     1.0  0.79166  0.56587  0.63702  1.0000
  Fe  Fe175     1.0  0.75558  0.57470  0.58906  1.0000
  C   C1027     1.0  0.75028  0.75229  0.58310  1.0000
  C   C1028     1.0  0.75811  0.73159  0.57225  1.0000
  C   C1029     1.0  0.75300  0.70380  0.58300  1.0000
  C   C1030     1.0  0.73938  0.69615  0.60455  1.0000
  C   C1031     1.0  0.73157  0.71686  0.61543  1.0000
  C   C1032     1.0  0.73736  0.74506  0.60487  1.0000
  H   H1012     1.0  0.76861  0.73725  0.55559  1.0000
  H   H1013     1.0  0.75912  0.68803  0.57447  1.0000
  H   H1014     1.0  0.72074  0.71100  0.63201  1.0000
  H   H1015     1.0  0.73113  0.76078  0.61337  1.0000
  C   C1033     1.0  0.71955  0.93926  0.57835  1.0000
  C   C1034     1.0  0.69210  0.94052  0.57300  1.0000
  H   H1016     1.0  0.66736  0.96663  0.57543  1.0000
  H   H1017     1.0  0.67793  0.94504  0.49826  1.0000
  H   H1018     1.0  0.68451  0.75767  0.47698  1.0000
  C   C1035     1.0  0.74458  0.96483  0.58957  1.0000
  H   H1019     1.0  0.67272  0.92101  0.56427  1.0000
  S   S350      1.0  0.91440  0.85601  0.51747  1.0000
  N   N87       1.0  0.83168  0.77660  0.58642  1.0000
  H   H1020     1.0  0.76599  0.96419  0.59366  1.0000
  C   C1036     1.0  0.88094  0.90299  0.56846  1.0000
  C   C1037     1.0  0.90950  0.90302  0.57181  1.0000
  C   C1038     1.0  0.91914  0.88764  0.55646  1.0000
  C   C1039     1.0  0.90073  0.87297  0.53736  1.0000
  C   C1040     1.0  0.87207  0.87274  0.53403  1.0000
  C   C1041     1.0  0.86210  0.88756  0.54965  1.0000
  H   H1021     1.0  0.92411  0.91484  0.58634  1.0000
  H   H1022     1.0  0.76000  0.64359  0.52713  1.0000
  H   H1023     1.0  0.85754  0.86117  0.51944  1.0000
  H   H1024     1.0  0.84034  0.88789  0.54670  1.0000
  H   H1025     1.0  0.76774  0.69776  0.49801  1.0000
  C   C1042     1.0  0.76094  0.77046  0.51404  1.0000
  C   C1043     1.0  0.70568  0.73647  0.52649  1.0000
  C   C1044     1.0  0.71175  0.99480  0.49786  1.0000
  H   H1026     1.0  0.79693  0.72681  0.68901  1.0000
  C   C1045     1.0  0.70352  0.97967  0.65120  1.0000
  Fe  Fe176     1.0  0.89828  0.85753  0.48224  1.0000
  H   H1027     1.0  0.86686  0.91710  0.63944  1.0000
  H   H1028     1.0  0.73746  0.96324  0.67729  1.0000
  C   C1046     1.0  0.75053  0.77917  0.67518  1.0000
  C   C1047     1.0  0.75199  0.80603  0.66536  1.0000
  C   C1048     1.0  0.75825  0.83194  0.67883  1.0000
  C   C1049     1.0  0.76302  0.83098  0.70205  1.0000
  C   C1050     1.0  0.74613  0.98131  0.52893  1.0000
  H   H1029     1.0  0.74560  0.75918  0.66474  1.0000
  H   H1030     1.0  0.74793  0.80650  0.64744  1.0000
  H   H1031     1.0  0.85668  0.80268  0.53323  1.0000
  H   H1032     1.0  0.80941  0.79835  0.50263  1.0000
  H   H1033     1.0  0.84303  0.65582  0.49226  1.0000
  C   C1051     1.0  0.69077  0.93021  0.63218  1.0000
  C   C1052     1.0  0.74185  0.99142  0.59537  1.0000
  C   C1053     1.0  0.74734  0.55839  0.50702  1.0000
  H   H1034     1.0  0.67585  0.93398  0.62044  1.0000
  C   C1054     1.0  0.75360  0.63105  0.49182  1.0000
  H   H1035     1.0  0.84452  0.72078  0.69202  1.0000
  H   H1036     1.0  0.85688  0.88117  0.67228  1.0000
  C   C1055     1.0  0.67286  0.53835  0.47526  1.0000
  H   H1037     1.0  0.78549  0.53771  0.56036  1.0000
  C   C1056     1.0  0.76494  0.65230  0.67069  1.0000
  H   H1038     1.0  0.80603  0.76531  0.61759  1.0000
  N   N88       1.0  0.94621  0.97907  0.50600  1.0000
  C   C1057     1.0  0.83313  0.74940  0.58603  1.0000
  C   C1058     1.0  0.82013  0.67281  0.68036  1.0000
  H   H1039     1.0  0.84084  0.66986  0.68178  1.0000
  H   H1040     1.0  0.85046  0.95762  0.64172  1.0000
  N   N89       1.0  0.70612  0.95119  0.64923  1.0000
  H   H1041     1.0  0.71730  0.87884  0.64222  1.0000
  C   C1059     1.0  0.70434  0.54241  0.53364  1.0000
  N   N90       1.0  0.82603  0.92432  0.69341  1.0000
  S   S351      1.0  0.72797  0.52144  0.58614  1.0000
  C   C1060     1.0  0.83137  0.94414  0.67553  1.0000
  H   H1042     1.0  0.75251  0.55671  0.54307  1.0000
  H   H1043     1.0  0.72441  0.99986  0.64308  1.0000
  H   H1044     1.0  0.93559  0.93203  0.51170  1.0000
  C   C1061     1.0  0.72959  0.92055  0.66157  1.0000
  H   H1045     1.0  0.81409  0.75144  0.49243  1.0000
  H   H1046     1.0  0.83104  0.55138  0.59493  1.0000
  H   H1047     1.0  0.78947  0.62575  0.66824  1.0000
  H   H1048     1.0  0.90194  0.93820  0.51429  1.0000
  C   C1062     1.0  0.84639  0.94202  0.65596  1.0000
  C   C1063     1.0  0.69459  0.90392  0.62936  1.0000
  H   H1049     1.0  0.70516  0.75891  0.52680  1.0000
  H   H1050     1.0  0.74530  0.70746  0.66832  1.0000
  C   C1064     1.0  0.82256  0.78613  0.60728  1.0000
  H   H1051     1.0  0.72869  0.62403  0.49179  1.0000
  H   H1052     1.0  0.94128  0.88776  0.55912  1.0000
  C   C1065     1.0  0.72533  0.94663  0.66381  1.0000
  H   H1053     1.0  0.70259  0.98551  0.66920  1.0000
  C   C1066     1.0  0.73903  0.68408  0.67547  1.0000
  C   C1067     1.0  0.79215  0.74847  0.49955  1.0000
  H   H1054     1.0  0.82660  0.73433  0.60085  1.0000
  H   H1055     1.0  0.83927  0.81745  0.56813  1.0000
  H   H1056     1.0  0.80971  0.79906  0.60339  1.0000
  C   C1068     1.0  0.75615  0.77857  0.69835  1.0000
  C   C1069     1.0  0.68381  0.53799  0.51566  1.0000
  H   H1057     1.0  0.87398  0.59246  0.61860  1.0000
  H   H1058     1.0  0.68502  0.71933  0.51633  1.0000
  H   H1059     1.0  0.71738  0.69148  0.51338  1.0000
  C   C1070     1.0  0.77122  0.64173  0.51190  1.0000
  N   N91       1.0  0.73543  0.74083  0.51683  1.0000
  C   C1071     1.0  0.81806  0.64884  0.49220  1.0000
  C   C1072     1.0  0.68912  0.96648  0.57921  1.0000
  H   H1060     1.0  0.85411  0.52305  0.66998  1.0000
  C   C1073     1.0  0.86766  0.55999  0.64547  1.0000
  C   C1074     1.0  0.79526  0.70468  0.68421  1.0000
  H   H1061     1.0  0.68305  0.88775  0.61546  1.0000
  H   H1062     1.0  0.82373  0.96155  0.67627  1.0000
  H   H1063     1.0  0.88588  0.57789  0.65610  1.0000
  C   C1075     1.0  0.86099  0.56817  0.62439  1.0000
  H   H1064     1.0  0.84352  0.71866  0.56607  1.0000
  C   C1076     1.0  0.82851  0.56961  0.69583  1.0000
  S   S352      1.0  0.75650  0.74595  0.71048  1.0000
  H   H1065     1.0  0.74501  0.91709  0.67310  1.0000
  H   H1066     1.0  0.83929  0.57067  0.71202  1.0000
  H   H1067     1.0  0.72011  0.66602  0.66459  1.0000
  H   H1068     1.0  0.72929  0.68226  0.69274  1.0000
  C   C1077     1.0  0.71382  0.99204  0.59041  1.0000
  H   H1069     1.0  0.74275  0.63308  0.66436  1.0000
  C   C1078     1.0  0.84009  0.79569  0.56776  1.0000
  C   C1079     1.0  0.79130  0.64805  0.67270  1.0000
  C   C1080     1.0  0.71409  0.89910  0.64421  1.0000
  H   H1070     1.0  0.76977  0.51817  0.66108  1.0000
  H   H1071     1.0  0.84404  0.80158  0.61738  1.0000
  H   H1072     1.0  0.70307  0.72778  0.54416  1.0000
  H   H1073     1.0  0.85871  0.75286  0.53210  1.0000
  C   C1081     1.0  0.82220  0.70137  0.68608  1.0000
  C   C1082     1.0  0.85099  0.75952  0.54730  1.0000
  C   C1083     1.0  0.84257  0.74035  0.56643  1.0000
  C   C1084     1.0  0.83504  0.90193  0.69232  1.0000
  H   H1074     1.0  0.70940  0.93268  0.52556  1.0000
  H   H1075     1.0  0.78273  0.91301  0.70947  1.0000
  C   C1085     1.0  0.73633  0.55288  0.52924  1.0000
  H   H1076     1.0  0.69561  0.53776  0.55092  1.0000
  C   C1086     1.0  0.85004  0.89913  0.67301  1.0000
  H   H1077     1.0  0.68182  0.97690  0.64271  1.0000
  C   C1087     1.0  0.72605  0.55322  0.48942  1.0000
  S   S353      1.0  0.79598  0.00365  0.69422  1.0000
  C   C1088     1.0  0.71786  0.95680  0.52012  1.0000
  H   H1078     1.0  0.69821  0.00056  0.48606  1.0000
  C   C1089     1.0  0.70643  0.76054  0.47001  1.0000
  S   S354      1.0  0.67500  0.69673  0.46921  1.0000
  H   H1079     1.0  0.97212  0.94650  0.46759  1.0000
  H   H1080     1.0  0.83026  0.88573  0.70627  1.0000
  H   H1081     1.0  0.76746  0.85075  0.71257  1.0000
  H   H1082     1.0  0.72983  0.81109  0.47077  1.0000
  H   H1083     1.0  0.81021  0.50610  0.54916  1.0000
  H   H1084     1.0  0.91410  0.96582  0.47816  1.0000
  S   S355      1.0  0.84506  0.79101  0.71564  1.0000
  H   H1085     1.0  0.75935  0.97574  0.54112  1.0000
  H   H1086     1.0  0.66114  0.51333  0.46995  1.0000
  H   H1087     1.0  0.73480  0.55739  0.47217  1.0000
  C   C1090     1.0  0.84948  0.52896  0.65325  1.0000
  S   S356      1.0  0.87859  0.88902  0.47353  1.0000
  H   H1088     1.0  0.65898  0.52991  0.51922  1.0000
  C   C1091     1.0  0.76812  0.62855  0.47210  1.0000
  S   S357      1.0  0.78904  0.50685  0.70448  1.0000
  C   C1092     1.0  0.80860  0.92581  0.71316  1.0000
  C   C1093     1.0  0.77549  0.51380  0.56638  1.0000
  N   N92       1.0  0.82516  0.50679  0.64045  1.0000
  H   H1089     1.0  0.98338  0.99699  0.53050  1.0000
  C   C1094     1.0  0.97463  0.00143  0.51484  1.0000
  S   S358      1.0  0.78806  0.98892  0.75953  1.0000
  S   S359      1.0  0.93593  0.86362  0.87502  1.0000
  H   H1090     1.0  0.62254  0.95623  0.86669  1.0000
  S   S360      1.0  0.87222  0.87404  0.91347  1.0000
  C   C1095     1.0  0.89373  0.91960  0.81893  1.0000
  H   H1091     1.0  0.76611  0.80397  0.72966  1.0000
  C   C1096     1.0  0.84670  0.89061  0.76693  1.0000
  C   C1097     1.0  0.81774  0.68100  0.79928  1.0000
  H   H1092     1.0  0.56459  0.93629  0.86444  1.0000
  H   H1093     1.0  0.99284  0.91706  0.89605  1.0000
  S   S361      1.0  0.76513  0.97252  0.94561  1.0000
  S   S362      1.0  0.94008  0.89125  0.93723  1.0000
  Fe  Fe177     1.0  0.83013  0.77410  0.77917  1.0000
  S   S363      1.0  0.87905  0.80297  0.76463  1.0000
  S   S364      1.0  0.82202  0.76309  0.81628  1.0000
  S   S365      1.0  0.81320  0.73480  0.75400  1.0000
  S   S366      1.0  0.80981  0.80009  0.76057  1.0000
  Fe  Fe178     1.0  0.78869  0.52984  0.78727  1.0000
  S   S367      1.0  0.83770  0.54591  0.80021  1.0000
  N   N93       1.0  0.78389  0.98317  0.84771  1.0000
  C   C1098     1.0  0.91213  0.89400  0.79214  1.0000
  C   C1099     1.0  0.79328  0.97191  0.82995  1.0000
  C   C1100     1.0  0.85224  0.94253  0.77197  1.0000
  H   H1094     1.0  0.88241  0.97775  0.74779  1.0000
  C   C1101     1.0  0.70252  0.95014  0.81946  1.0000
  Fe  Fe179     1.0  0.85385  0.57468  0.76827  1.0000
  S   S368      1.0  0.89277  0.62566  0.76962  1.0000
  H   H1095     1.0  0.79816  0.86826  0.93764  1.0000
  S   S369      1.0  0.80490  0.56131  0.75684  1.0000
  C   C1102     1.0  0.91034  0.82557  0.83841  1.0000
  Fe  Fe180     1.0  0.85738  0.82589  0.74372  1.0000
  S   S370      1.0  0.93756  0.93673  0.89649  1.0000
  Fe  Fe181     1.0  0.66916  0.93255  0.89359  1.0000
  C   C1103     1.0  0.89012  0.65720  0.75708  1.0000
  C   C1104     1.0  0.86148  0.65431  0.74912  1.0000
  H   H1096     1.0  0.86833  0.82576  0.88425  1.0000
  H   H1097     1.0  0.52892  0.94490  0.92688  1.0000
  H   H1098     1.0  0.83998  0.63165  0.74954  1.0000
  Fe  Fe182     1.0  0.80652  0.52122  0.73991  1.0000
  S   S371      1.0  0.62718  0.92486  0.91437  1.0000
  H   H1099     1.0  0.89642  0.94203  0.72741  1.0000
  H   H1100     1.0  0.89760  0.72858  0.79784  1.0000
  Fe  Fe183     1.0  0.64686  0.90587  0.94037  1.0000
  Fe  Fe184     1.0  0.89317  0.88549  0.94824  1.0000
  H   H1101     1.0  0.69574  0.92662  0.81387  1.0000
  H   H1102     1.0  0.75634  0.93738  0.90440  1.0000
  H   H1103     1.0  0.90108  0.87305  0.78093  1.0000
  H   H1104     1.0  0.81287  0.91490  0.72827  1.0000
  C   C1105     1.0  0.83692  0.63653  0.80358  1.0000
  H   H1105     1.0  0.83312  0.88824  0.85693  1.0000
  H   H1106     1.0  0.72430  0.51988  0.85505  1.0000
  C   C1106     1.0  0.76711  0.88486  0.94969  1.0000
  Fe  Fe185     1.0  0.66103  0.97149  0.92932  1.0000
  C   C1107     1.0  0.58021  0.96022  0.87007  1.0000
  H   H1107     1.0  0.84483  0.61936  0.80473  1.0000
  C   C1108     1.0  0.87311  0.81977  0.86776  1.0000
  C   C1109     1.0  0.84803  0.79697  0.85476  1.0000
  C   C1110     1.0  0.85399  0.78913  0.83330  1.0000
  H   H1108     1.0  0.89030  0.79631  0.80926  1.0000
  C   C1111     1.0  0.86767  0.90179  0.74860  1.0000
  Fe  Fe186     1.0  0.79849  0.76409  0.73357  1.0000
  H   H1109     1.0  0.82393  0.78592  0.86115  1.0000
  S   S372      1.0  0.84513  0.96824  0.78854  1.0000
  C   C1112     1.0  0.86072  0.68103  0.74073  1.0000
  C   C1113     1.0  0.54931  0.96730  0.93125  1.0000
  H   H1110     1.0  0.93446  0.83636  0.83211  1.0000
  H   H1111     1.0  0.73796  0.89424  0.83403  1.0000
  S   S373      1.0  0.68524  0.90802  0.91804  1.0000
  Fe  Fe187     1.0  0.89014  0.92582  0.91064  1.0000
  H   H1112     1.0  0.72075  0.91516  0.86591  1.0000
  H   H1113     1.0  0.78713  0.60166  0.80339  1.0000
  H   H1114     1.0  0.86960  0.73752  0.81119  1.0000
  S   S374      1.0  0.89037  0.74363  0.72647  1.0000
  S   S375      1.0  0.90835  0.93675  0.94623  1.0000
  C   C1114     1.0  0.88526  0.80307  0.82534  1.0000
  C   C1115     1.0  0.83944  0.91105  0.77880  1.0000
  S   S376      1.0  0.88010  0.87778  0.73488  1.0000
  C   C1116     1.0  0.53367  0.96688  0.87488  1.0000
  Fe  Fe188     1.0  0.86100  0.76483  0.73846  1.0000
  S   S377      1.0  0.66498  0.92168  0.85646  1.0000
  C   C1117     1.0  0.87275  0.72399  0.79738  1.0000
  H   H1115     1.0  0.86949  0.73290  0.78086  1.0000
  C   C1118     1.0  0.88013  0.93317  0.74157  1.0000
  C   C1119     1.0  0.79484  0.64900  0.80064  1.0000
  C   C1120     1.0  0.90425  0.83431  0.85949  1.0000
  N   N94       1.0  0.84943  0.69041  0.79976  1.0000
  H   H1116     1.0  0.82404  0.90248  0.79343  1.0000
  H   H1117     1.0  0.88427  0.67597  0.80234  1.0000
  H   H1118     1.0  0.01062  0.95860  0.89128  1.0000
  N   N95       1.0  0.88962  0.89244  0.80931  1.0000
  C   C1121     1.0  0.80020  0.93694  0.89909  1.0000
  C   C1122     1.0  0.86550  0.86380  0.81637  1.0000
  S   S378      1.0  0.00239  0.97906  0.94472  1.0000
  C   C1123     1.0  0.84471  0.86182  0.83347  1.0000
  Fe  Fe189     1.0  0.95410  0.94172  0.93243  1.0000
  C   C1124     1.0  0.77986  0.94477  0.91076  1.0000
  Fe  Fe190     1.0  0.92088  0.88559  0.90206  1.0000
  H   H1119     1.0  0.86211  0.84228  0.80869  1.0000
  H   H1120     1.0  0.58328  0.95096  0.92778  1.0000
  H   H1121     1.0  0.82573  0.83900  0.83904  1.0000
  H   H1122     1.0  0.83680  0.86647  0.77241  1.0000
  H   H1123     1.0  0.78459  0.93106  0.81066  1.0000
  H   H1124     1.0  0.83875  0.67865  0.73433  1.0000
  C   C1125     1.0  0.68993  0.95439  0.83959  1.0000
  H   H1125     1.0  0.52689  0.96886  0.85729  1.0000
  H   H1126     1.0  0.74983  0.97221  0.87400  1.0000
  C   C1126     1.0  0.54529  0.99324  0.93589  1.0000
  H   H1127     1.0  0.83658  0.51013  0.91018  1.0000
  C   C1127     1.0  0.58008  0.97072  0.93178  1.0000
  C   C1128     1.0  0.80456  0.62663  0.80266  1.0000
  S   S379      1.0  0.85568  0.93638  0.89218  1.0000
  C   C1129     1.0  0.79006  0.96223  0.93068  1.0000
  C   C1130     1.0  0.79453  0.88235  0.95014  1.0000
  H   H1128     1.0  0.68822  0.98824  0.86167  1.0000
  C   C1131     1.0  0.85917  0.66870  0.80220  1.0000
  H   H1129     1.0  0.76974  0.64161  0.79995  1.0000
  H   H1130     1.0  0.73481  0.97297  0.79166  1.0000
  C   C1132     1.0  0.63320  0.00199  0.87870  1.0000
  H   H1131     1.0  0.87446  0.50630  0.88433  1.0000
  S   S380      1.0  0.70214  0.98114  0.90660  1.0000
  H   H1132     1.0  0.81009  0.69835  0.79774  1.0000
  H   H1133     1.0  0.01102  0.88823  0.86750  1.0000
  H   H1134     1.0  0.93991  0.68930  0.76256  1.0000
  S   S381      1.0  0.67819  0.95226  0.95683  1.0000
  H   H1135     1.0  0.91267  0.94234  0.81323  1.0000
  C   C1133     1.0  0.87216  0.95341  0.75305  1.0000
  H   H1136     1.0  0.93321  0.89516  0.80042  1.0000
  C   C1134     1.0  0.72476  0.97635  0.80695  1.0000
  C   C1135     1.0  0.83038  0.94552  0.90773  1.0000
  Fe  Fe191     1.0  0.71548  0.95620  0.93254  1.0000
  C   C1136     1.0  0.84882  0.88937  0.84345  1.0000
  C   C1137     1.0  0.82027  0.97088  0.93930  1.0000
  H   H1137     1.0  0.79247  0.92401  0.88342  1.0000
  C   C1138     1.0  0.87334  0.91848  0.83607  1.0000
  Fe  Fe192     1.0  0.83546  0.50610  0.77988  1.0000
  C   C1139     1.0  0.00606  0.93609  0.88346  1.0000
  C   C1140     1.0  0.84022  0.96216  0.92804  1.0000
  H   H1138     1.0  0.86359  0.96917  0.93467  1.0000
  H   H1139     1.0  0.91976  0.91484  0.78094  1.0000
  H   H1140     1.0  0.87655  0.94003  0.84368  1.0000
  H   H1141     1.0  0.99062  0.93144  0.86844  1.0000
  S   S382      1.0  0.85701  0.53652  0.74910  1.0000
  H   H1142     1.0  0.82830  0.98444  0.95470  1.0000
  C   C1141     1.0  0.91713  0.71302  0.74758  1.0000
  C   C1142     1.0  0.91771  0.68676  0.75647  1.0000
  H   H1143     1.0  0.52017  0.94182  0.88036  1.0000
  C   C1143     1.0  0.75103  0.91916  0.83797  1.0000
  H   H1144     1.0  0.74923  0.87284  0.93679  1.0000
  C   C1144     1.0  0.61295  0.97135  0.87125  1.0000
  S   S383      1.0  0.75406  0.53135  0.81176  1.0000
  C   C1145     1.0  0.88874  0.71046  0.73978  1.0000
  H   H1145     1.0  0.61551  0.94636  0.96459  1.0000
  C   C1146     1.0  0.75803  0.96319  0.86042  1.0000
  C   C1147     1.0  0.74146  0.93086  0.85593  1.0000
  C   C1148     1.0  0.81750  0.89832  0.96665  1.0000
  C   C1149     1.0  0.77707  0.93977  0.82484  1.0000
  H   H1146     1.0  0.77615  0.51901  0.89690  1.0000
  C   C1150     1.0  0.69850  0.98481  0.84659  1.0000
  N   N96       1.0  0.56805  0.97904  0.87625  1.0000
  H   H1147     1.0  0.52611  0.98004  0.88625  1.0000
  H   H1148     1.0  0.74221  0.90612  0.96489  1.0000
  C   C1151     1.0  0.76328  0.90374  0.96565  1.0000
  S   S384      1.0  0.61495  0.86732  0.96406  1.0000
  H   H1149     1.0  0.81337  0.98780  0.81957  1.0000
  H   H1150     1.0  0.65608  0.52946  0.85932  1.0000
  C   C1152     1.0  0.60659  0.99996  0.93726  1.0000
  H   H1151     1.0  0.93897  0.73543  0.74652  1.0000
  H   H1152     1.0  0.81624  0.95068  0.71748  1.0000
