data_image0
_chemical_formula_structural       FeSCFeS2FeSFeS3FeS2FeS2FeSFeHS2HC2H3SH3CHC3H2CH2CHC7H5NC3H2CHNCH2C3H3C2HC2H2CH3CHC4HC2HCHSC2NCH5CHC5H2C3H4CHFeS2FeS2FeHFeS3FeS2FeS2FeCFeS3CH2S2CH4C2HCH3CHC2HC2H3C6H7CHC2H2CSCNCH2CHNC2H4CH2NC6H2CH5C2NCHCHCHC5SC2HCH4C3H2CHC3H3C2HS2CNCHCNHNCHFeH3CHC2H2CHCHCFeHSFeSC2S3HSCFeSFe2SFeS2FeSHFeSFeS3FeS2FeS2FeSFeS3C3H2C2H3C6H4C2HC6HCHC2HNC6H4CH2CH4CHNC2H2C2H5C2SC2H5C2HC5NC6H9SH2C2HCSH2FeH2C5H2CNCH2CH3NC6H5FeC4H2CNSHCNHCH5SH2CH2C3HFeSHFeS2FeSFeS3FeSCFeS2FeSFeS3FeS2H2FeCHSC2FeHSCFeS2CHCH4C2HCSNH6NHC6H4C2H2C6H4C6H5FeCNCH5C3HCH2CHSNC6H3CH4NH2SFeSC2H2C2HC4HC5HCHC2HS2CHC2H2C4NCHCHC2H2CHCH4CHCH4SH2C2HCH2CH2NC3HSHCHFeS2FeS2FeSFeS3FeS2FeSCFeHFeHS2CH4CH3C2H3CH2CH2C10H4C9HSCH3CHCHNC6H3CHNHCH4CHSCFeHC4H3CHCHC2HCHCH2NC2SC3SFeCHSCH5S2HCNH2FeS2FeS2FeSFeS3FeS2FeS2FeSFeS3H2C2H2C2H2C3HCHC2HNH2CHC6H4C2H2CH2C2HNC6H9N2HC4H2C2HCHNC3NC2HCH5CHCH3C2H2C2HFeS2FeS2FeSFeHS2FeS2FeHSFeHFeS3C4HNCHC2H4C2H2C6H4C2HNH3CHCHC2HCHCHCHNCHCNC6H8SCSC3HCHNHCH3C2H2CSH2CH3FeS2FeS2FeSFeS3FeS2FeS2FeSFeS3C2SCHCHNCH2CHC3H8SCHC7H4C2NH2CSC2H8C2HCSCH5C2NCH2CHCH3NCH3CH3C3HC5HSC2HC2H3CH3SC4HCH3CFeC2HCHCHC3HC3NHSCHCHCH2FeHFeS2FeHFeS2CSCFeS2CSFeS2FeS2FeSFeS3FeS2FeSCFeSFeCS2C6H4C6H4C7H4CHC2HC4H2C3HCSH2CH2CH4C4H4SC6HNCH4C2HCNC6H5CHFeNC6H6CSCH2CHSH2FeH3C2H2NC2H2CH2CH3C6H4CH6FeS2FeS2FeSFeCS2FeS2FeSHFeSFeS3CHFeHSHC2SFeS2FeC2HS2H2FeH3C6H4C6H2CHC6H4NHC3HFeC3H2C4NH2CH2C2H3SH2CHC3H2C3HC3H5C3SH2SH2CHSCFeCH2SH2NCHCNC6H10CHSC2HCHC2SC3H2NCSC2H2CH3C4HCH5CSFeS2FeS2FeHFeS3FeS2FeSHFeCFeS3HC2HC4H2C2NCHCHSHCH3C6H4SHC5H2C2SHCHC3HNCH2C2HC2HC3H2CNCHC2HCH3C3H2CHFeCH3CFeHCHC4H3C2H2SC3H5CHC2NHCH2SCNH2NHCHCHFeS2FeSCFeSFeHS2FeS2FeSCFeSFeS3CHCNHCHCHCH4CH4NHC7H4C2NCH3C2HSCH3CHCHCH3C2H2CHCHC2SC3HCHC3H3C2HC2H2CH2C2HNC2SCH2CH2NCH
_chemical_formula_sum              "Fe128 S256 C768 H768 N64"
_cell_length_a       38.8791
_cell_length_b       38.8889
_cell_length_c       76.5712
_cell_angle_alpha    91.3413
_cell_angle_beta     90.6595
_cell_angle_gamma    90.9896

_space_group_name_H-M_alt    "P 1"
_space_group_IT_number       1

loop_
  _space_group_symop_operation_xyz
  'x, y, z'

loop_
  _atom_site_type_symbol
  _atom_site_label
  _atom_site_symmetry_multiplicity
  _atom_site_fract_x
  _atom_site_fract_y
  _atom_site_fract_z
  _atom_site_occupancy
  Fe  Fe1       1.0  0.24196  0.48375  0.10116  1.0000
  S   S1        1.0  0.24848  0.45895  0.07444  1.0000
  C   C1        1.0  0.24500  0.04342  0.03160  1.0000
  Fe  Fe2       1.0  0.16941  0.45508  0.10467  1.0000
  S   S2        1.0  0.17043  0.42864  0.07852  1.0000
  S   S3        1.0  0.12234  0.45447  0.12172  1.0000
  Fe  Fe3       1.0  0.22335  0.41237  0.08613  1.0000
  S   S4        1.0  0.23420  0.35826  0.07625  1.0000
  Fe  Fe4       1.0  0.19510  0.47699  0.06900  1.0000
  S   S5        1.0  0.17326  0.49417  0.04315  1.0000
  S   S6        1.0  0.22095  0.43552  0.11334  1.0000
  S   S7        1.0  0.19003  0.50511  0.09472  1.0000
  Fe  Fe5       1.0  0.22878  0.17349  0.10898  1.0000
  S   S8        1.0  0.18438  0.15139  0.12370  1.0000
  S   S9        1.0  0.24894  0.22368  0.12097  1.0000
  Fe  Fe6       1.0  0.22883  0.11193  0.08312  1.0000
  S   S10       1.0  0.18411  0.08601  0.09588  1.0000
  S   S11       1.0  0.25573  0.08457  0.06094  1.0000
  Fe  Fe7       1.0  0.16192  0.13900  0.09722  1.0000
  S   S12       1.0  0.11014  0.15609  0.08767  1.0000
  Fe  Fe8       1.0  0.21162  0.10102  0.12100  1.0000
  H   H1        1.0  0.13497  0.51863  0.30547  1.0000
  S   S13       1.0  0.20481  0.16402  0.08252  1.0000
  S   S14       1.0  0.25782  0.12395  0.10822  1.0000
  H   H2        1.0  0.04046  0.17457  0.08221  1.0000
  C   C2        1.0  0.08225  0.48559  0.05649  1.0000
  C   C3        1.0  0.27056  0.15958  0.15369  1.0000
  H   H3        1.0  0.26071  0.48561  0.14233  1.0000
  H   H4        1.0  0.29363  0.05570  0.33201  1.0000
  H   H5        1.0  0.22925  0.10197  0.17781  1.0000
  S   S15       1.0  0.28334  0.52138  0.11130  1.0000
  H   H6        1.0  0.34856  0.10926  0.17040  1.0000
  H   H7        1.0  0.07975  0.05469  0.09879  1.0000
  H   H8        1.0  0.16184  0.29232  0.12710  1.0000
  C   C4        1.0  0.29395  0.11780  0.17236  1.0000
  H   H9        1.0  0.21166  0.13213  0.16324  1.0000
  C   C5        1.0  0.07390  0.12496  0.11396  1.0000
  C   C6        1.0  0.07293  0.14613  0.09945  1.0000
  C   C7        1.0  0.25584  0.04839  0.14990  1.0000
  H   H10       1.0  0.09830  0.11599  0.11885  1.0000
  H   H11       1.0  0.12647  0.49645  0.07297  1.0000
  C   C8        1.0  0.19170  0.53023  0.03312  1.0000
  H   H12       1.0  0.08741  0.10391  0.05861  1.0000
  H   H13       1.0  0.18162  0.07644  0.05683  1.0000
  C   C9        1.0  0.30307  0.16632  0.14678  1.0000
  H   H14       1.0  0.29062  0.09834  0.18217  1.0000
  C   C10       1.0  0.06149  0.09655  0.06232  1.0000
  C   C11       1.0  0.23961  0.32161  0.08910  1.0000
  C   C12       1.0  0.23850  0.28910  0.08074  1.0000
  C   C13       1.0  0.24108  0.25900  0.09042  1.0000
  C   C14       1.0  0.24552  0.26118  0.10854  1.0000
  C   C15       1.0  0.24722  0.29372  0.11693  1.0000
  C   C16       1.0  0.24398  0.32390  0.10725  1.0000
  H   H15       1.0  0.23537  0.28717  0.06669  1.0000
  H   H16       1.0  0.24023  0.23415  0.08379  1.0000
  H   H17       1.0  0.25095  0.29559  0.13094  1.0000
  H   H18       1.0  0.24526  0.34887  0.11379  1.0000
  H   H19       1.0  0.28507  0.07726  0.13141  1.0000
  N   N1        1.0  0.26626  0.13519  0.16611  1.0000
  C   C17       1.0  0.33133  0.14820  0.15281  1.0000
  C   C18       1.0  0.08146  0.42476  0.09573  1.0000
  C   C19       1.0  0.08265  0.44278  0.11173  1.0000
  H   H20       1.0  0.09187  0.51758  0.09794  1.0000
  H   H21       1.0  0.10482  0.41640  0.08972  1.0000
  C   C20       1.0  0.04983  0.41745  0.08740  1.0000
  H   H22       1.0  0.34122  0.05516  0.14095  1.0000
  N   N2        1.0  0.05625  0.07520  0.07604  1.0000
  C   C21       1.0  0.23205  0.12890  0.17336  1.0000
  H   H23       1.0  0.15544  0.33528  0.07656  1.0000
  H   H24       1.0  0.17152  0.35203  0.12388  1.0000
  C   C22       1.0  0.22962  0.06196  0.04531  1.0000
  C   C23       1.0  0.04303  0.11457  0.12185  1.0000
  C   C24       1.0  0.05177  0.45253  0.11962  1.0000
  H   H25       1.0  0.17920  0.36801  0.10265  1.0000
  H   H26       1.0  0.35663  0.15296  0.14743  1.0000
  H   H27       1.0  0.15635  0.23356  0.11409  1.0000
  C   C25       1.0  0.16111  0.35206  0.11030  1.0000
  C   C26       1.0  0.15161  0.25135  0.08778  1.0000
  H   H28       1.0  0.13555  0.36447  0.11038  1.0000
  C   C27       1.0  0.27980  0.50498  0.14620  1.0000
  C   C28       1.0  0.04129  0.15794  0.09333  1.0000
  H   H29       1.0  0.22758  0.14698  0.18450  1.0000
  H   H30       1.0  0.31325  0.10342  0.35226  1.0000
  C   C29       1.0  0.40404  0.50093  0.19649  1.0000
  H   H31       1.0  0.14945  0.22560  0.08201  1.0000
  H   H32       1.0  0.38664  0.52086  0.17213  1.0000
  H   H33       1.0  0.04370  0.09768  0.13287  1.0000
  C   C30       1.0  0.32186  0.07739  0.35423  1.0000
  H   H34       1.0  0.05249  0.46626  0.13208  1.0000
  C   C31       1.0  0.28606  0.05923  0.14185  1.0000
  C   C32       1.0  0.15137  0.28010  0.07720  1.0000
  C   C33       1.0  0.15846  0.28914  0.11308  1.0000
  C   C34       1.0  0.32686  0.12389  0.16575  1.0000
  H   H35       1.0  0.14943  0.27691  0.06312  1.0000
  C   C35       1.0  0.28901  0.50983  0.16392  1.0000
  C   C36       1.0  0.15530  0.25583  0.10583  1.0000
  H   H36       1.0  0.30615  0.18544  0.13676  1.0000
  C   C37       1.0  0.17345  0.04335  0.03408  1.0000
  H   H37       1.0  0.24876  0.17390  0.14895  1.0000
  S   S16       1.0  0.21535  0.06377  0.14326  1.0000
  C   C38       1.0  0.15465  0.31305  0.08488  1.0000
  C   C39       1.0  0.09869  0.49725  0.07184  1.0000
  N   N3        1.0  0.15824  0.31720  0.10261  1.0000
  C   C40       1.0  0.40807  0.51973  0.18128  1.0000
  H   H38       1.0  0.27692  0.49406  0.17365  1.0000
  H   H39       1.0  0.42809  0.48598  0.22058  1.0000
  H   H40       1.0  0.04924  0.40393  0.07488  1.0000
  H   H41       1.0  0.09745  0.47589  0.04569  1.0000
  H   H42       1.0  0.03777  0.12761  0.04266  1.0000
  C   C41       1.0  0.07924  0.50949  0.08576  1.0000
  H   H43       1.0  0.37963  0.48811  0.19906  1.0000
  C   C42       1.0  0.19375  0.06193  0.04648  1.0000
  C   C43       1.0  0.08588  0.06052  0.08501  1.0000
  C   C44       1.0  0.29523  0.52528  0.13356  1.0000
  C   C45       1.0  0.31795  0.04664  0.14730  1.0000
  C   C46       1.0  0.31073  0.05066  0.34295  1.0000
  H   H44       1.0  0.48286  0.51776  0.21477  1.0000
  H   H45       1.0  0.10792  0.07914  0.08548  1.0000
  C   C47       1.0  0.43115  0.49990  0.20857  1.0000
  C   C48       1.0  0.46183  0.51769  0.20532  1.0000
  C   C49       1.0  0.04632  0.48636  0.05528  1.0000
  H   H46       1.0  0.27273  0.04339  0.03059  1.0000
  H   H47       1.0  0.14573  0.04347  0.03507  1.0000
  H   H48       1.0  0.14486  0.53494  0.32735  1.0000
  H   H49       1.0  0.09383  0.03664  0.07806  1.0000
  C   C50       1.0  0.04337  0.50999  0.08410  1.0000
  H   H50       1.0  0.30965  0.04742  0.07973  1.0000
  Fe  Fe9       1.0  0.36717  0.40782  0.45735  1.0000
  S   S17       1.0  0.40247  0.42606  0.43650  1.0000
  S   S18       1.0  0.33584  0.36062  0.44923  1.0000
  Fe  Fe10      1.0  0.39213  0.46378  0.48308  1.0000
  S   S19       1.0  0.42940  0.48625  0.46404  1.0000
  S   S20       1.0  0.39780  0.47973  0.51157  1.0000
  Fe  Fe11      1.0  0.38619  0.47907  0.44442  1.0000
  H   H51       1.0  0.35001  0.03966  0.42828  1.0000
  Fe  Fe12      1.0  0.44227  0.43154  0.45765  1.0000
  S   S21       1.0  0.49394  0.40811  0.45276  1.0000
  S   S22       1.0  0.34735  0.46076  0.46393  1.0000
  S   S23       1.0  0.40829  0.40920  0.47795  1.0000
  Fe  Fe13      1.0  0.36524  0.11891  0.44133  1.0000
  S   S24       1.0  0.35389  0.12343  0.47016  1.0000
  S   S25       1.0  0.32366  0.10793  0.42077  1.0000
  Fe  Fe14      1.0  0.44020  0.14165  0.44635  1.0000
  S   S26       1.0  0.43469  0.14784  0.47522  1.0000
  S   S27       1.0  0.49072  0.15593  0.43391  1.0000
  Fe  Fe15      1.0  0.40494  0.09798  0.47354  1.0000
  C   C51       1.0  0.50902  0.24592  0.44971  1.0000
  Fe  Fe16      1.0  0.38466  0.17300  0.46926  1.0000
  S   S28       1.0  0.37540  0.22112  0.48557  1.0000
  S   S29       1.0  0.41417  0.08969  0.44476  1.0000
  S   S30       1.0  0.39228  0.17064  0.44034  1.0000
  C   C52       1.0  0.36319  0.05154  0.51224  1.0000
  H   H52       1.0  0.31471  0.20393  0.67172  1.0000
  H   H53       1.0  0.34188  0.52465  0.50091  1.0000
  S   S31       1.0  0.24568  0.35972  0.68168  1.0000
  S   S32       1.0  0.24871  0.10505  0.66853  1.0000
  C   C53       1.0  0.34223  0.51084  0.60555  1.0000
  H   H54       1.0  0.17160  0.35470  0.68091  1.0000
  H   H55       1.0  0.28975  0.49985  0.66846  1.0000
  H   H56       1.0  0.47896  0.07273  0.54656  1.0000
  H   H57       1.0  0.46155  0.35117  0.47112  1.0000
  C   C54       1.0  0.25111  0.29132  0.68780  1.0000
  C   C55       1.0  0.34399  0.07043  0.36813  1.0000
  H   H58       1.0  0.35062  0.06779  0.50294  1.0000
  C   C56       1.0  0.34911  0.53075  0.51433  1.0000
  H   H59       1.0  0.35235  0.09090  0.37720  1.0000
  H   H60       1.0  0.04298  0.48762  0.67764  1.0000
  H   H61       1.0  0.48072  0.42722  0.41292  1.0000
  C   C57       1.0  0.45617  0.26599  0.46223  1.0000
  H   H62       1.0  0.49700  0.11179  0.46354  1.0000
  C   C58       1.0  0.53004  0.43588  0.45438  1.0000
  C   C59       1.0  0.27675  0.07130  0.66316  1.0000
  H   H63       1.0  0.46636  0.21264  0.45616  1.0000
  C   C60       1.0  0.30776  0.03933  0.64063  1.0000
  C   C61       1.0  0.33054  0.03719  0.41808  1.0000
  H   H64       1.0  0.33347  0.44442  0.39472  1.0000
  H   H65       1.0  0.31897  0.04763  0.52902  1.0000
  H   H66       1.0  0.24282  0.28760  0.67433  1.0000
  C   C62       1.0  0.34698  0.32191  0.45935  1.0000
  C   C63       1.0  0.35814  0.32188  0.47678  1.0000
  C   C64       1.0  0.36597  0.29071  0.48476  1.0000
  C   C65       1.0  0.36345  0.25941  0.47529  1.0000
  C   C66       1.0  0.35276  0.25946  0.45778  1.0000
  C   C67       1.0  0.34409  0.29058  0.44992  1.0000
  H   H67       1.0  0.35995  0.34580  0.48426  1.0000
  H   H68       1.0  0.37414  0.29088  0.49832  1.0000
  H   H69       1.0  0.35061  0.23549  0.45037  1.0000
  H   H70       1.0  0.33529  0.29036  0.43646  1.0000
  H   H71       1.0  0.43369  0.32001  0.48067  1.0000
  H   H72       1.0  0.38355  0.07456  0.65823  1.0000
  H   H73       1.0  0.22905  0.44476  0.43091  1.0000
  C   C68       1.0  0.15237  0.35009  0.69126  1.0000
  H   H74       1.0  0.50185  0.48109  0.46157  1.0000
  C   C69       1.0  0.25190  0.44424  0.42291  1.0000
  C   C70       1.0  0.36826  0.09652  0.66213  1.0000
  H   H75       1.0  0.13493  0.28720  0.67946  1.0000
  H   H76       1.0  0.23042  0.47585  0.40303  1.0000
  C   C71       1.0  0.47624  0.23891  0.45607  1.0000
  S   S33       1.0  0.18676  0.43553  0.68185  1.0000
  C   C72       1.0  0.04375  0.47224  0.68923  1.0000
  N   N4        1.0  0.28188  0.46158  0.39718  1.0000
  C   C73       1.0  0.24792  0.52744  0.60935  1.0000
  H   H77       1.0  0.40332  0.50516  0.54646  1.0000
  H   H78       1.0  0.34652  0.48878  0.59641  1.0000
  C   C74       1.0  0.52249  0.12000  0.45972  1.0000
  H   H79       1.0  0.24615  0.08951  0.42930  1.0000
  N   N5        1.0  0.46844  0.29917  0.46213  1.0000
  C   C75       1.0  0.34369  0.13276  0.68460  1.0000
  C   C76       1.0  0.28071  0.51423  0.61221  1.0000
  H   H80       1.0  0.09927  0.46914  0.68959  1.0000
  H   H81       1.0  0.44656  0.47932  0.41864  1.0000
  H   H82       1.0  0.27060  0.07849  0.63547  1.0000
  H   H83       1.0  0.28429  0.49600  0.62256  1.0000
  C   C77       1.0  0.31008  0.42617  0.41807  1.0000
  H   H84       1.0  0.27590  0.08552  0.39439  1.0000
  H   H85       1.0  0.34515  0.52095  0.65669  1.0000
  N   N6        1.0  0.40832  0.11592  0.53391  1.0000
  C   C78       1.0  0.44113  0.10376  0.53361  1.0000
  C   C79       1.0  0.38638  0.10673  0.54693  1.0000
  C   C80       1.0  0.45314  0.08282  0.54693  1.0000
  C   C81       1.0  0.39749  0.08570  0.56039  1.0000
  C   C82       1.0  0.43115  0.07387  0.56041  1.0000
  C   C83       1.0  0.39624  0.13730  0.51962  1.0000
  H   H86       1.0  0.45784  0.10944  0.52275  1.0000
  H   H87       1.0  0.35982  0.11474  0.54671  1.0000
  C   C84       1.0  0.35085  0.11514  0.64956  1.0000
  H   H88       1.0  0.37967  0.07740  0.57033  1.0000
  H   H89       1.0  0.15880  0.04385  0.39131  1.0000
  H   H90       1.0  0.39103  0.12094  0.50778  1.0000
  H   H91       1.0  0.37229  0.15102  0.52299  1.0000
  H   H92       1.0  0.41593  0.15715  0.51640  1.0000
  C   C85       1.0  0.25280  0.46162  0.40710  1.0000
  C   C86       1.0  0.19650  0.05495  0.41190  1.0000
  N   N7        1.0  0.49030  0.51311  0.41986  1.0000
  C   C87       1.0  0.34529  0.04004  0.52698  1.0000
  H   H93       1.0  0.30317  0.18334  0.69162  1.0000
  C   C88       1.0  0.31032  0.44422  0.40249  1.0000
  H   H94       1.0  0.43075  0.26024  0.46712  1.0000
  C   C89       1.0  0.39740  0.04210  0.50972  1.0000
  H   H95       1.0  0.31298  0.51100  0.43578  1.0000
  C   C90       1.0  0.52667  0.14215  0.44578  1.0000
  C   C91       1.0  0.30462  0.17962  0.67721  1.0000
  C   C92       1.0  0.28876  0.06295  0.39902  1.0000
  C   C93       1.0  0.28074  0.42628  0.42836  1.0000
  C   C94       1.0  0.37458  0.51182  0.52260  1.0000
  S   S34       1.0  0.42238  0.05792  0.49247  1.0000
  C   C95       1.0  0.49339  0.45228  0.41401  1.0000
  C   C96       1.0  0.52128  0.27989  0.44951  1.0000
  H   H96       1.0  0.37743  0.09037  0.68966  1.0000
  C   C97       1.0  0.14875  0.28720  0.69183  1.0000
  H   H97       1.0  0.28049  0.41240  0.44052  1.0000
  H   H98       1.0  0.34528  0.50232  0.61923  1.0000
  H   H99       1.0  0.35255  0.10769  0.63585  1.0000
  H   H100      1.0  0.19153  0.08232  0.41219  1.0000
  C   C98       1.0  0.28236  0.47894  0.38039  1.0000
  C   C99       1.0  0.31421  0.06649  0.41209  1.0000
  C   C100      1.0  0.29345  0.05260  0.67601  1.0000
  H   H101      1.0  0.28821  0.05775  0.68966  1.0000
  H   H102      1.0  0.42645  0.33239  0.45832  1.0000
  C   C101      1.0  0.32980  0.14222  0.65484  1.0000
  H   H103      1.0  0.27961  0.45976  0.36948  1.0000
  C   C102      1.0  0.52670  0.47094  0.45844  1.0000
  C   C103      1.0  0.44650  0.32707  0.46833  1.0000
  C   C104      1.0  0.50041  0.30642  0.45571  1.0000
  H   H104      1.0  0.33245  0.41204  0.42218  1.0000
  H   H105      1.0  0.30682  0.49379  0.37897  1.0000
  H   H106      1.0  0.27799  0.17474  0.67218  1.0000
  C   C105      1.0  0.31231  0.52555  0.42391  1.0000
  C   C106      1.0  0.47428  0.48173  0.41752  1.0000
  H   H107      1.0  0.26120  0.49773  0.37932  1.0000
  S   S35       1.0  0.22038  0.52690  0.66618  1.0000
  S   S36       1.0  0.38256  0.51619  0.42212  1.0000
  C   C107      1.0  0.38363  0.51977  0.54002  1.0000
  N   N8        1.0  0.30803  0.52498  0.60250  1.0000
  C   C108      1.0  0.29035  0.52255  0.66061  1.0000
  H   H108      1.0  0.50996  0.33282  0.45539  1.0000
  C   C109      1.0  0.52909  0.45514  0.41276  1.0000
  N   N9        1.0  0.32659  0.15082  0.67217  1.0000
  H   H109      1.0  0.31532  0.15576  0.64504  1.0000
  N   N10       1.0  0.22074  0.04168  0.42284  1.0000
  C   C110      1.0  0.36468  0.10530  0.67978  1.0000
  H   H110      1.0  0.26411  0.05336  0.43962  1.0000
  Fe  Fe17      1.0  0.21789  0.48441  0.68604  1.0000
  H   H111      1.0  0.22334  0.06951  0.44703  1.0000
  H   H112      1.0  0.36259  0.53081  0.60368  1.0000
  H   H113      1.0  0.12612  0.34986  0.68539  1.0000
  C   C111      1.0  0.28363  0.06425  0.64547  1.0000
  H   H114      1.0  0.22658  0.51962  0.61748  1.0000
  C   C112      1.0  0.52533  0.51618  0.41862  1.0000
  C   C113      1.0  0.23933  0.06458  0.43535  1.0000
  H   H115      1.0  0.43984  0.05687  0.57055  1.0000
  H   H116      1.0  0.25732  0.53207  0.42435  1.0000
  C   C114      1.0  0.34273  0.53227  0.41496  1.0000
  H   H117      1.0  0.52472  0.22498  0.44488  1.0000
  C   C115      1.0  0.35430  0.03660  0.37069  1.0000
  H   H118      1.0  0.25540  0.23716  0.69228  1.0000
  C   C116      1.0  0.32172  0.53452  0.65389  1.0000
  Fe  Fe18      1.0  0.23970  0.46575  0.72268  1.0000
  H   H119      1.0  0.47531  0.33066  0.87932  1.0000
  S   S37       1.0  0.26806  0.48981  0.74594  1.0000
  Fe  Fe19      1.0  0.16810  0.44363  0.70920  1.0000
  S   S38       1.0  0.11612  0.42664  0.71934  1.0000
  C   C117      1.0  0.08954  0.11825  0.70350  1.0000
  C   C118      1.0  0.07566  0.46177  0.69596  1.0000
  S   S39       1.0  0.21142  0.41504  0.72167  1.0000
  S   S40       1.0  0.19478  0.49507  0.71243  1.0000
  S   S41       1.0  0.19286  0.10021  0.71276  1.0000
  H   H120      1.0  0.28761  0.16893  0.88957  1.0000
  S   S42       1.0  0.20820  0.16700  0.73889  1.0000
  C   C119      1.0  0.27345  0.30072  0.72240  1.0000
  Fe  Fe20      1.0  0.22895  0.11419  0.73521  1.0000
  S   S43       1.0  0.23038  0.08635  0.76070  1.0000
  Fe  Fe21      1.0  0.17546  0.15481  0.71529  1.0000
  Fe  Fe22      1.0  0.23171  0.41008  0.69452  1.0000
  S   S44       1.0  0.27286  0.13139  0.71843  1.0000
  Fe  Fe23      1.0  0.36067  0.14668  0.85335  1.0000
  S   S45       1.0  0.40331  0.14284  0.83414  1.0000
  S   S46       1.0  0.32597  0.19231  0.85329  1.0000
  Fe  Fe24      1.0  0.37124  0.07449  0.86674  1.0000
  S   S47       1.0  0.41431  0.06424  0.84790  1.0000
  H   H121      1.0  0.29138  0.06003  0.87774  1.0000
  Fe  Fe25      1.0  0.43314  0.11753  0.85537  1.0000
  S   S48       1.0  0.48720  0.13385  0.86375  1.0000
  Fe  Fe26      1.0  0.38056  0.09038  0.82821  1.0000
  S   S49       1.0  0.37516  0.07748  0.79937  1.0000
  S   S50       1.0  0.39210  0.12637  0.87539  1.0000
  S   S51       1.0  0.33592  0.09561  0.84631  1.0000
  Fe  Fe27      1.0  0.34651  0.44692  0.85546  1.0000
  S   S52       1.0  0.37327  0.46298  0.83097  1.0000
  S   S53       1.0  0.29994  0.47596  0.86486  1.0000
  Fe  Fe28      1.0  0.38639  0.38023  0.85743  1.0000
  S   S54       1.0  0.41533  0.39062  0.83298  1.0000
  S   S55       1.0  0.40286  0.33369  0.87208  1.0000
  Fe  Fe29      1.0  0.42141  0.44409  0.84400  1.0000
  S   S56       1.0  0.47236  0.47308  0.84310  1.0000
  Fe  Fe30      1.0  0.36495  0.40811  0.82216  1.0000
  S   S57       1.0  0.34800  0.38934  0.79526  1.0000
  S   S58       1.0  0.39538  0.43304  0.86938  1.0000
  S   S59       1.0  0.33522  0.39276  0.84569  1.0000
  C   C120      1.0  0.51107  0.44996  0.84243  1.0000
  C   C121      1.0  0.25808  0.26270  0.69798  1.0000
  C   C122      1.0  0.30157  0.50457  0.88316  1.0000
  H   H122      1.0  0.48678  0.39994  0.83972  1.0000
  H   H123      1.0  0.28242  0.30442  0.73576  1.0000
  C   C123      1.0  0.04595  0.43213  0.71892  1.0000
  C   C124      1.0  0.15549  0.25577  0.69959  1.0000
  H   H124      1.0  0.10677  0.52035  0.96627  1.0000
  H   H125      1.0  0.49527  0.08600  0.83418  1.0000
  H   H126      1.0  0.04671  0.41665  0.73047  1.0000
  C   C125      1.0  0.34787  0.23150  0.85803  1.0000
  C   C126      1.0  0.38058  0.23189  0.86584  1.0000
  C   C127      1.0  0.39722  0.26338  0.87014  1.0000
  C   C128      1.0  0.38164  0.29460  0.86624  1.0000
  C   C129      1.0  0.34921  0.29417  0.85812  1.0000
  C   C130      1.0  0.33219  0.26269  0.85421  1.0000
  H   H127      1.0  0.39295  0.20797  0.86878  1.0000
  H   H128      1.0  0.42229  0.26351  0.87641  1.0000
  H   H129      1.0  0.33691  0.31809  0.85519  1.0000
  H   H130      1.0  0.30689  0.26253  0.84819  1.0000
  C   C131      1.0  0.26938  0.26730  0.71528  1.0000
  C   C132      1.0  0.08607  0.15133  0.71074  1.0000
  H   H131      1.0  0.46390  0.37725  0.79946  1.0000
  C   C133      1.0  0.27070  0.08420  0.77138  1.0000
  C   C134      1.0  0.30132  0.08705  0.76208  1.0000
  C   C135      1.0  0.33316  0.08463  0.77081  1.0000
  C   C136      1.0  0.33464  0.08019  0.78893  1.0000
  C   C137      1.0  0.30401  0.07775  0.79827  1.0000
  C   C138      1.0  0.27212  0.07939  0.78948  1.0000
  H   H132      1.0  0.30052  0.09022  0.74811  1.0000
  C   C139      1.0  0.26410  0.49307  0.98969  1.0000
  H   H133      1.0  0.10404  0.14486  0.75269  1.0000
  C   C140      1.0  0.10483  0.11739  0.74989  1.0000
  C   C141      1.0  0.07683  0.44157  0.71081  1.0000
  H   H134      1.0  0.06439  0.05110  0.98223  1.0000
  N   N11       1.0  0.24844  0.46651  0.81749  1.0000
  C   C142      1.0  0.29121  0.46193  0.75923  1.0000
  C   C143      1.0  0.30548  0.47455  0.77507  1.0000
  C   C144      1.0  0.32277  0.45244  0.78631  1.0000
  C   C145      1.0  0.32649  0.41778  0.78155  1.0000
  C   C146      1.0  0.31285  0.40536  0.76553  1.0000
  C   C147      1.0  0.29498  0.42731  0.75445  1.0000
  H   H135      1.0  0.30256  0.50133  0.77882  1.0000
  H   H136      1.0  0.33312  0.46222  0.79862  1.0000
  H   H137      1.0  0.20022  0.28638  0.73517  1.0000
  H   H138      1.0  0.27744  0.50610  0.83065  1.0000
  C   C148      1.0  0.25649  0.03974  0.89690  1.0000
  H   H139      1.0  0.33297  0.16568  0.89236  1.0000
  H   H140      1.0  0.23986  0.09685  0.93173  1.0000
  C   C149      1.0  0.10661  0.04799  0.74093  1.0000
  H   H141      1.0  0.15944  0.11397  0.75463  1.0000
  H   H142      1.0  0.35604  0.50067  0.88781  1.0000
  H   H143      1.0  0.28419  0.41744  0.74220  1.0000
  H   H144      1.0  0.18744  0.34134  0.72101  1.0000
  C   C150      1.0  0.40446  0.46434  0.77526  1.0000
  H   H145      1.0  0.42057  0.36763  0.79231  1.0000
  N   N12       1.0  0.15942  0.31752  0.69974  1.0000
  C   C151      1.0  0.26571  0.32942  0.71232  1.0000
  C   C152      1.0  0.49194  0.44787  0.88669  1.0000
  H   H146      1.0  0.47118  0.43440  0.80906  1.0000
  H   H147      1.0  0.06291  0.07199  0.69438  1.0000
  C   C153      1.0  0.05311  0.16381  0.71415  1.0000
  C   C154      1.0  0.26197  0.40711  0.81225  1.0000
  H   H148      1.0  0.26892  0.35515  0.71784  1.0000
  H   H149      1.0  0.30960  0.13331  0.87951  1.0000
  H   H150      1.0  0.41322  0.51520  0.78643  1.0000
  H   H151      1.0  0.30487  0.07365  0.81216  1.0000
  H   H152      1.0  0.15362  0.37212  0.70078  1.0000
  C   C155      1.0  0.52354  0.11888  0.85246  1.0000
  C   C156      1.0  0.24705  0.40837  0.79563  1.0000
  S   S60       1.0  0.35921  0.03644  0.88802  1.0000
  C   C157      1.0  0.13598  0.10021  0.75073  1.0000
  C   C158      1.0  0.26232  0.43657  0.82310  1.0000
  H   H153      1.0  0.24713  0.51416  0.88199  1.0000
  H   H154      1.0  0.27400  0.38372  0.81654  1.0000
  H   H155      1.0  0.45431  0.38974  0.88339  1.0000
  H   H156      1.0  0.23486  0.51861  0.82392  1.0000
  H   H157      1.0  0.16281  0.52128  0.00925  1.0000
  C   C159      1.0  0.13698  0.06531  0.74622  1.0000
  C   C160      1.0  0.27699  0.49937  0.97310  1.0000
  H   H158      1.0  0.31573  0.37856  0.76177  1.0000
  C   C161      1.0  0.52046  0.09535  0.83840  1.0000
  C   C162      1.0  0.52885  0.34637  0.87976  1.0000
  C   C163      1.0  0.44438  0.38244  0.78917  1.0000
  C   C164      1.0  0.42013  0.48831  0.78677  1.0000
  C   C165      1.0  0.17369  0.25551  0.71539  1.0000
  N   N13       1.0  0.29741  0.16458  0.79933  1.0000
  C   C166      1.0  0.28464  0.16947  0.78285  1.0000
  C   C167      1.0  0.33212  0.16490  0.80240  1.0000
  C   C168      1.0  0.30693  0.17431  0.76887  1.0000
  C   C169      1.0  0.35515  0.16895  0.78869  1.0000
  C   C170      1.0  0.34240  0.17375  0.77182  1.0000
  C   C171      1.0  0.27405  0.16026  0.81404  1.0000
  H   H159      1.0  0.25713  0.16911  0.78035  1.0000
  H   H160      1.0  0.34208  0.16145  0.81550  1.0000
  H   H161      1.0  0.29674  0.17801  0.75579  1.0000
  H   H162      1.0  0.38265  0.16777  0.79115  1.0000
  H   H163      1.0  0.35996  0.17674  0.76104  1.0000
  H   H164      1.0  0.27246  0.18488  0.82164  1.0000
  H   H165      1.0  0.24793  0.15177  0.80955  1.0000
  H   H166      1.0  0.28379  0.14027  0.82290  1.0000
  H   H167      1.0  0.39999  0.41096  0.76759  1.0000
  S   S61       1.0  0.27841  0.23157  0.72813  1.0000
  H   H168      1.0  0.48905  0.45370  0.90085  1.0000
  H   H169      1.0  0.05027  0.18940  0.71974  1.0000
  C   C172      1.0  0.44444  0.47744  0.79889  1.0000
  C   C173      1.0  0.07489  0.09922  0.74472  1.0000
  H   H170      1.0  0.29001  0.07092  0.94642  1.0000
  C   C174      1.0  0.49358  0.35208  0.88054  1.0000
  S   S62       1.0  0.12228  0.17705  0.71665  1.0000
  H   H171      1.0  0.24852  0.07681  0.79671  1.0000
  H   H172      1.0  0.24747  0.38597  0.78692  1.0000
  Fe  Fe31      1.0  0.23531  0.12184  0.69611  1.0000
  H   H173      1.0  0.04441  0.50328  0.97733  1.0000
  H   H174      1.0  0.22227  0.44056  0.77686  1.0000
  C   C175      1.0  0.51082  0.41409  0.84074  1.0000
  C   C176      1.0  0.17786  0.31743  0.71507  1.0000
  C   C177      1.0  0.45251  0.44256  0.79944  1.0000
  C   C178      1.0  0.41311  0.42966  0.77619  1.0000
  C   C179      1.0  0.18514  0.28646  0.72316  1.0000
  H   H175      1.0  0.11002  0.51560  0.98976  1.0000
  H   H176      1.0  0.22388  0.49199  0.79642  1.0000
  C   C180      1.0  0.23409  0.46809  0.80112  1.0000
  N   N14       1.0  0.43668  0.41914  0.78825  1.0000
  C   C181      1.0  0.23294  0.43900  0.79000  1.0000
  H   H177      1.0  0.45665  0.49577  0.80803  1.0000
  H   H178      1.0  0.38508  0.47234  0.76595  1.0000
  C   C182      1.0  0.28900  0.04548  0.88955  1.0000
  H   H179      1.0  0.45428  0.37285  0.77644  1.0000
  H   H180      1.0  0.34889  0.08136  0.93497  1.0000
  H   H181      1.0  0.04692  0.03710  0.72092  1.0000
  N   N15       1.0  0.30357  0.12945  0.90687  1.0000
  C   C183      1.0  0.33127  0.11451  0.91462  1.0000
  C   C184      1.0  0.27105  0.12331  0.91285  1.0000
  C   C185      1.0  0.32691  0.09373  0.92912  1.0000
  C   C186      1.0  0.26574  0.10255  0.92730  1.0000
  C   C187      1.0  0.29392  0.08784  0.93551  1.0000
  C   C188      1.0  0.30861  0.15026  0.89136  1.0000
  H   H182      1.0  0.35690  0.11803  0.90941  1.0000
  H   H183      1.0  0.24894  0.13396  0.90629  1.0000
  H   H184      1.0  0.17914  0.23131  0.72151  1.0000
  H   H185      1.0  0.35677  0.08621  0.76351  1.0000
  H   H186      1.0  0.24029  0.49101  0.84218  1.0000
  Fe  Fe32      1.0  0.24883  0.18335  0.72042  1.0000
  C   C189      1.0  0.48183  0.38567  0.88279  1.0000
  C   C190      1.0  0.25023  0.49715  0.82901  1.0000
  C   C191      1.0  0.27001  0.51713  0.00323  1.0000
  C   C192      1.0  0.33245  0.51240  0.89204  1.0000
  H   H187      1.0  0.27406  0.43549  0.83599  1.0000
  H   H188      1.0  0.24952  0.46963  0.99208  1.0000
  C   C193      1.0  0.29534  0.52997  0.97027  1.0000
  N   N16       1.0  0.07606  0.06493  0.74035  1.0000
  S   S63       1.0  0.21466  0.17562  0.69697  1.0000
  H   H189      1.0  0.27261  0.48090  0.96243  1.0000
  C   C194      1.0  0.06012  0.09758  0.69997  1.0000
  N   N17       1.0  0.50463  0.41287  0.88403  1.0000
  H   H190      1.0  0.31161  0.52900  0.71891  1.0000
  C   C195      1.0  0.04469  0.04604  0.73476  1.0000
  H   H191      1.0  0.16132  0.05199  0.74665  1.0000
  H   H192      1.0  0.11483  0.10852  0.70071  1.0000
  H   H193      1.0  0.50966  0.46720  0.88094  1.0000
  H   H194      1.0  0.26002  0.51257  0.01618  1.0000
  H   H195      1.0  0.46674  0.45100  0.87999  1.0000
  S   S64       1.0  0.26448  0.45829  0.69654  1.0000
  H   H196      1.0  0.23386  0.05020  0.89077  1.0000
  H   H197      1.0  0.30522  0.53465  0.95733  1.0000
  C   C196      1.0  0.27112  0.52010  0.88878  1.0000
  H   H198      1.0  0.05095  0.11302  0.74371  1.0000
  H   H199      1.0  0.34082  0.13916  0.69835  1.0000
  C   C197      1.0  0.04300  0.53072  0.98000  1.0000
  C   C198      1.0  0.25477  0.32469  0.69494  1.0000
  C   C199      1.0  0.10578  0.53409  0.97916  1.0000
  H   H200      1.0  0.14670  0.23170  0.69344  1.0000
  Fe  Fe33      1.0  0.37240  0.97001  0.18818  1.0000
  S   S65       1.0  0.37930  0.98665  0.21649  1.0000
  H   H201      1.0  0.03600  0.58802  0.30946  1.0000
  Fe  Fe34      1.0  0.39819  0.89725  0.19485  1.0000
  S   S66       1.0  0.40599  0.90861  0.22335  1.0000
  S   S67       1.0  0.41925  0.84680  0.18486  1.0000
  Fe  Fe35      1.0  0.35533  0.93489  0.22202  1.0000
  S   S68       1.0  0.31665  0.91793  0.24212  1.0000
  Fe  Fe36      1.0  0.42962  0.95851  0.21508  1.0000
  S   S69       1.0  0.48059  0.97413  0.22806  1.0000
  S   S70       1.0  0.34535  0.91979  0.19372  1.0000
  S   S71       1.0  0.42453  0.94578  0.18657  1.0000
  Fe  Fe37      1.0  0.35355  0.58809  0.20159  1.0000
  S   S72       1.0  0.40029  0.58153  0.21868  1.0000
  C   C200      1.0  0.07705  0.62575  0.30772  1.0000
  Fe  Fe38      1.0  0.35740  0.66624  0.20520  1.0000
  S   S73       1.0  0.40447  0.66621  0.22231  1.0000
  S   S74       1.0  0.32806  0.71374  0.19893  1.0000
  Fe  Fe39      1.0  0.42294  0.62520  0.20368  1.0000
  S   S75       1.0  0.47416  0.62493  0.18993  1.0000
  Fe  Fe40      1.0  0.37739  0.62275  0.23580  1.0000
  S   S76       1.0  0.37684  0.62286  0.26533  1.0000
  S   S77       1.0  0.37753  0.62880  0.18529  1.0000
  S   S78       1.0  0.32893  0.62588  0.21996  1.0000
  Fe  Fe41      1.0  0.23860  0.97366  0.32821  1.0000
  S   S79       1.0  0.26510  0.92986  0.34086  1.0000
  S   S80       1.0  0.26395  0.00409  0.30703  1.0000
  H   H202      1.0  0.21439  0.72915  0.33481  1.0000
  H   H203      1.0  0.29875  0.02496  0.27591  1.0000
  Fe  Fe42      1.0  0.21275  0.90459  0.34027  1.0000
  C   C201      1.0  0.29217  0.69872  0.30881  1.0000
  H   H204      1.0  0.07544  0.53931  0.31233  1.0000
  S   S81       1.0  0.18726  0.94684  0.32570  1.0000
  C   C202      1.0  0.44115  0.55787  0.16254  1.0000
  C   C203      1.0  0.21620  0.55136  0.04178  1.0000
  Fe  Fe43      1.0  0.23116  0.60741  0.33048  1.0000
  H   H205      1.0  0.17068  0.54769  0.30910  1.0000
  S   S82       1.0  0.23705  0.58540  0.30319  1.0000
  C   C204      1.0  0.25548  0.75747  0.34788  1.0000
  Fe  Fe44      1.0  0.17622  0.96877  0.35227  1.0000
  S   S83       1.0  0.19245  0.58578  0.34907  1.0000
  S   S84       1.0  0.20910  0.65991  0.33167  1.0000
  C   C205      1.0  0.33211  0.01676  0.09995  1.0000
  H   H206      1.0  0.47292  0.90356  0.20727  1.0000
  C   C206      1.0  0.13438  0.60317  0.30969  1.0000
  H   H207      1.0  0.31120  0.68801  0.14301  1.0000
  H   H208      1.0  0.49682  0.96316  0.19124  1.0000
  H   H209      1.0  0.06028  0.89004  0.33979  1.0000
  H   H210      1.0  0.05984  0.64739  0.30722  1.0000
  C   C207      1.0  0.52057  0.96463  0.19867  1.0000
  C   C208      1.0  0.32165  0.01717  0.34586  1.0000
  H   H211      1.0  0.21207  0.01629  0.11154  1.0000
  C   C209      1.0  0.51318  0.61665  0.20086  1.0000
  S   S85       1.0  0.32277  0.54174  0.19156  1.0000
  N   N18       1.0  0.28761  0.64913  0.15868  1.0000
  H   H212      1.0  0.46849  0.56305  0.15920  1.0000
  H   H213      1.0  0.29117  0.99346  0.17920  1.0000
  H   H214      1.0  0.18535  0.78035  0.32412  1.0000
  H   H215      1.0  0.49713  0.86678  0.18127  1.0000
  H   H216      1.0  0.27072  0.69846  0.31773  1.0000
  H   H217      1.0  0.27971  0.64083  0.13121  1.0000
  N   N19       1.0  0.31412  0.69237  0.27971  1.0000
  H   H218      1.0  0.49125  0.61014  0.22630  1.0000
  C   C210      1.0  0.33850  0.61023  0.27576  1.0000
  C   C211      1.0  0.33566  0.61569  0.29385  1.0000
  C   C212      1.0  0.30462  0.60833  0.30235  1.0000
  C   C213      1.0  0.27640  0.59470  0.29286  1.0000
  C   C214      1.0  0.27946  0.58849  0.27483  1.0000
  C   C215      1.0  0.31036  0.59636  0.26628  1.0000
  H   H219      1.0  0.35742  0.62604  0.30131  1.0000
  H   H220      1.0  0.30273  0.61292  0.31626  1.0000
  H   H221      1.0  0.25786  0.57762  0.26743  1.0000
  H   H222      1.0  0.31242  0.59139  0.25240  1.0000
  C   C216      1.0  0.26902  0.79047  0.35186  1.0000
  C   C217      1.0  0.30786  0.68664  0.26092  1.0000
  H   H223      1.0  0.05762  0.55144  0.35255  1.0000
  H   H224      1.0  0.36841  0.69886  0.27701  1.0000
  C   C218      1.0  0.30827  0.94235  0.26122  1.0000
  C   C219      1.0  0.29487  0.92540  0.27570  1.0000
  C   C220      1.0  0.28271  0.94419  0.29016  1.0000
  C   C221      1.0  0.28344  0.98012  0.29014  1.0000
  C   C222      1.0  0.29800  0.99714  0.27596  1.0000
  C   C223      1.0  0.31056  0.97829  0.26154  1.0000
  H   H225      1.0  0.29313  0.89760  0.27552  1.0000
  H   H226      1.0  0.27180  0.93086  0.30107  1.0000
  H   H227      1.0  0.24606  0.58688  0.13447  1.0000
  H   H228      1.0  0.32070  0.99154  0.25040  1.0000
  C   C224      1.0  0.39396  0.81007  0.18934  1.0000
  C   C225      1.0  0.40843  0.77733  0.18785  1.0000
  C   C226      1.0  0.38858  0.74767  0.19117  1.0000
  C   C227      1.0  0.35391  0.75062  0.19558  1.0000
  C   C228      1.0  0.33939  0.78331  0.19697  1.0000
  C   C229      1.0  0.35948  0.81301  0.19409  1.0000
  H   H229      1.0  0.43506  0.77493  0.18416  1.0000
  H   H230      1.0  0.39994  0.72255  0.19000  1.0000
  H   H231      1.0  0.31262  0.78575  0.20040  1.0000
  H   H232      1.0  0.34814  0.83814  0.19528  1.0000
  H   H233      1.0  0.33149  0.67793  0.25419  1.0000
  Fe  Fe45      1.0  0.24662  0.67029  0.35354  1.0000
  C   C230      1.0  0.26301  0.60644  0.17723  1.0000
  N   N20       1.0  0.26460  0.00219  0.10928  1.0000
  C   C231      1.0  0.22899  0.99410  0.11399  1.0000
  H   H234      1.0  0.21936  0.97136  0.10625  1.0000
  H   H235      1.0  0.47290  0.85964  0.21431  1.0000
  H   H236      1.0  0.22693  0.98885  0.12816  1.0000
  H   H237      1.0  0.29935  0.71079  0.25489  1.0000
  H   H238      1.0  0.26109  0.68648  0.28610  1.0000
  C   C232      1.0  0.30481  0.03064  0.09062  1.0000
  C   C233      1.0  0.28191  0.63694  0.17503  1.0000
  C   C234      1.0  0.35293  0.70563  0.30370  1.0000
  H   H239      1.0  0.21312  0.99815  0.26495  1.0000
  C   C235      1.0  0.20878  0.78332  0.33181  1.0000
  H   H240      1.0  0.29228  0.65071  0.18646  1.0000
  H   H241      1.0  0.28804  0.66605  0.25858  1.0000
  C   C236      1.0  0.06366  0.59240  0.30894  1.0000
  H   H242      1.0  0.32965  0.71027  0.32912  1.0000
  S   S86       1.0  0.12067  0.66230  0.35093  1.0000
  N   N21       1.0  0.20642  0.91326  0.27330  1.0000
  C   C237      1.0  0.21953  0.89993  0.25812  1.0000
  C   C238      1.0  0.20363  0.94810  0.27568  1.0000
  C   C239      1.0  0.22972  0.92162  0.24474  1.0000
  C   C240      1.0  0.21394  0.97054  0.26265  1.0000
  C   C241      1.0  0.23040  0.57994  0.03333  1.0000
  C   C242      1.0  0.19772  0.89043  0.28764  1.0000
  H   H243      1.0  0.22330  0.87249  0.25648  1.0000
  H   H244      1.0  0.19464  0.95887  0.28796  1.0000
  H   H245      1.0  0.24150  0.91107  0.23304  1.0000
  C   C243      1.0  0.32005  0.55028  0.13874  1.0000
  H   H246      1.0  0.16200  0.60772  0.31030  1.0000
  H   H247      1.0  0.21912  0.89058  0.29740  1.0000
  H   H248      1.0  0.17392  0.89884  0.29428  1.0000
  H   H249      1.0  0.19310  0.86347  0.28297  1.0000
  N   N22       1.0  0.12102  0.57052  0.31081  1.0000
  H   H250      1.0  0.12325  0.65721  0.30796  1.0000
  H   H251      1.0  0.33382  0.95615  0.35830  1.0000
  S   S87       1.0  0.27607  0.72089  0.35589  1.0000
  Fe  Fe46      1.0  0.17393  0.63987  0.35215  1.0000
  S   S88       1.0  0.36076  0.00691  0.16628  1.0000
  C   C244      1.0  0.08362  0.63546  0.35089  1.0000
  C   C245      1.0  0.08954  0.93493  0.34862  1.0000
  H   H252      1.0  0.23453  0.01619  0.16977  1.0000
  H   H253      1.0  0.11057  0.58829  0.35477  1.0000
  C   C246      1.0  0.53211  0.69643  0.21692  1.0000
  C   C247      1.0  0.30768  0.68111  0.15688  1.0000
  H   H254      1.0  0.29464  0.70274  0.16370  1.0000
  C   C248      1.0  0.27476  0.63166  0.14422  1.0000
  C   C249      1.0  0.25539  0.60129  0.14596  1.0000
  C   C250      1.0  0.28695  0.69217  0.29092  1.0000
  C   C251      1.0  0.48792  0.88423  0.21440  1.0000
  H   H255      1.0  0.33206  0.56602  0.12897  1.0000
  C   C252      1.0  0.32533  0.99511  0.11383  1.0000
  C   C253      1.0  0.22533  0.75412  0.33784  1.0000
  C   C254      1.0  0.25782  0.02476  0.16346  1.0000
  C   C255      1.0  0.34678  0.69922  0.28585  1.0000
  C   C256      1.0  0.25196  0.81990  0.34616  1.0000
  H   H256      1.0  0.34751  0.57524  0.16031  1.0000
  C   C257      1.0  0.24951  0.58867  0.16259  1.0000
  H   H257      1.0  0.33361  0.67857  0.16295  1.0000
  C   C258      1.0  0.22714  0.95714  0.24710  1.0000
  C   C259      1.0  0.32538  0.70542  0.31522  1.0000
  H   H258      1.0  0.37892  0.71041  0.30856  1.0000
  S   S89       1.0  0.22512  0.00043  0.35340  1.0000
  S   S90       1.0  0.19794  0.85188  0.32973  1.0000
  C   C260      1.0  0.22173  0.81624  0.33615  1.0000
  H   H259      1.0  0.35846  0.02287  0.09647  1.0000
  C   C261      1.0  0.52126  0.87059  0.18846  1.0000
  C   C262      1.0  0.05897  0.91597  0.34512  1.0000
  H   H260      1.0  0.50481  0.69552  0.21974  1.0000
  H   H261      1.0  0.26208  0.84529  0.34958  1.0000
  C   C263      1.0  0.08809  0.96849  0.35553  1.0000
  C   C264      1.0  0.31999  0.02277  0.16070  1.0000
  C   C265      1.0  0.11262  0.63125  0.30813  1.0000
  C   C266      1.0  0.51987  0.97047  0.21676  1.0000
  N   N23       1.0  0.52100  0.87951  0.20583  1.0000
  C   C267      1.0  0.05133  0.65017  0.34821  1.0000
  H   H262      1.0  0.22415  0.54573  0.05499  1.0000
  C   C268      1.0  0.08583  0.59982  0.35259  1.0000
  H   H263      1.0  0.04943  0.67770  0.34688  1.0000
  C   C269      1.0  0.27101  0.02288  0.09543  1.0000
  C   C270      1.0  0.51465  0.61065  0.21878  1.0000
  H   H264      1.0  0.13293  0.81390  0.33942  1.0000
  H   H265      1.0  0.49088  0.89412  0.22809  1.0000
  C   C271      1.0  0.32883  0.55554  0.15647  1.0000
  H   H266      1.0  0.24997  0.03371  0.08805  1.0000
  C   C272      1.0  0.14399  0.54150  0.31331  1.0000
  H   H267      1.0  0.24941  0.59619  0.04006  1.0000
  H   H268      1.0  0.25963  0.59612  0.19017  1.0000
  H   H269      1.0  0.34633  0.98467  0.12144  1.0000
  H   H270      1.0  0.23554  0.56451  0.16407  1.0000
  C   C273      1.0  0.29120  0.98789  0.11828  1.0000
  H   H271      1.0  0.37790  0.97031  0.35511  1.0000
  C   C274      1.0  0.46493  0.53626  0.18997  1.0000
  H   H272      1.0  0.23671  0.97422  0.23719  1.0000
  H   H273      1.0  0.28621  0.97162  0.12933  1.0000
  H   H274      1.0  0.11418  0.92356  0.34600  1.0000
  H   H275      1.0  0.13118  0.84423  0.35740  1.0000
  S   S91       1.0  0.27201  0.61877  0.35093  1.0000
  H   H276      1.0  0.42853  0.54468  0.15106  1.0000
  H   H277      1.0  0.52409  0.70155  0.18936  1.0000
  C   C275      1.0  0.08615  0.56495  0.31064  1.0000
  C   C276      1.0  0.12728  0.81664  0.35357  1.0000
  H   H278      1.0  0.09981  0.80991  0.35577  1.0000
  C   C277      1.0  0.05585  0.57902  0.35134  1.0000
  H   H279      1.0  0.31299  0.99661  0.33694  1.0000
  H   H280      1.0  0.48861  0.55056  0.18772  1.0000
  C   C278      1.0  0.28982  0.01190  0.16885  1.0000
  H   H281      1.0  0.12056  0.74871  0.35702  1.0000
  H   H282      1.0  0.42877  0.58305  0.16495  1.0000
  N   N24       1.0  0.43828  0.53694  0.17815  1.0000
  C   C279      1.0  0.31320  0.53538  0.16913  1.0000
  C   C280      1.0  0.05587  0.98293  0.35886  1.0000
  C   C281      1.0  0.17885  0.80780  0.37166  1.0000
  H   H283      1.0  0.45112  0.54768  0.41282  1.0000
  S   S92       1.0  0.28469  0.95979  0.38927  1.0000
  H   H284      1.0  0.23783  0.58319  0.64425  1.0000
  C   C282      1.0  0.29594  0.00105  0.39784  1.0000
  H   H285      1.0  0.24622  0.99651  0.43109  1.0000
  Fe  Fe47      1.0  0.41930  0.65163  0.59067  1.0000
  S   S93       1.0  0.37803  0.67576  0.57463  1.0000
  S   S94       1.0  0.47243  0.66321  0.58067  1.0000
  Fe  Fe48      1.0  0.36712  0.61716  0.61427  1.0000
  S   S95       1.0  0.32203  0.63900  0.60005  1.0000
  S   S96       1.0  0.48991  0.02601  0.59402  1.0000
  Fe  Fe49      1.0  0.35090  0.62465  0.57576  1.0000
  S   S97       1.0  0.32435  0.60184  0.55161  1.0000
  Fe  Fe50      1.0  0.35368  0.68822  0.60025  1.0000
  S   S98       1.0  0.33014  0.74052  0.60466  1.0000
  S   S99       1.0  0.39405  0.59944  0.58986  1.0000
  S   S100      1.0  0.39688  0.66751  0.61647  1.0000
  Fe  Fe51      1.0  0.40660  0.92603  0.59797  1.0000
  S   S101      1.0  0.42858  0.95994  0.61950  1.0000
  S   S102      1.0  0.42740  0.87201  0.59809  1.0000
  Fe  Fe52      1.0  0.37136  0.98647  0.58081  1.0000
  S   S103      1.0  0.35653  0.99074  0.64805  1.0000
  C   C283      1.0  0.16512  0.73770  0.37249  1.0000
  Fe  Fe53      1.0  0.44022  0.99759  0.59871  1.0000
  H   H286      1.0  0.40478  0.58272  0.50528  1.0000
  Fe  Fe54      1.0  0.37634  0.98377  0.62046  1.0000
  H   H287      1.0  0.42012  0.86141  0.65679  1.0000
  S   S104      1.0  0.42258  0.96199  0.57699  1.0000
  S   S105      1.0  0.35318  0.94708  0.60019  1.0000
  C   C284      1.0  0.24313  0.55137  0.59627  1.0000
  H   H288      1.0  0.31341  0.57245  0.51709  1.0000
  H   H289      1.0  0.36497  0.55708  0.39276  1.0000
  H   H290      1.0  0.33033  0.01313  0.68116  1.0000
  H   H291      1.0  0.31942  0.60215  0.67775  1.0000
  C   C285      1.0  0.41318  0.02057  0.52172  1.0000
  H   H292      1.0  0.30918  0.57745  0.38113  1.0000
  H   H293      1.0  0.45412  0.53899  0.43575  1.0000
  H   H294      1.0  0.37637  0.64981  0.53617  1.0000
  C   C286      1.0  0.22676  0.00709  0.42259  1.0000
  C   C287      1.0  0.52094  0.99284  0.62114  1.0000
  H   H295      1.0  0.50126  0.92213  0.60479  1.0000
  H   H296      1.0  0.35883  0.97070  0.37665  1.0000
  H   H297      1.0  0.25765  0.61465  0.68113  1.0000
  C   C288      1.0  0.32132  0.00452  0.41100  1.0000
  H   H298      1.0  0.49573  0.99084  0.62683  1.0000
  H   H299      1.0  0.48244  0.54625  0.54013  1.0000
  C   C289      1.0  0.20165  0.78644  0.38038  1.0000
  H   H300      1.0  0.22515  0.79699  0.38630  1.0000
  H   H301      1.0  0.36592  0.62602  0.51672  1.0000
  C   C290      1.0  0.39546  0.00940  0.53645  1.0000
  C   C291      1.0  0.51498  0.91823  0.59225  1.0000
  C   C292      1.0  0.26000  0.54012  0.65727  1.0000
  C   C293      1.0  0.36828  0.54720  0.54900  1.0000
  C   C294      1.0  0.39979  0.83551  0.59811  1.0000
  C   C295      1.0  0.36402  0.83837  0.59702  1.0000
  C   C296      1.0  0.34280  0.80886  0.59845  1.0000
  C   C297      1.0  0.35721  0.77644  0.60095  1.0000
  C   C298      1.0  0.39299  0.77352  0.60153  1.0000
  C   C299      1.0  0.41417  0.80298  0.60015  1.0000
  H   H302      1.0  0.35269  0.86329  0.59532  1.0000
  H   H303      1.0  0.31513  0.81120  0.59780  1.0000
  H   H304      1.0  0.40434  0.74864  0.60337  1.0000
  H   H305      1.0  0.44182  0.80055  0.60088  1.0000
  C   C300      1.0  0.34308  0.56643  0.54077  1.0000
  C   C301      1.0  0.52532  0.00977  0.60538  1.0000
  C   C302      1.0  0.34150  0.55159  0.39970  1.0000
  C   C303      1.0  0.46942  0.54330  0.42379  1.0000
  C   C304      1.0  0.26971  0.59680  0.68988  1.0000
  C   C305      1.0  0.27977  0.03044  0.39189  1.0000
  C   C306      1.0  0.33312  0.55781  0.52350  1.0000
  C   C307      1.0  0.35406  0.97521  0.36254  1.0000
  C   C308      1.0  0.19476  0.75115  0.38071  1.0000
  H   H306      1.0  0.47956  0.61173  0.60746  1.0000
  S   S106      1.0  0.33992  0.00796  0.55856  1.0000
  C   C309      1.0  0.32299  0.56392  0.64361  1.0000
  H   H307      1.0  0.47234  0.59640  0.56014  1.0000
  H   H308      1.0  0.39935  0.65918  0.51638  1.0000
  H   H309      1.0  0.33384  0.98188  0.41577  1.0000
  C   C310      1.0  0.27941  0.55590  0.40185  1.0000
  H   H310      1.0  0.42224  0.83917  0.63573  1.0000
  C   C311      1.0  0.26122  0.56945  0.64691  1.0000
  H   H311      1.0  0.42864  0.63890  0.55238  1.0000
  N   N25       1.0  0.37582  0.86603  0.64069  1.0000
  C   C312      1.0  0.35525  0.83726  0.63867  1.0000
  C   C313      1.0  0.36164  0.89797  0.64154  1.0000
  C   C314      1.0  0.31960  0.84016  0.63671  1.0000
  C   C315      1.0  0.32610  0.90183  0.63967  1.0000
  C   C316      1.0  0.30501  0.87271  0.63710  1.0000
  C   C317      1.0  0.41312  0.86261  0.64274  1.0000
  H   H312      1.0  0.36643  0.81189  0.63788  1.0000
  H   H313      1.0  0.37783  0.92075  0.64352  1.0000
  H   H314      1.0  0.30361  0.81727  0.63441  1.0000
  C   C318      1.0  0.30464  0.58971  0.68785  1.0000
  H   H315      1.0  0.27747  0.87541  0.63531  1.0000
  N   N26       1.0  0.14992  0.79433  0.36353  1.0000
  H   H316      1.0  0.53120  0.58119  0.61811  1.0000
  C   C319      1.0  0.32483  0.02098  0.65348  1.0000
  H   H317      1.0  0.49842  0.90089  0.58386  1.0000
  H   H318      1.0  0.44861  0.53982  0.51244  1.0000
  H   H319      1.0  0.43953  0.01296  0.51979  1.0000
  H   H320      1.0  0.40818  0.99320  0.54561  1.0000
  C   C320      1.0  0.29259  0.58129  0.64006  1.0000
  H   H321      1.0  0.18513  0.83502  0.37087  1.0000
  S   S107      1.0  0.23878  0.56550  0.39281  1.0000
  C   C321      1.0  0.30337  0.54783  0.58940  1.0000
  Fe  Fe55      1.0  0.23196  0.60091  0.36987  1.0000
  H   H322      1.0  0.51748  0.94374  0.58607  1.0000
  C   C322      1.0  0.30995  0.56334  0.39313  1.0000
  C   C323      1.0  0.14302  0.75970  0.36377  1.0000
  C   C324      1.0  0.36160  0.01938  0.53930  1.0000
  C   C325      1.0  0.17792  0.03347  0.40012  1.0000
  H   H323      1.0  0.37089  0.03131  0.38177  1.0000
  H   H324      1.0  0.15953  0.71029  0.37260  1.0000
  H   H325      1.0  0.21277  0.73415  0.38697  1.0000
  C   C326      1.0  0.50715  0.63845  0.58749  1.0000
  H   H326      1.0  0.42694  0.88472  0.63686  1.0000
  C   C327      1.0  0.28082  0.53754  0.41742  1.0000
  H   H327      1.0  0.37612  0.55333  0.56225  1.0000
  C   C328      1.0  0.31729  0.02738  0.67116  1.0000
  C   C329      1.0  0.50413  0.61556  0.60122  1.0000
  H   H328      1.0  0.29328  0.60406  0.63222  1.0000
  C   C330      1.0  0.44490  0.56192  0.52111  1.0000
  H   H329      1.0  0.31513  0.92736  0.64006  1.0000
  C   C331      1.0  0.46367  0.56537  0.53672  1.0000
  H   H330      1.0  0.05455  0.00885  0.36422  1.0000
  H   H331      1.0  0.48533  0.56702  0.42599  1.0000
  N   N27       1.0  0.41383  0.61305  0.52853  1.0000
  C   C332      1.0  0.43286  0.61718  0.54359  1.0000
  C   C333      1.0  0.41997  0.58619  0.51719  1.0000
  S   S108      1.0  0.39012  0.02471  0.60142  1.0000
  C   C334      1.0  0.27096  0.56149  0.58613  1.0000
  C   C335      1.0  0.45782  0.59329  0.54800  1.0000
  C   C336      1.0  0.38775  0.63834  0.52416  1.0000
  S   S109      1.0  0.21021  0.65364  0.37432  1.0000
  Fe  Fe56      1.0  0.24809  0.95481  0.36608  1.0000
  C   C337      1.0  0.20879  0.98494  0.41091  1.0000
  H   H332      1.0  0.21446  0.95770  0.41035  1.0000
  S   S110      1.0  0.36311  0.57826  0.63579  1.0000
  C   C338      1.0  0.53334  0.59837  0.60724  1.0000
  H   H333      1.0  0.52694  0.71017  0.60309  1.0000
  H   H334      1.0  0.21793  0.56209  0.59401  1.0000
  H   H335      1.0  0.26765  0.57997  0.57583  1.0000
  H   H336      1.0  0.32481  0.55584  0.58146  1.0000
  H   H337      1.0  0.16985  0.98143  0.39060  1.0000
  S   S111      1.0  0.12616  0.99269  0.36028  1.0000
  S   S112      1.0  0.19815  0.92468  0.36684  1.0000
  H   H338      1.0  0.25995  0.02825  0.38200  1.0000
  C   C339      1.0  0.18414  0.99827  0.39968  1.0000
  N   N28       1.0  0.34266  0.01043  0.35978  1.0000
  H   H339      1.0  0.31319  0.03440  0.62698  1.0000
  H   H340      1.0  0.29236  0.79328  0.35964  1.0000
  Fe  Fe57      1.0  0.22838  0.62427  0.97656  1.0000
  S   S113      1.0  0.22375  0.57657  0.95976  1.0000
  S   S114      1.0  0.24033  0.62170  0.00538  1.0000
  Fe  Fe58      1.0  0.21604  0.67177  0.94604  1.0000
  S   S115      1.0  0.21080  0.62742  0.92664  1.0000
  S   S116      1.0  0.20358  0.72462  0.93609  1.0000
  Fe  Fe59      1.0  0.17901  0.60281  0.94734  1.0000
  S   S117      1.0  0.12973  0.57294  0.94201  1.0000
  Fe  Fe60      1.0  0.25608  0.60533  0.94069  1.0000
  S   S118      1.0  0.30414  0.58071  0.92995  1.0000
  S   S119      1.0  0.18094  0.64831  0.96584  1.0000
  S   S120      1.0  0.26405  0.65188  0.95849  1.0000
  Fe  Fe61      1.0  0.21940  0.91423  0.96297  1.0000
  S   S121      1.0  0.19154  0.92108  0.93755  1.0000
  S   S122      1.0  0.25586  0.87007  0.96633  1.0000
  Fe  Fe62      1.0  0.18201  0.97333  0.98135  1.0000
  S   S123      1.0  0.15138  0.98403  0.95713  1.0000
  S   S124      1.0  0.16196  0.00181  0.00522  1.0000
  Fe  Fe63      1.0  0.14482  0.92695  0.95413  1.0000
  S   S125      1.0  0.09617  0.89538  0.94981  1.0000
  Fe  Fe64      1.0  0.20116  0.97752  0.94286  1.0000
  S   S126      1.0  0.21180  0.01397  0.92080  1.0000
  S   S127      1.0  0.17202  0.91640  0.97925  1.0000
  S   S128      1.0  0.23273  0.97074  0.96733  1.0000
  H   H341      1.0  0.04020  0.02351  0.74312  1.0000
  H   H342      1.0  0.14155  0.84753  0.96764  1.0000
  C   C340      1.0  0.14076  0.81973  0.96613  1.0000
  C   C341      1.0  0.28828  0.54755  0.99989  1.0000
  H   H343      1.0  0.10284  0.81966  0.94542  1.0000
  H   H344      1.0  0.10191  0.96575  0.98759  1.0000
  C   C342      1.0  0.06037  0.95436  0.94397  1.0000
  C   C343      1.0  0.05857  0.91915  0.94716  1.0000
  H   H345      1.0  0.20841  0.61468  0.70095  1.0000
  H   H346      1.0  0.08498  0.96687  0.94208  1.0000
  C   C344      1.0  0.21394  0.58744  0.70380  1.0000
  C   C345      1.0  0.31482  0.01261  0.91257  1.0000
  C   C346      1.0  0.19595  0.56607  0.00751  1.0000
  H   H347      1.0  0.20695  0.75902  0.99014  1.0000
  C   C347      1.0  0.07058  0.58532  0.98423  1.0000
  H   H348      1.0  0.12745  0.55317  0.97946  1.0000
  C   C348      1.0  0.31823  0.03171  0.89731  1.0000
  C   C349      1.0  0.07405  0.96688  0.98796  1.0000
  H   H349      1.0  0.10266  0.75575  0.94144  1.0000
  N   N29       1.0  0.30004  0.55394  0.98350  1.0000
  H   H350      1.0  0.27991  0.99218  0.93169  1.0000
  H   H351      1.0  0.06585  0.67989  0.94904  1.0000
  C   C350      1.0  0.06415  0.65234  0.94684  1.0000
  H   H352      1.0  0.35684  0.54196  0.91309  1.0000
  C   C351      1.0  0.22066  0.76445  0.94397  1.0000
  C   C352      1.0  0.24719  0.76687  0.95647  1.0000
  C   C353      1.0  0.25823  0.79940  0.96312  1.0000
  C   C354      1.0  0.24248  0.82953  0.95749  1.0000
  C   C355      1.0  0.21618  0.82694  0.94491  1.0000
  C   C356      1.0  0.20563  0.79463  0.93806  1.0000
  H   H353      1.0  0.25915  0.74375  0.96101  1.0000
  H   H354      1.0  0.27879  0.80120  0.97276  1.0000
  H   H355      1.0  0.20379  0.84974  0.94045  1.0000
  H   H356      1.0  0.18514  0.79294  0.92838  1.0000
  C   C357      1.0  0.09431  0.63336  0.94502  1.0000
  C   C358      1.0  0.09233  0.59768  0.94239  1.0000
  H   H357      1.0  0.20455  0.58234  0.71717  1.0000
  H   H358      1.0  0.11904  0.64637  0.94556  1.0000
  C   C359      1.0  0.31896  0.58610  0.98037  1.0000
  H   H359      1.0  0.33743  0.00197  0.91863  1.0000
  H   H360      1.0  0.18818  0.57148  0.99428  1.0000
  C   C360      1.0  0.16242  0.79950  0.97619  1.0000
  C   C361      1.0  0.11880  0.76828  0.95142  1.0000
  H   H361      1.0  0.18011  0.81214  0.98544  1.0000
  N   N30       1.0  0.28583  0.91849  0.90892  1.0000
  C   C362      1.0  0.31888  0.92373  0.90346  1.0000
  C   C363      1.0  0.25887  0.93220  0.89996  1.0000
  C   C364      1.0  0.32553  0.94249  0.88844  1.0000
  C   C365      1.0  0.26458  0.95102  0.88488  1.0000
  C   C366      1.0  0.29815  0.95611  0.87910  1.0000
  C   C367      1.0  0.27926  0.90000  0.92506  1.0000
  H   H362      1.0  0.34038  0.91390  0.91087  1.0000
  H   H363      1.0  0.23278  0.92936  0.90466  1.0000
  H   H364      1.0  0.35178  0.94759  0.88440  1.0000
  H   H365      1.0  0.24321  0.96266  0.87811  1.0000
  H   H366      1.0  0.30313  0.97175  0.86780  1.0000
  H   H367      1.0  0.27525  0.91860  0.93607  1.0000
  H   H368      1.0  0.25605  0.88302  0.92363  1.0000
  H   H369      1.0  0.30092  0.88314  0.92865  1.0000
  H   H370      1.0  0.14101  0.72110  0.95967  1.0000
  N   N31       1.0  0.07238  0.55057  0.98118  1.0000
  N   N32       1.0  0.25079  0.58059  0.70231  1.0000
  H   H371      1.0  0.19721  0.72325  0.97591  1.0000
  C   C368      1.0  0.22465  0.02493  0.01912  1.0000
  C   C369      1.0  0.14052  0.74878  0.96183  1.0000
  C   C370      1.0  0.11901  0.80402  0.95360  1.0000
  C   C371      1.0  0.28232  0.00692  0.91994  1.0000
  H   H372      1.0  0.34614  0.58386  0.98470  1.0000
  H   H373      1.0  0.06837  0.91335  0.99429  1.0000
  C   C372      1.0  0.30240  0.55141  0.91194  1.0000
  C   C373      1.0  0.18878  0.02482  0.02036  1.0000
  H   H374      1.0  0.17075  0.73089  0.99485  1.0000
  C   C374      1.0  0.25304  0.02038  0.91206  1.0000
  H   H375      1.0  0.31848  0.59256  0.96630  1.0000
  N   N33       1.0  0.16234  0.76449  0.97381  1.0000
  C   C375      1.0  0.18531  0.74344  0.98429  1.0000
  C   C376      1.0  0.03868  0.60099  0.98628  1.0000
  C   C377      1.0  0.06003  0.58120  0.94100  1.0000
  N   N34       1.0  0.05761  0.99669  0.98422  1.0000
  C   C378      1.0  0.30031  0.54850  0.71081  1.0000
  C   C379      1.0  0.22044  0.58724  0.01615  1.0000
  H   H376      1.0  0.09377  0.60125  0.98458  1.0000
  C   C380      1.0  0.05518  0.93715  0.99189  1.0000
  H   H377      1.0  0.29231  0.56642  0.01042  1.0000
  H   H378      1.0  0.30701  0.60799  0.98753  1.0000
  H   H379      1.0  0.08212  0.02536  0.96463  1.0000
  H   H380      1.0  0.05836  0.55365  0.93876  1.0000
  H   H381      1.0  0.23671  0.01072  0.00861  1.0000
  C   C381      1.0  0.27148  0.54336  0.90315  1.0000
  H   H382      1.0  0.24790  0.55525  0.90733  1.0000
  C   C382      1.0  0.07777  0.02684  0.97895  1.0000
  H   H383      1.0  0.10321  0.02805  0.98578  1.0000
  H   H384      1.0  0.10764  0.02096  0.73719  1.0000
  H   H385      1.0  0.19915  0.57057  0.69438  1.0000
  C   C383      1.0  0.33283  0.53579  0.90637  1.0000
  C   C384      1.0  0.26564  0.55667  0.71268  1.0000
  H   H386      1.0  0.25065  0.54352  0.72242  1.0000
  H   H387      1.0  0.34665  0.55867  0.69644  1.0000
  C   C385      1.0  0.31989  0.56518  0.69830  1.0000
  C   C386      1.0  0.18156  0.53772  0.01601  1.0000
  H   H388      1.0  0.03714  0.62866  0.98813  1.0000
  Fe  Fe65      1.0  0.86477  0.40155  0.10731  1.0000
  S   S129      1.0  0.90991  0.42689  0.12136  1.0000
  S   S130      1.0  0.84603  0.35152  0.11883  1.0000
  Fe  Fe66      1.0  0.86054  0.45932  0.08075  1.0000
  S   S131      1.0  0.90551  0.48812  0.09272  1.0000
  S   S132      1.0  0.83213  0.48321  0.05825  1.0000
  Fe  Fe67      1.0  0.92957  0.43620  0.09445  1.0000
  S   S133      1.0  0.98049  0.42019  0.08338  1.0000
  Fe  Fe68      1.0  0.88085  0.47612  0.11841  1.0000
  H   H389      1.0  0.69959  0.06705  0.19963  1.0000
  S   S134      1.0  0.88610  0.40806  0.08051  1.0000
  S   S135      1.0  0.83420  0.45020  0.10631  1.0000
  Fe  Fe69      1.0  0.87300  0.15726  0.08862  1.0000
  S   S136      1.0  0.87473  0.13694  0.11599  1.0000
  S   S137      1.0  0.86565  0.21003  0.07737  1.0000
  Fe  Fe70      1.0  0.89664  0.08917  0.07200  1.0000
  H   H390      1.0  0.97818  0.11159  0.05131  1.0000
  S   S138      1.0  0.91701  0.06937  0.04626  1.0000
  Fe  Fe71      1.0  0.85036  0.08882  0.10382  1.0000
  H   H391      1.0  0.77811  0.48309  0.08658  1.0000
  Fe  Fe72      1.0  0.92457  0.11289  0.10775  1.0000
  S   S139      1.0  0.97276  0.10988  0.12439  1.0000
  S   S140      1.0  0.84473  0.11108  0.07697  1.0000
  S   S141      1.0  0.92454  0.13676  0.08157  1.0000
  C   C387      1.0  0.83800  0.52984  0.14813  1.0000
  C   C388      1.0  0.80486  0.07340  0.35695  1.0000
  C   C389      1.0  0.69461  0.06304  0.18574  1.0000
  C   C390      1.0  0.79968  0.04920  0.13609  1.0000
  H   H392      1.0  0.83131  0.05875  0.02959  1.0000
  N   N35       1.0  0.82086  0.05554  0.34383  1.0000
  C   C391      1.0  0.72667  0.09705  0.14344  1.0000
  H   H393      1.0  0.81486  0.04510  0.31652  1.0000
  C   C392      1.0  0.01124  0.12541  0.11529  1.0000
  C   C393      1.0  0.03355  0.11012  0.05328  1.0000
  H   H394      1.0  0.03363  0.47708  0.04336  1.0000
  H   H395      1.0  0.73158  0.08214  0.13117  1.0000
  H   H396      1.0  0.98649  0.15724  0.09651  1.0000
  H   H397      1.0  0.76771  0.51587  0.07133  1.0000
  C   C394      1.0  0.77719  0.52037  0.35351  1.0000
  C   C395      1.0  0.01059  0.14774  0.10126  1.0000
  H   H398      1.0  0.67970  0.04770  0.13628  1.0000
  H   H399      1.0  0.93718  0.21963  0.08935  1.0000
  C   C396      1.0  0.85028  0.31222  0.10710  1.0000
  C   C397      1.0  0.84606  0.28103  0.11581  1.0000
  C   C398      1.0  0.85066  0.24934  0.10692  1.0000
  C   C399      1.0  0.85891  0.24876  0.08919  1.0000
  C   C400      1.0  0.86267  0.27992  0.08047  1.0000
  C   C401      1.0  0.85864  0.31153  0.08940  1.0000
  H   H400      1.0  0.83942  0.28143  0.12949  1.0000
  H   H401      1.0  0.84744  0.22544  0.11372  1.0000
  H   H402      1.0  0.86883  0.27964  0.06672  1.0000
  H   H403      1.0  0.86163  0.33532  0.08253  1.0000
  C   C402      1.0  0.81061  0.06336  0.16671  1.0000
  C   C403      1.0  0.68401  0.05215  0.15017  1.0000
  H   H404      1.0  0.80990  0.48703  0.13635  1.0000
  N   N36       1.0  0.70791  0.07613  0.15602  1.0000
  H   H405      1.0  0.82427  0.07863  0.17665  1.0000
  H   H406      1.0  0.99625  0.45325  0.11726  1.0000
  H   H407      1.0  0.73259  0.10034  0.17827  1.0000
  C   C404      1.0  0.71324  0.08181  0.17356  1.0000
  H   H408      1.0  0.80221  0.52809  0.32884  1.0000
  C   C405      1.0  0.01908  0.42792  0.09504  1.0000
  H   H409      1.0  0.71172  0.12020  0.14028  1.0000
  C   C406      1.0  0.99509  0.07910  0.07200  1.0000
  C   C407      1.0  0.80830  0.51025  0.14425  1.0000
  H   H410      1.0  0.96920  0.07211  0.07590  1.0000
  C   C408      1.0  0.98985  0.50011  0.06726  1.0000
  H   H411      1.0  0.91937  0.22052  0.11061  1.0000
  C   C409      1.0  0.84243  0.52039  0.02855  1.0000
  H   H412      1.0  0.83651  0.08765  0.14527  1.0000
  C   C410      1.0  0.76440  0.50770  0.08504  1.0000
  H   H413      1.0  0.96566  0.22191  0.10824  1.0000
  N   N37       1.0  0.02737  0.49830  0.06903  1.0000
  C   C411      1.0  0.91359  0.51214  0.02880  1.0000
  H   H414      1.0  0.90564  0.48286  0.05209  1.0000
  C   C412      1.0  0.81763  0.06846  0.14897  1.0000
  N   N38       1.0  0.94056  0.26857  0.10266  1.0000
  C   C413      1.0  0.95004  0.28563  0.08799  1.0000
  C   C414      1.0  0.93211  0.28655  0.11754  1.0000
  C   C415      1.0  0.95099  0.32164  0.08794  1.0000
  C   C416      1.0  0.93260  0.32255  0.11790  1.0000
  C   C417      1.0  0.94223  0.34009  0.10301  1.0000
  C   C418      1.0  0.94091  0.23085  0.10275  1.0000
  H   H415      1.0  0.95637  0.27143  0.07614  1.0000
  H   H416      1.0  0.92397  0.27311  0.12907  1.0000
  H   H417      1.0  0.95802  0.33534  0.07628  1.0000
  H   H418      1.0  0.92444  0.33680  0.12945  1.0000
  H   H419      1.0  0.94244  0.36795  0.10305  1.0000
  H   H420      1.0  0.75335  0.50573  0.14719  1.0000
  H   H421      1.0  0.85760  0.52646  0.26074  1.0000
  H   H422      1.0  0.97736  0.49779  0.08017  1.0000
  S   S142      1.0  0.80646  0.05548  0.11370  1.0000
  C   C419      1.0  0.01995  0.44522  0.11126  1.0000
  S   S143      1.0  0.90045  0.06329  0.09775  1.0000
  C   C420      1.0  0.89356  0.49760  0.04200  1.0000
  C   C421      1.0  0.85787  0.50158  0.04189  1.0000
  C   C422      1.0  0.85530  0.04924  0.34494  1.0000
  H   H423      1.0  0.77734  0.07735  0.35645  1.0000
  C   C423      1.0  0.00017  0.10125  0.05817  1.0000
  H   H424      1.0  0.75232  0.10540  0.14874  1.0000
  N   N39       1.0  0.77879  0.53412  0.09714  1.0000
  H   H425      1.0  0.78225  0.49304  0.35375  1.0000
  C   C424      1.0  0.78613  0.03858  0.17166  1.0000
  H   H426      1.0  0.97938  0.47836  0.05900  1.0000
  H   H427      1.0  0.83016  0.52637  0.08859  1.0000
  H   H428      1.0  0.73666  0.50249  0.08730  1.0000
  C   C425      1.0  0.80090  0.04113  0.32894  1.0000
  C   C426      1.0  0.67020  0.03857  0.17990  1.0000
  H   H429      1.0  0.98247  0.52478  0.06138  1.0000
  H   H430      1.0  0.77539  0.05329  0.32763  1.0000
  C   C427      1.0  0.77624  0.52083  0.15050  1.0000
  S   S144      1.0  0.87813  0.51901  0.13902  1.0000
  H   H431      1.0  0.01926  0.04968  0.09186  1.0000
  H   H432      1.0  0.94111  0.50860  0.02886  1.0000
  C   C428      1.0  0.02357  0.06630  0.08089  1.0000
  H   H433      1.0  0.81484  0.52349  0.02836  1.0000
  H   H434      1.0  0.82107  0.52788  0.23402  1.0000
  H   H435      1.0  0.02838  0.51899  0.09511  1.0000
  Fe  Fe73      1.0  0.74352  0.46401  0.43716  1.0000
  S   S145      1.0  0.75382  0.42333  0.45696  1.0000
  S   S146      1.0  0.78248  0.46868  0.41544  1.0000
  Fe  Fe74      1.0  0.67223  0.47777  0.45181  1.0000
  S   S147      1.0  0.67698  0.43772  0.47212  1.0000
  S   S148      1.0  0.92077  0.15041  0.68887  1.0000
  Fe  Fe75      1.0  0.72991  0.46048  0.47618  1.0000
  S   S149      1.0  0.74699  0.47055  0.50421  1.0000
  Fe  Fe76      1.0  0.69988  0.40478  0.45102  1.0000
  S   S150      1.0  0.68055  0.35115  0.44335  1.0000
  S   S151      1.0  0.72408  0.50262  0.45686  1.0000
  S   S152      1.0  0.69069  0.44338  0.43016  1.0000
  Fe  Fe77      1.0  0.73013  0.09802  0.43787  1.0000
  S   S153      1.0  0.77149  0.11925  0.45599  1.0000
  S   S154      1.0  0.73558  0.07425  0.41066  1.0000
  Fe  Fe78      1.0  0.67355  0.11058  0.46450  1.0000
  S   S155      1.0  0.71016  0.13314  0.48465  1.0000
  S   S156      1.0  0.61979  0.09609  0.47272  1.0000
  Fe  Fe79      1.0  0.73364  0.16113  0.46216  1.0000
  S   S157      1.0  0.75466  0.21555  0.46668  1.0000
  Fe  Fe80      1.0  0.74459  0.08991  0.47701  1.0000
  S   S158      1.0  0.76966  0.05345  0.49570  1.0000
  S   S159      1.0  0.69382  0.14197  0.44244  1.0000
  S   S160      1.0  0.70641  0.06534  0.45834  1.0000
  C   C429      1.0  0.60781  0.09476  0.40939  1.0000
  C   C430      1.0  0.97923  0.37687  0.68310  1.0000
  S   S161      1.0  0.83701  0.11672  0.66167  1.0000
  C   C431      1.0  0.76084  0.04725  0.68431  1.0000
  H   H436      1.0  0.83741  0.13448  0.59896  1.0000
  C   C432      1.0  0.79383  0.07200  0.64368  1.0000
  H   H437      1.0  0.81189  0.52600  0.58308  1.0000
  N   N40       1.0  0.82116  0.08330  0.60379  1.0000
  C   C433      1.0  0.79830  0.50866  0.40805  1.0000
  H   H438      1.0  0.60270  0.11543  0.40051  1.0000
  H   H439      1.0  0.61029  0.08467  0.51184  1.0000
  C   C434      1.0  0.62032  0.04306  0.43283  1.0000
  H   H440      1.0  0.98883  0.40295  0.68168  1.0000
  C   C435      1.0  0.55138  0.10738  0.46843  1.0000
  C   C436      1.0  0.58460  0.11652  0.46312  1.0000
  C   C437      1.0  0.58889  0.13952  0.44952  1.0000
  H   H441      1.0  0.81822  0.49259  0.55511  1.0000
  H   H442      1.0  0.61448  0.14677  0.44541  1.0000
  H   H443      1.0  0.53617  0.05593  0.44049  1.0000
  H   H444      1.0  0.86624  0.07128  0.61847  1.0000
  H   H445      1.0  0.80176  0.06952  0.42849  1.0000
  H   H446      1.0  0.54791  0.08965  0.47898  1.0000
  H   H447      1.0  0.79856  0.39413  0.42638  1.0000
  H   H448      1.0  0.94271  0.41417  0.66254  1.0000
  S   S162      1.0  0.80376  0.51444  0.69080  1.0000
  C   C438      1.0  0.82355  0.07548  0.65416  1.0000
  H   H449      1.0  0.74538  0.06932  0.68126  1.0000
  C   C439      1.0  0.64772  0.49302  0.53343  1.0000
  C   C440      1.0  0.69912  0.31364  0.45155  1.0000
  C   C441      1.0  0.72721  0.31529  0.46312  1.0000
  C   C442      1.0  0.74322  0.28482  0.46816  1.0000
  C   C443      1.0  0.73119  0.25260  0.46176  1.0000
  C   C444      1.0  0.70254  0.25093  0.45055  1.0000
  C   C445      1.0  0.68664  0.28139  0.44544  1.0000
  H   H450      1.0  0.73701  0.33999  0.46791  1.0000
  H   H451      1.0  0.76537  0.28624  0.47685  1.0000
  H   H452      1.0  0.69318  0.22626  0.44551  1.0000
  H   H453      1.0  0.66490  0.27997  0.43649  1.0000
  C   C446      1.0  0.58792  0.48015  0.45385  1.0000
  C   C447      1.0  0.59137  0.44500  0.45019  1.0000
  N   N41       1.0  0.58774  0.05523  0.43086  1.0000
  H   H454      1.0  0.61617  0.43479  0.44676  1.0000
  H   H455      1.0  0.64359  0.49486  0.48920  1.0000
  C   C448      1.0  0.79553  0.52631  0.66897  1.0000
  S   S163      1.0  0.87961  0.44677  0.67858  1.0000
  C   C449      1.0  0.95584  0.30968  0.68653  1.0000
  C   C450      1.0  0.80196  0.05306  0.41691  1.0000
  H   H456      1.0  0.65351  0.45426  0.51308  1.0000
  H   H457      1.0  0.94614  0.28353  0.68786  1.0000
  H   H458      1.0  0.74049  0.49118  0.54022  1.0000
  H   H459      1.0  0.54675  0.28564  0.44459  1.0000
  H   H460      1.0  0.79654  0.13060  0.60995  1.0000
  H   H461      1.0  0.90870  0.38291  0.65939  1.0000
  H   H462      1.0  0.82393  0.51404  0.62741  1.0000
  H   H463      1.0  0.76947  0.27027  0.43055  1.0000
  C   C451      1.0  0.64307  0.50417  0.50264  1.0000
  C   C452      1.0  0.79548  0.07112  0.59279  1.0000
  H   H464      1.0  0.70337  0.09510  0.54579  1.0000
  C   C453      1.0  0.64737  0.05623  0.42298  1.0000
  S   S164      1.0  0.85620  0.34850  0.68305  1.0000
  C   C454      1.0  0.77636  0.29732  0.42943  1.0000
  H   H465      1.0  0.73049  0.10118  0.51690  1.0000
  H   H466      1.0  0.83614  0.49644  0.65775  1.0000
  H   H467      1.0  0.82057  0.29447  0.44646  1.0000
  H   H468      1.0  0.73241  0.30857  0.41348  1.0000
  H   H469      1.0  0.87300  0.08673  0.38464  1.0000
  C   C455      1.0  0.86488  0.27978  0.68839  1.0000
  C   C456      1.0  0.54523  0.48728  0.41500  1.0000
  N   N42       1.0  0.95271  0.36446  0.67275  1.0000
  C   C457      1.0  0.56250  0.42293  0.45046  1.0000
  H   H470      1.0  0.67237  0.05923  0.49213  1.0000
  H   H471      1.0  0.94736  0.37984  0.64649  1.0000
  C   C458      1.0  0.73397  0.51294  0.53234  1.0000
  H   H472      1.0  0.86598  0.04880  0.66558  1.0000
  C   C459      1.0  0.79210  0.36691  0.42722  1.0000
  H   H473      1.0  0.83355  0.48480  0.39014  1.0000
  H   H474      1.0  0.75212  0.52141  0.37847  1.0000
  H   H475      1.0  0.65254  0.10439  0.51165  1.0000
  N   N43       1.0  0.76341  0.35343  0.41889  1.0000
  C   C460      1.0  0.85861  0.07907  0.37291  1.0000
  H   H476      1.0  0.66224  0.09336  0.40397  1.0000
  H   H477      1.0  0.67316  0.04637  0.42445  1.0000
  H   H478      1.0  0.83525  0.35694  0.44429  1.0000
  C   C461      1.0  0.74149  0.37544  0.40838  1.0000
  H   H479      1.0  0.71391  0.37044  0.41127  1.0000
  H   H480      1.0  0.74671  0.40317  0.41133  1.0000
  H   H481      1.0  0.74604  0.37047  0.39428  1.0000
  C   C462      1.0  0.55562  0.49308  0.45816  1.0000
  C   C463      1.0  0.55989  0.15231  0.44083  1.0000
  C   C464      1.0  0.73395  0.07794  0.52411  1.0000
  H   H482      1.0  0.57311  0.48956  0.41469  1.0000
  C   C465      1.0  0.84600  0.06171  0.60965  1.0000
  C   C466      1.0  0.58115  0.08043  0.41915  1.0000
  C   C467      1.0  0.75335  0.05124  0.51702  1.0000
  C   C468      1.0  0.75553  0.31910  0.41978  1.0000
  C   C469      1.0  0.64829  0.48107  0.51611  1.0000
  H   H483      1.0  0.54432  0.43230  0.41071  1.0000
  S   S165      1.0  0.97332  0.47444  0.68771  1.0000
  C   C470      1.0  0.82356  0.08578  0.37158  1.0000
  C   C471      1.0  0.81311  0.34598  0.43728  1.0000
  H   H484      1.0  0.56323  0.16953  0.43006  1.0000
  C   C472      1.0  0.64113  0.08250  0.41135  1.0000
  C   C473      1.0  0.84260  0.04633  0.65787  1.0000
  H   H485      1.0  0.85489  0.03882  0.42052  1.0000
  H   H486      1.0  0.85212  0.27568  0.67586  1.0000
  H   H487      1.0  0.77597  0.08819  0.58788  1.0000
  C   C474      1.0  0.72259  0.04423  0.54987  1.0000
  H   H488      1.0  0.90166  0.05451  0.36073  1.0000
  H   H489      1.0  0.76058  0.03734  0.62872  1.0000
  H   H490      1.0  0.77906  0.09449  0.64069  1.0000
  S   S166      1.0  0.62352  0.50822  0.45225  1.0000
  C   C475      1.0  0.94136  0.33116  0.67411  1.0000
  C   C476      1.0  0.71880  0.07451  0.54053  1.0000
  C   C477      1.0  0.80505  0.31098  0.43841  1.0000
  C   C478      1.0  0.93719  0.38640  0.65961  1.0000
  H   H491      1.0  0.83545  0.12398  0.62185  1.0000
  C   C479      1.0  0.82277  0.11992  0.60882  1.0000
  H   H492      1.0  0.56530  0.39585  0.44731  1.0000
  H   H493      1.0  0.81060  0.09882  0.38227  1.0000
  H   H494      1.0  0.92034  0.32130  0.66587  1.0000
  C   C480      1.0  0.81534  0.51376  0.65518  1.0000
  Fe  Fe81      1.0  0.87096  0.12009  0.68593  1.0000
  C   C481      1.0  0.55976  0.04017  0.44102  1.0000
  C   C482      1.0  0.82338  0.50887  0.39499  1.0000
  H   H495      1.0  0.55535  0.09030  0.41766  1.0000
  C   C483      1.0  0.77259  0.04985  0.40626  1.0000
  H   H496      1.0  0.55289  0.52023  0.46107  1.0000
  C   C484      1.0  0.73445  0.50966  0.51407  1.0000
  H   H497      1.0  0.65249  0.47553  0.54400  1.0000
  C   C485      1.0  0.78322  0.03957  0.63695  1.0000
  C   C486      1.0  0.63602  0.08519  0.51832  1.0000
  C   C487      1.0  0.80838  0.52380  0.63798  1.0000
  H   H498      1.0  0.63367  0.09427  0.53211  1.0000
  C   C488      1.0  0.79359  0.03628  0.58787  1.0000
  C   C489      1.0  0.81403  0.52009  0.55496  1.0000
  C   C490      1.0  0.64180  0.52773  0.53708  1.0000
  N   N44       1.0  0.65108  0.05092  0.51720  1.0000
  H   H499      1.0  0.81389  0.52227  0.52696  1.0000
  S   S167      1.0  0.69931  0.03955  0.56926  1.0000
  C   C491      1.0  0.66880  0.04134  0.50260  1.0000
  H   H500      1.0  0.56756  0.03896  0.45501  1.0000
  C   C492      1.0  0.83208  0.03564  0.41236  1.0000
  H   H501      1.0  0.87232  0.22558  0.69253  1.0000
  C   C493      1.0  0.87466  0.06079  0.35951  1.0000
  H   H502      1.0  0.71907  0.03532  0.65745  1.0000
  H   H503      1.0  0.63340  0.03626  0.54231  1.0000
  Fe  Fe82      1.0  0.93883  0.10567  0.70441  1.0000
  H   H504      1.0  0.54752  0.06585  0.81885  1.0000
  Fe  Fe83      1.0  0.87083  0.09906  0.72377  1.0000
  S   S168      1.0  0.84773  0.14345  0.71009  1.0000
  S   S169      1.0  0.83857  0.06870  0.74242  1.0000
  Fe  Fe84      1.0  0.89928  0.16909  0.71443  1.0000
  H   H505      1.0  0.91070  0.29435  0.73323  1.0000
  Fe  Fe85      1.0  0.84517  0.47588  0.69673  1.0000
  S   S170      1.0  0.92075  0.12633  0.73024  1.0000
  S   S171      1.0  0.88790  0.49101  0.71564  1.0000
  C   C494      1.0  0.82882  0.52928  0.77087  1.0000
  S   S172      1.0  0.91221  0.41058  0.71357  1.0000
  C   C495      1.0  0.85401  0.05515  0.79225  1.0000
  Fe  Fe86      1.0  0.87417  0.44175  0.72890  1.0000
  S   S173      1.0  0.87051  0.43528  0.75811  1.0000
  S   S174      1.0  0.77014  0.04087  0.85843  1.0000
  C   C496      1.0  0.55638  0.13082  0.85782  1.0000
  S   S175      1.0  0.82933  0.42877  0.71129  1.0000
  Fe  Fe87      1.0  0.73759  0.38737  0.84629  1.0000
  S   S176      1.0  0.70083  0.39575  0.82429  1.0000
  S   S177      1.0  0.76864  0.33910  0.84551  1.0000
  Fe  Fe88      1.0  0.72197  0.45593  0.86408  1.0000
  S   S178      1.0  0.68330  0.46984  0.84325  1.0000
  S   S179      1.0  0.72959  0.48531  0.88987  1.0000
  Fe  Fe89      1.0  0.66463  0.41496  0.84476  1.0000
  S   S180      1.0  0.61141  0.38999  0.84454  1.0000
  Fe  Fe90      1.0  0.72285  0.44927  0.82444  1.0000
  S   S181      1.0  0.73318  0.47093  0.79776  1.0000
  S   S182      1.0  0.70020  0.40239  0.86691  1.0000
  S   S183      1.0  0.76281  0.43966  0.84517  1.0000
  Fe  Fe91      1.0  0.70780  0.15733  0.85596  1.0000
  S   S184      1.0  0.68684  0.15819  0.82864  1.0000
  S   S185      1.0  0.69689  0.20381  0.87292  1.0000
  Fe  Fe92      1.0  0.73825  0.08635  0.85090  1.0000
  S   S186      1.0  0.71977  0.08212  0.82302  1.0000
  C   C497      1.0  0.55194  0.37418  0.88133  1.0000
  Fe  Fe93      1.0  0.73780  0.13684  0.82105  1.0000
  S   S187      1.0  0.76861  0.16229  0.80001  1.0000
  Fe  Fe94      1.0  0.67060  0.10379  0.83331  1.0000
  C   C498      1.0  0.83499  0.07100  0.98588  1.0000
  S   S188      1.0  0.76019  0.13971  0.84819  1.0000
  S   S189      1.0  0.68762  0.10407  0.86139  1.0000
  C   C499      1.0  0.74840  0.30187  0.85334  1.0000
  C   C500      1.0  0.71972  0.30387  0.86416  1.0000
  C   C501      1.0  0.70458  0.27370  0.87056  1.0000
  C   C502      1.0  0.71733  0.24142  0.86566  1.0000
  C   C503      1.0  0.74556  0.23948  0.85456  1.0000
  C   C504      1.0  0.76140  0.26965  0.84865  1.0000
  H   H506      1.0  0.70942  0.32858  0.86778  1.0000
  H   H507      1.0  0.68253  0.27527  0.87902  1.0000
  H   H508      1.0  0.75548  0.21473  0.85066  1.0000
  H   H509      1.0  0.78352  0.26795  0.84024  1.0000
  C   C505      1.0  0.83091  0.44123  0.76871  1.0000
  C   C506      1.0  0.82980  0.43943  0.78697  1.0000
  C   C507      1.0  0.79933  0.44665  0.79596  1.0000
  C   C508      1.0  0.76977  0.45583  0.78673  1.0000
  C   C509      1.0  0.77046  0.45615  0.76840  1.0000
  C   C510      1.0  0.80094  0.44893  0.75941  1.0000
  H   H510      1.0  0.85285  0.43335  0.79425  1.0000
  H   H511      1.0  0.79913  0.44643  0.81007  1.0000
  H   H512      1.0  0.74761  0.46304  0.76118  1.0000
  H   H513      1.0  0.80144  0.45042  0.74535  1.0000
  C   C511      1.0  0.81683  0.09529  0.75736  1.0000
  C   C512      1.0  0.79197  0.08104  0.76831  1.0000
  C   C513      1.0  0.77650  0.10149  0.78129  1.0000
  C   C514      1.0  0.78555  0.13635  0.78319  1.0000
  C   C515      1.0  0.80976  0.15076  0.77194  1.0000
  C   C516      1.0  0.82546  0.13027  0.75909  1.0000
  C   C517      1.0  0.84593  0.13671  0.81872  1.0000
  H   H514      1.0  0.75769  0.09025  0.78983  1.0000
  H   H515      1.0  0.81684  0.17771  0.77336  1.0000
  H   H516      1.0  0.84473  0.14143  0.75074  1.0000
  H   H517      1.0  0.99844  0.15267  0.71370  1.0000
  C   C518      1.0  0.76836  0.50697  0.89605  1.0000
  H   H518      1.0  0.71357  0.32117  0.81948  1.0000
  C   C519      1.0  0.82647  0.05457  0.01571  1.0000
  C   C520      1.0  0.01407  0.44276  0.71225  1.0000
  H   H519      1.0  0.84614  0.23556  0.74824  1.0000
  C   C521      1.0  0.65099  0.30796  0.83166  1.0000
  C   C522      1.0  0.57350  0.41398  0.84268  1.0000
  C   C523      1.0  0.57387  0.44989  0.84420  1.0000
  C   C524      1.0  0.55008  0.08398  0.82974  1.0000
  H   H520      1.0  0.59809  0.46382  0.84575  1.0000
  H   H521      1.0  0.85703  0.09841  0.00831  1.0000
  C   C525      1.0  0.58286  0.09621  0.83501  1.0000
  C   C526      1.0  0.58595  0.11960  0.84912  1.0000
  C   C527      1.0  0.76463  0.03578  0.91135  1.0000
  H   H522      1.0  0.61108  0.12913  0.85331  1.0000
  C   C528      1.0  0.70260  0.29613  0.81461  1.0000
  S   S190      1.0  0.89070  0.07376  0.69940  1.0000
  H   H523      1.0  0.69303  0.29895  0.80101  1.0000
  H   H524      1.0  0.88983  0.34391  0.71689  1.0000
  C   C529      1.0  0.84090  0.07690  0.00373  1.0000
  H   H525      1.0  0.99047  0.43542  0.71862  1.0000
  H   H526      1.0  0.87108  0.10753  0.78979  1.0000
  C   C530      1.0  0.89804  0.29020  0.72067  1.0000
  H   H527      1.0  0.65336  0.33486  0.82834  1.0000
  H   H528      1.0  0.62374  0.05810  0.90207  1.0000
  H   H529      1.0  0.79959  0.23613  0.74722  1.0000
  H   H530      1.0  0.85289  0.39126  0.87941  1.0000
  C   C531      1.0  0.61279  0.04506  0.87504  1.0000
  C   C532      1.0  0.87636  0.25145  0.69778  1.0000
  C   C533      1.0  0.98206  0.32251  0.69757  1.0000
  C   C534      1.0  0.77265  0.51936  0.91334  1.0000
  H   H531      1.0  0.82325  0.14527  0.82626  1.0000
  H   H532      1.0  0.82716  0.42349  0.86910  1.0000
  H   H533      1.0  0.60528  0.31614  0.84681  1.0000
  H   H534      1.0  0.82551  0.38025  0.86071  1.0000
  S   S191      1.0  0.99117  0.08192  0.70110  1.0000
  C   C535      1.0  0.64399  0.23936  0.84019  1.0000
  C   C536      1.0  0.86992  0.31333  0.69517  1.0000
  C   C537      1.0  0.88641  0.31839  0.71136  1.0000
  C   C538      1.0  0.82025  0.04343  0.81773  1.0000
  C   C539      1.0  0.67100  0.25070  0.82973  1.0000
  C   C540      1.0  0.81734  0.53151  0.73987  1.0000
  H   H535      1.0  0.74315  0.06771  0.89134  1.0000
  N   N45       1.0  0.67448  0.28471  0.82580  1.0000
  C   C541      1.0  0.62026  0.26296  0.84645  1.0000
  H   H536      1.0  0.82501  0.23437  0.72754  1.0000
  H   H537      1.0  0.72417  0.27771  0.81461  1.0000
  H   H538      1.0  0.01457  0.36660  0.70422  1.0000
  H   H539      1.0  0.79207  0.50205  0.87087  1.0000
  C   C542      1.0  0.02373  0.14306  0.71073  1.0000
  C   C543      1.0  0.79405  0.53491  0.77395  1.0000
  H   H540      1.0  0.82464  0.38266  0.74112  1.0000
  C   C544      1.0  0.01287  0.46276  0.69732  1.0000
  N   N46       1.0  0.82436  0.28326  0.74088  1.0000
  C   C545      1.0  0.83837  0.30155  0.75479  1.0000
  C   C546      1.0  0.80991  0.29999  0.72715  1.0000
  C   C547      1.0  0.83868  0.33757  0.75505  1.0000
  C   C548      1.0  0.80983  0.33598  0.72699  1.0000
  C   C549      1.0  0.82427  0.35478  0.74106  1.0000
  C   C550      1.0  0.82354  0.24553  0.74102  1.0000
  H   H541      1.0  0.84976  0.28832  0.76568  1.0000
  H   H542      1.0  0.79925  0.28559  0.71599  1.0000
  H   H543      1.0  0.85025  0.35225  0.76592  1.0000
  H   H544      1.0  0.79948  0.34919  0.71579  1.0000
  H   H545      1.0  0.58696  0.05534  0.87516  1.0000
  C   C551      1.0  0.76003  0.04663  0.89408  1.0000
  H   H546      1.0  0.84637  0.52495  0.78169  1.0000
  Fe  Fe95      1.0  0.92157  0.45838  0.69851  1.0000
  N   N47       1.0  0.79962  0.38771  0.88481  1.0000
  C   C552      1.0  0.79006  0.35406  0.88695  1.0000
  C   C553      1.0  0.78393  0.41331  0.89414  1.0000
  C   C554      1.0  0.76321  0.34543  0.89814  1.0000
  C   C555      1.0  0.75706  0.40564  0.90547  1.0000
  C   C556      1.0  0.74653  0.37147  0.90738  1.0000
  C   C557      1.0  0.82777  0.39611  0.87298  1.0000
  H   H547      1.0  0.80262  0.33371  0.87962  1.0000
  H   H548      1.0  0.79183  0.43993  0.89270  1.0000
  H   H549      1.0  0.75512  0.31874  0.89937  1.0000
  H   H550      1.0  0.74420  0.42627  0.91247  1.0000
  H   H551      1.0  0.72537  0.36525  0.91594  1.0000
  H   H552      1.0  0.75564  0.51286  0.72187  1.0000
  C   C558      1.0  0.82401  0.07799  0.82298  1.0000
  S   S192      1.0  0.90657  0.22219  0.72639  1.0000
  C   C559      1.0  0.89300  0.25673  0.71393  1.0000
  H   H553      1.0  0.53820  0.32045  0.87782  1.0000
  H   H554      1.0  0.75209  0.51584  0.92257  1.0000
  C   C560      1.0  0.89820  0.53090  0.01544  1.0000
  H   H555      1.0  0.55890  0.14898  0.86869  1.0000
  S   S193      1.0  0.61964  0.08112  0.82414  1.0000
  H   H556      1.0  0.86942  0.14006  0.82700  1.0000
  H   H557      1.0  0.59942  0.25439  0.85469  1.0000
  Fe  Fe96      1.0  0.86794  0.40100  0.69501  1.0000
  H   H558      1.0  0.98735  0.52987  0.98098  1.0000
  H   H559      1.0  0.79416  0.07655  0.70222  1.0000
  H   H560      1.0  0.68967  0.23229  0.82514  1.0000
  C   C561      1.0  0.79512  0.51138  0.88423  1.0000
  C   C562      1.0  0.85718  0.08957  0.79786  1.0000
  H   H561      1.0  0.75115  0.04855  0.92187  1.0000
  H   H562      1.0  0.81236  0.08652  0.83511  1.0000
  N   N48       1.0  0.84183  0.10067  0.81292  1.0000
  C   C563      1.0  0.02719  0.10975  0.70380  1.0000
  C   C564      1.0  0.54191  0.39623  0.84071  1.0000
  H   H563      1.0  0.99291  0.30632  0.70751  1.0000
  H   H564      1.0  0.84756  0.15396  0.80736  1.0000
  C   C565      1.0  0.62363  0.29749  0.84211  1.0000
  H   H565      1.0  0.64189  0.21256  0.84376  1.0000
  H   H566      1.0  0.78513  0.05402  0.76697  1.0000
  C   C566      1.0  0.53930  0.40746  0.88355  1.0000
  H   H567      1.0  0.84640  0.08792  0.97640  1.0000
  H   H568      1.0  0.92942  0.03704  0.01326  1.0000
  H   H569      1.0  0.54142  0.36844  0.83957  1.0000
  C   C567      1.0  0.82581  0.52832  0.88967  1.0000
  C   C568      1.0  0.99407  0.35627  0.69579  1.0000
  C   C569      1.0  0.78835  0.05156  0.69616  1.0000
  C   C570      1.0  0.54270  0.46781  0.84400  1.0000
  C   C571      1.0  0.81466  0.04270  0.98029  1.0000
  C   C572      1.0  0.84063  0.52762  0.75374  1.0000
  H   H570      1.0  0.82651  0.52972  0.72655  1.0000
  H   H571      1.0  0.55742  0.42900  0.88434  1.0000
  H   H572      1.0  0.81057  0.03803  0.96638  1.0000
  H   H573      1.0  0.86506  0.04683  0.77991  1.0000
  C   C573      1.0  0.63344  0.04664  0.89008  1.0000
  H   H574      1.0  0.86744  0.52224  0.75121  1.0000
  H   H575      1.0  0.02151  0.06241  0.73542  1.0000
  H   H576      1.0  0.57943  0.37023  0.88032  1.0000
  H   H577      1.0  0.54313  0.49560  0.84529  1.0000
  H   H578      1.0  0.84630  0.53193  0.88040  1.0000
  H   H579      1.0  0.78430  0.53476  0.78719  1.0000
  Fe  Fe97      1.0  0.66650  0.62073  0.21480  1.0000
  S   S194      1.0  0.66883  0.63023  0.18615  1.0000
  S   S195      1.0  0.61740  0.60519  0.22860  1.0000
  Fe  Fe98      1.0  0.74134  0.64445  0.22054  1.0000
  S   S196      1.0  0.74891  0.65619  0.19213  1.0000
  S   S197      1.0  0.78497  0.65974  0.23900  1.0000
  Fe  Fe99      1.0  0.69648  0.67939  0.19386  1.0000
  S   S198      1.0  0.67590  0.72869  0.18318  1.0000
  Fe  Fe100     1.0  0.72089  0.60582  0.18721  1.0000
  C   C574      1.0  0.54672  0.60613  0.22710  1.0000
  S   S199      1.0  0.69111  0.67152  0.22254  1.0000
  S   S200      1.0  0.71666  0.59238  0.21558  1.0000
  Fe  Fe101     1.0  0.73750  0.91106  0.20440  1.0000
  S   S201      1.0  0.68977  0.91247  0.22042  1.0000
  S   S202      1.0  0.76681  0.86303  0.19849  1.0000
  Fe  Fe102     1.0  0.74393  0.98907  0.20280  1.0000
  S   S203      1.0  0.69699  0.99728  0.21925  1.0000
  H   H580      1.0  0.62862  0.69585  0.20602  1.0000
  Fe  Fe103     1.0  0.71762  0.95481  0.23565  1.0000
  S   S204      1.0  0.71867  0.95141  0.26501  1.0000
  Fe  Fe104     1.0  0.67338  0.95445  0.20261  1.0000
  S   S205      1.0  0.62220  0.95648  0.18827  1.0000
  S   S206      1.0  0.76644  0.95047  0.22077  1.0000
  S   S207      1.0  0.71920  0.94913  0.18502  1.0000
  C   C575      1.0  0.76859  0.01898  0.15876  1.0000
  H   H581      1.0  0.78205  0.55699  0.27509  1.0000
  Fe  Fe105     1.0  0.87479  0.96048  0.32748  1.0000
  H   H582      1.0  0.83393  0.00499  0.26946  1.0000
  S   S208      1.0  0.86008  0.98951  0.30344  1.0000
  H   H583      1.0  0.92973  0.78550  0.32092  1.0000
  C   C576      1.0  0.89366  0.74983  0.33208  1.0000
  C   C577      1.0  0.55637  0.69257  0.23028  1.0000
  S   S209      1.0  0.89758  0.90820  0.32526  1.0000
  Fe  Fe106     1.0  0.86835  0.59575  0.32197  1.0000
  S   S210      1.0  0.84913  0.64070  0.33766  1.0000
  S   S211      1.0  0.83452  0.56917  0.30139  1.0000
  Fe  Fe107     1.0  0.93577  0.59346  0.34285  1.0000
  C   C578      1.0  0.59131  0.69260  0.22634  1.0000
  C   C579      1.0  0.82791  0.56621  0.10836  1.0000
  H   H584      1.0  0.54266  0.62122  0.17732  1.0000
  S   S212      1.0  0.88466  0.56572  0.34526  1.0000
  S   S213      1.0  0.92080  0.61885  0.31798  1.0000
  H   H585      1.0  0.65542  0.02390  0.18919  1.0000
  H   H586      1.0  0.61035  0.68389  0.17521  1.0000
  Fe  Fe108     1.0  0.86290  0.89531  0.34736  1.0000
  H   H587      1.0  0.00057  0.97536  0.35785  1.0000
  H   H588      1.0  0.84194  0.96623  0.04323  1.0000
  H   H589      1.0  0.85557  0.57049  0.10883  1.0000
  C   C580      1.0  0.75794  0.96230  0.27561  1.0000
  C   C581      1.0  0.78337  0.98146  0.26724  1.0000
  C   C582      1.0  0.81450  0.98986  0.27596  1.0000
  C   C583      1.0  0.82061  0.97874  0.29298  1.0000
  C   C584      1.0  0.79523  0.95944  0.30134  1.0000
  C   C585      1.0  0.76389  0.95146  0.29271  1.0000
  H   H590      1.0  0.77880  0.99046  0.25418  1.0000
  H   H591      1.0  0.80354  0.60659  0.21050  1.0000
  H   H592      1.0  0.79965  0.95060  0.31442  1.0000
  H   H593      1.0  0.74429  0.93663  0.29925  1.0000
  C   C586      1.0  0.79382  0.63618  0.25783  1.0000
  C   C587      1.0  0.81775  0.64978  0.27011  1.0000
  C   C588      1.0  0.82903  0.62995  0.28408  1.0000
  C   C589      1.0  0.81669  0.59623  0.28571  1.0000
  C   C590      1.0  0.79174  0.58305  0.27384  1.0000
  C   C591      1.0  0.78019  0.60305  0.25994  1.0000
  H   H594      1.0  0.82835  0.67542  0.26853  1.0000
  H   H595      1.0  0.84828  0.64032  0.29317  1.0000
  C   C592      1.0  0.80323  0.57039  0.16496  1.0000
  H   H596      1.0  0.76171  0.59241  0.25054  1.0000
  C   C593      1.0  0.70101  0.76585  0.18813  1.0000
  C   C594      1.0  0.73532  0.76337  0.19356  1.0000
  C   C595      1.0  0.75537  0.79334  0.19671  1.0000
  C   C596      1.0  0.74095  0.82587  0.19489  1.0000
  C   C597      1.0  0.70638  0.82840  0.18987  1.0000
  C   C598      1.0  0.68657  0.79842  0.18629  1.0000
  H   H597      1.0  0.74663  0.73836  0.19501  1.0000
  H   H598      1.0  0.78208  0.79125  0.20059  1.0000
  H   H599      1.0  0.69515  0.85342  0.18836  1.0000
  H   H600      1.0  0.66007  0.80044  0.18206  1.0000
  N   N49       1.0  0.83545  0.57949  0.22816  1.0000
  H   H601      1.0  0.55095  0.89268  0.22864  1.0000
  C   C599      1.0  0.78849  0.53999  0.33961  1.0000
  C   C600      1.0  0.54365  0.61700  0.19124  1.0000
  C   C601      1.0  0.58909  0.70202  0.17788  1.0000
  H   H602      1.0  0.60664  0.97061  0.22500  1.0000
  Fe  Fe109     1.0  0.90301  0.66159  0.33573  1.0000
  C   C602      1.0  0.85527  0.80839  0.34063  1.0000
  C   C603      1.0  0.57560  0.61279  0.19956  1.0000
  C   C604      1.0  0.57738  0.60785  0.21757  1.0000
  H   H603      1.0  0.76124  0.00944  0.13111  1.0000
  H   H604      1.0  0.59885  0.61343  0.19203  1.0000
  C   C605      1.0  0.76214  0.62828  0.35407  1.0000
  C   C606      1.0  0.55215  0.96106  0.19010  1.0000
  C   C607      1.0  0.58333  0.96308  0.19952  1.0000
  C   C608      1.0  0.58277  0.96903  0.21760  1.0000
  N   N50       1.0  0.57754  0.69903  0.19594  1.0000
  H   H605      1.0  0.82763  0.98056  0.12202  1.0000
  H   H606      1.0  0.55082  0.97753  0.24014  1.0000
  C   C609      1.0  0.86120  0.98158  0.03673  1.0000
  H   H607      1.0  0.64618  0.01355  0.15748  1.0000
  H   H608      1.0  0.81764  0.60403  0.12856  1.0000
  C   C610      1.0  0.77132  0.57798  0.11936  1.0000
  C   C611      1.0  0.81620  0.93649  0.17917  1.0000
  H   H609      1.0  0.85992  0.00579  0.13328  1.0000
  H   H610      1.0  0.55236  0.95648  0.17611  1.0000
  H   H611      1.0  0.80125  0.59409  0.17252  1.0000
  S   S214      1.0  0.91581  0.98054  0.34625  1.0000
  H   H612      1.0  0.84055  0.98094  0.19168  1.0000
  H   H613      1.0  0.79316  0.89602  0.16312  1.0000
  C   C612      1.0  0.58280  0.88108  0.20665  1.0000
  H   H614      1.0  0.82832  0.57210  0.20085  1.0000
  C   C613      1.0  0.81349  0.58029  0.21249  1.0000
  C   C614      1.0  0.75775  0.55220  0.10810  1.0000
  C   C615      1.0  0.02363  0.59370  0.34829  1.0000
  H   H615      1.0  0.59905  0.72854  0.17574  1.0000
  H   H616      1.0  0.61043  0.68860  0.23651  1.0000
  C   C616      1.0  0.83500  0.96737  0.17938  1.0000
  C   C617      1.0  0.90536  0.78258  0.32746  1.0000
  C   C618      1.0  0.55112  0.97288  0.22616  1.0000
  H   H617      1.0  0.54790  0.60209  0.24103  1.0000
  C   C619      1.0  0.85771  0.54906  0.25269  1.0000
  C   C620      1.0  0.77349  0.55107  0.16072  1.0000
  C   C621      1.0  0.88628  0.81175  0.33175  1.0000
  H   H618      1.0  0.75475  0.59152  0.12844  1.0000
  H   H619      1.0  0.76389  0.63926  0.34083  1.0000
  H   H620      1.0  0.85829  0.57504  0.16176  1.0000
  H   H621      1.0  0.73038  0.54650  0.10842  1.0000
  H   H622      1.0  0.99676  0.64092  0.34444  1.0000
  C   C622      1.0  0.85541  0.60764  0.23279  1.0000
  C   C623      1.0  0.87667  0.60732  0.24766  1.0000
  C   C624      1.0  0.84274  0.77547  0.34460  1.0000
  S   S215      1.0  0.98696  0.56684  0.34513  1.0000
  H   H623      1.0  0.85383  0.63107  0.22541  1.0000
  H   H624      1.0  0.89113  0.63026  0.25176  1.0000
  S   S216      1.0  0.83293  0.84504  0.34771  1.0000
  H   H625      1.0  0.79169  0.59043  0.32898  1.0000
  H   H626      1.0  0.86768  0.01810  0.05833  1.0000
  C   C625      1.0  0.80799  0.91999  0.16327  1.0000
  H   H627      1.0  0.74958  0.99998  0.16241  1.0000
  S   S217      1.0  0.73207  0.56510  0.16643  1.0000
  C   C626      1.0  0.86203  0.74617  0.34043  1.0000
  Fe  Fe110     1.0  0.93524  0.92652  0.34611  1.0000
  C   C627      1.0  0.78266  0.57539  0.33981  1.0000
  H   H628      1.0  0.89267  0.57783  0.26975  1.0000
  H   H629      1.0  0.80786  0.92532  0.19129  1.0000
  S   S218      1.0  0.92083  0.71478  0.32857  1.0000
  H   H630      1.0  0.79694  0.01301  0.33054  1.0000
  H   H631      1.0  0.60777  0.87116  0.18214  1.0000
  N   N51       1.0  0.76629  0.59086  0.35354  1.0000
  C   C628      1.0  0.80663  0.58498  0.11945  1.0000
  H   H632      1.0  0.56811  0.69572  0.16831  1.0000
  C   C629      1.0  0.81896  0.93464  0.14771  1.0000
  N   N52       1.0  0.78856  0.87036  0.26655  1.0000
  C   C630      1.0  0.81530  0.89288  0.27015  1.0000
  C   C631      1.0  0.77818  0.84739  0.27879  1.0000
  C   C632      1.0  0.83325  0.89184  0.28608  1.0000
  C   C633      1.0  0.79537  0.84587  0.29492  1.0000
  C   C634      1.0  0.82312  0.86819  0.29852  1.0000
  C   C635      1.0  0.76973  0.87197  0.24988  1.0000
  H   H633      1.0  0.82258  0.91218  0.26081  1.0000
  H   H634      1.0  0.75641  0.83017  0.27613  1.0000
  H   H635      1.0  0.85427  0.90996  0.28895  1.0000
  H   H636      1.0  0.78721  0.82770  0.30467  1.0000
  H   H637      1.0  0.83639  0.86737  0.31105  1.0000
  H   H638      1.0  0.78616  0.88253  0.23942  1.0000
  H   H639      1.0  0.76091  0.84596  0.24521  1.0000
  H   H640      1.0  0.74697  0.88860  0.25145  1.0000
  H   H641      1.0  0.89603  0.83681  0.32844  1.0000
  H   H642      1.0  0.97290  0.82104  0.34907  1.0000
  C   C636      1.0  0.55117  0.88462  0.21498  1.0000
  H   H643      1.0  0.85288  0.72094  0.34405  1.0000
  S   S219      1.0  0.98913  0.90531  0.34390  1.0000
  C   C637      1.0  0.83544  0.55967  0.15876  1.0000
  C   C638      1.0  0.77521  0.02442  0.14104  1.0000
  H   H644      1.0  0.60670  0.88648  0.21374  1.0000
  C   C639      1.0  0.87759  0.57790  0.25771  1.0000
  H   H645      1.0  0.81244  0.92171  0.13537  1.0000
  C   C640      1.0  0.02525  0.96402  0.35524  1.0000
  C   C641      1.0  0.81344  0.54088  0.09714  1.0000
  S   S220      1.0  0.83683  0.94655  0.34805  1.0000
  C   C642      1.0  0.60148  0.69620  0.20902  1.0000
  C   C643      1.0  0.83683  0.55022  0.23771  1.0000
  C   C644      1.0  0.58337  0.87258  0.18885  1.0000
  H   H646      1.0  0.55257  0.86095  0.16580  1.0000
  H   H647      1.0  0.79058  0.56300  0.21362  1.0000
  N   N53       1.0  0.83760  0.96484  0.14802  1.0000
  C   C645      1.0  0.02144  0.62938  0.34685  1.0000
  S   S221      1.0  0.77780  0.03317  0.19400  1.0000
  C   C646      1.0  0.84585  0.98112  0.16359  1.0000
  C   C647      1.0  0.84942  0.97910  0.13151  1.0000
  H   H648      1.0  0.86021  0.00530  0.16391  1.0000
  H   H649      1.0  0.86982  0.96284  0.12581  1.0000
  C   C648      1.0  0.87572  0.01087  0.04528  1.0000
  H   H650      1.0  0.93806  0.84872  0.35347  1.0000
  H   H651      1.0  0.81867  0.77271  0.35142  1.0000
  H   H652      1.0  0.54812  0.68863  0.24358  1.0000
  C   C649      1.0  0.02673  0.93043  0.34837  1.0000
  C   C650      1.0  0.55243  0.86713  0.17968  1.0000
  C   C651      1.0  0.54321  0.69973  0.19971  1.0000
  C   C652      1.0  0.90009  0.03110  0.03674  1.0000
  H   H653      1.0  0.97032  0.76299  0.35812  1.0000
  C   C653      1.0  0.66494  0.03288  0.16202  1.0000
  H   H654      1.0  0.86782  0.03464  0.33465  1.0000
  H   H655      1.0  0.89678  0.83438  0.37696  1.0000
  H   H656      1.0  0.61619  0.87351  0.57129  1.0000
  H   H657      1.0  0.54603  0.96642  0.64208  1.0000
  H   H658      1.0  0.63395  0.57737  0.52625  1.0000
  C   C654      1.0  0.59494  0.88589  0.61379  1.0000
  S   S222      1.0  0.83417  0.61078  0.38463  1.0000
  Fe  Fe111     1.0  0.70207  0.61675  0.56942  1.0000
  S   S223      1.0  0.69091  0.57084  0.58560  1.0000
  S   S224      1.0  0.70649  0.61252  0.54002  1.0000
  Fe  Fe112     1.0  0.70357  0.66654  0.60086  1.0000
  S   S225      1.0  0.69326  0.62377  0.61961  1.0000
  S   S226      1.0  0.70792  0.71991  0.61348  1.0000
  Fe  Fe113     1.0  0.73119  0.59333  0.60405  1.0000
  H   H659      1.0  0.53715  0.66795  0.62612  1.0000
  Fe  Fe114     1.0  0.65404  0.60519  0.59962  1.0000
  S   S227      1.0  0.60232  0.58539  0.60855  1.0000
  S   S228      1.0  0.74488  0.63756  0.58678  1.0000
  S   S229      1.0  0.66178  0.64983  0.58195  1.0000
  Fe  Fe115     1.0  0.70203  0.91410  0.59061  1.0000
  S   S230      1.0  0.70279  0.91997  0.61982  1.0000
  S   S231      1.0  0.69514  0.86336  0.57556  1.0000
  Fe  Fe116     1.0  0.70233  0.99200  0.58552  1.0000
  S   S232      1.0  0.70203  0.00357  0.61437  1.0000
  H   H660      1.0  0.77287  0.02669  0.57938  1.0000
  Fe  Fe117     1.0  0.74155  0.96267  0.61586  1.0000
  C   C655      1.0  0.68401  0.00907  0.50136  1.0000
  Fe  Fe118     1.0  0.66349  0.96050  0.61563  1.0000
  S   S233      1.0  0.61718  0.96233  0.63284  1.0000
  S   S234      1.0  0.74456  0.95345  0.58678  1.0000
  S   S235      1.0  0.65994  0.95223  0.58664  1.0000
  H   H661      1.0  0.61206  0.00208  0.60147  1.0000
  C   C656      1.0  0.81160  0.53708  0.53908  1.0000
  C   C657      1.0  0.90625  0.80834  0.37593  1.0000
  H   H662      1.0  0.81669  0.98666  0.59080  1.0000
  C   C658      1.0  0.84482  0.02670  0.60501  1.0000
  C   C659      1.0  0.75855  0.02157  0.52676  1.0000
  C   C660      1.0  0.80252  0.58909  0.52214  1.0000
  C   C661      1.0  0.81830  0.01393  0.59414  1.0000
  H   H663      1.0  0.80380  0.99432  0.37518  1.0000
  H   H664      1.0  0.71153  0.59118  0.50425  1.0000
  C   C662      1.0  0.79745  0.57114  0.40737  1.0000
  C   C663      1.0  0.58228  0.98197  0.62259  1.0000
  N   N54       1.0  0.59176  0.67456  0.62596  1.0000
  C   C664      1.0  0.58670  0.99920  0.60692  1.0000
  H   H665      1.0  0.65458  0.55753  0.48198  1.0000
  C   C665      1.0  0.83188  0.01387  0.65121  1.0000
  H   H666      1.0  0.80207  0.58864  0.58234  1.0000
  S   S236      1.0  0.90166  0.91017  0.36822  1.0000
  H   H667      1.0  0.63628  0.58927  0.49626  1.0000
  C   C666      1.0  0.72539  0.54435  0.54051  1.0000
  H   H668      1.0  0.57674  0.74084  0.58994  1.0000
  H   H669      1.0  0.76620  0.54011  0.42437  1.0000
  H   H670      1.0  0.74597  0.99441  0.55023  1.0000
  C   C667      1.0  0.70499  0.75930  0.60245  1.0000
  C   C668      1.0  0.69771  0.76056  0.58454  1.0000
  C   C669      1.0  0.69480  0.79259  0.57643  1.0000
  C   C670      1.0  0.69930  0.82354  0.58613  1.0000
  C   C671      1.0  0.70643  0.82218  0.60404  1.0000
  C   C672      1.0  0.70915  0.79022  0.61214  1.0000
  H   H671      1.0  0.69447  0.73691  0.57693  1.0000
  H   H672      1.0  0.68934  0.79340  0.56257  1.0000
  H   H673      1.0  0.71018  0.84569  0.61165  1.0000
  H   H674      1.0  0.71483  0.78947  0.62599  1.0000
  S   S237      1.0  0.92117  0.63762  0.36050  1.0000
  H   H675      1.0  0.56182  0.02670  0.58631  1.0000
  C   C673      1.0  0.55893  0.68162  0.62068  1.0000
  C   C674      1.0  0.83527  0.54002  0.38804  1.0000
  C   C675      1.0  0.71720  0.57264  0.53041  1.0000
  C   C676      1.0  0.56549  0.60412  0.59957  1.0000
  C   C677      1.0  0.56803  0.62598  0.58542  1.0000
  H   H676      1.0  0.86369  0.00934  0.61025  1.0000
  H   H677      1.0  0.59242  0.62997  0.57917  1.0000
  C   C678      1.0  0.63413  0.56190  0.49181  1.0000
  C   C679      1.0  0.82214  0.57130  0.39409  1.0000
  S   S238      1.0  0.87259  0.99617  0.39121  1.0000
  H   H678      1.0  0.69315  0.96168  0.51455  1.0000
  C   C680      1.0  0.92876  0.74128  0.37259  1.0000
  H   H679      1.0  0.77373  0.00091  0.52135  1.0000
  C   C681      1.0  0.75534  0.57185  0.36728  1.0000
  C   C682      1.0  0.94736  0.76860  0.36549  1.0000
  C   C683      1.0  0.56801  0.89423  0.58053  1.0000
  H   H680      1.0  0.60878  0.55719  0.48526  1.0000
  N   N55       1.0  0.75388  0.01583  0.67648  1.0000
  C   C684      1.0  0.76163  0.55893  0.64816  1.0000
  H   H681      1.0  0.75322  0.55879  0.67598  1.0000
  H   H682      1.0  0.59810  0.66261  0.65267  1.0000
  C   C685      1.0  0.95552  0.83003  0.35958  1.0000
  C   C686      1.0  0.61917  0.69185  0.61907  1.0000
  H   H683      1.0  0.63999  0.86628  0.60110  1.0000
  C   C687      1.0  0.61431  0.87629  0.59933  1.0000
  C   C688      1.0  0.88697  0.78161  0.38316  1.0000
  H   H684      1.0  0.70083  0.00433  0.67217  1.0000
  C   C689      1.0  0.77364  0.98812  0.68025  1.0000
  C   C690      1.0  0.61418  0.71597  0.60605  1.0000
  C   C691      1.0  0.58088  0.72266  0.60025  1.0000
  H   H685      1.0  0.86291  0.78704  0.38963  1.0000
  H   H686      1.0  0.76852  0.96335  0.67380  1.0000
  C   C692      1.0  0.55298  0.70564  0.60770  1.0000
  N   N56       1.0  0.54908  0.90338  0.59481  1.0000
  C   C693      1.0  0.80462  0.57397  0.57020  1.0000
  H   H687      1.0  0.57723  0.62901  0.63926  1.0000
  C   C694      1.0  0.76015  0.53628  0.36736  1.0000
  C   C695      1.0  0.74296  0.01790  0.54312  1.0000
  H   H688      1.0  0.88319  0.72673  0.38655  1.0000
  C   C696      1.0  0.72604  0.53792  0.50401  1.0000
  H   H689      1.0  0.55782  0.89781  0.56747  1.0000
  H   H690      1.0  0.84679  0.99142  0.65413  1.0000
  H   H691      1.0  0.55329  0.01386  0.43594  1.0000
  C   C697      1.0  0.89831  0.74786  0.38142  1.0000
  C   C698      1.0  0.55829  0.01331  0.59841  1.0000
  C   C699      1.0  0.83307  0.01460  0.39723  1.0000
  H   H692      1.0  0.54129  0.66059  0.56867  1.0000
  H   H693      1.0  0.79622  0.61732  0.55396  1.0000
  C   C700      1.0  0.59756  0.64951  0.63965  1.0000
  H   H694      1.0  0.85443  0.53976  0.37794  1.0000
  Fe  Fe119     1.0  0.86870  0.61207  0.36090  1.0000
  C   C701      1.0  0.80207  0.01034  0.64081  1.0000
  H   H695      1.0  0.93729  0.71505  0.37065  1.0000
  H   H696      1.0  0.72856  0.99085  0.65461  1.0000
  H   H697      1.0  0.72558  0.54669  0.55459  1.0000
  C   C702      1.0  0.71760  0.56932  0.51215  1.0000
  Fe  Fe120     1.0  0.87897  0.96290  0.36686  1.0000
  H   H698      1.0  0.65956  0.97892  0.54072  1.0000
  C   C703      1.0  0.64684  0.02850  0.53056  1.0000
  H   H699      1.0  0.69977  0.00250  0.49019  1.0000
  C   C704      1.0  0.72407  0.01140  0.66466  1.0000
  C   C705      1.0  0.80337  0.01053  0.38682  1.0000
  C   C706      1.0  0.77328  0.02828  0.39129  1.0000
  C   C707      1.0  0.60084  0.88043  0.58257  1.0000
  H   H700      1.0  0.62228  0.63606  0.63762  1.0000
  H   H701      1.0  0.54772  0.90744  0.62266  1.0000
  H   H702      1.0  0.75061  0.02552  0.38303  1.0000
  C   C708      1.0  0.80164  0.59004  0.55412  1.0000
  C   C709      1.0  0.66152  0.99591  0.52972  1.0000
  H   H703      1.0  0.64517  0.68683  0.62351  1.0000
  H   H704      1.0  0.53827  0.54085  0.42082  1.0000
  S   S239      1.0  0.78900  0.96904  0.63311  1.0000
  C   C710      1.0  0.68040  0.98628  0.51506  1.0000
  C   C711      1.0  0.81044  0.53873  0.57061  1.0000
  C   C712      1.0  0.76866  0.54894  0.66540  1.0000
  H   H705      1.0  0.78726  0.59524  0.41218  1.0000
  H   H706      1.0  0.78280  0.60951  0.52275  1.0000
  H   H707      1.0  0.74092  0.57637  0.64554  1.0000
  H   H708      1.0  0.82781  0.60090  0.51896  1.0000
  H   H709      1.0  0.63613  0.72909  0.60043  1.0000
  C   C713      1.0  0.54945  0.97926  0.62982  1.0000
  H   H710      1.0  0.62564  0.02330  0.44220  1.0000
  C   C714      1.0  0.63712  0.55019  0.52327  1.0000
  C   C715      1.0  0.78547  0.53995  0.41430  1.0000
  N   N57       1.0  0.80489  0.57152  0.53883  1.0000
  H   H711      1.0  0.60571  0.88399  0.62687  1.0000
  C   C716      1.0  0.78153  0.54640  0.63438  1.0000
  H   H712      1.0  0.79447  0.57094  0.51136  1.0000
  H   H713      1.0  0.74381  0.58430  0.37854  1.0000
  S   S240      1.0  0.77407  0.55826  0.61250  1.0000
  C   C717      1.0  0.53894  0.64309  0.57939  1.0000
  N   N58       1.0  0.93583  0.80157  0.36707  1.0000
  H   H714      1.0  0.97104  0.84387  0.36988  1.0000
  H   H715      1.0  0.78273  0.64042  0.36246  1.0000
  N   N59       1.0  0.63826  0.53831  0.50631  1.0000
  H   H716      1.0  0.64209  0.53748  0.55049  1.0000
  C   C718      1.0  0.56218  0.89942  0.61130  1.0000
  H   H717      1.0  0.72676  0.53589  0.48996  1.0000
  C   C719      1.0  0.80135  0.99153  0.69203  1.0000
  H   H718      1.0  0.73673  0.63518  0.35948  1.0000
  Fe  Fe121     1.0  0.87339  0.64793  0.96441  1.0000
  S   S241      1.0  0.89819  0.64376  0.93829  1.0000
  S   S242      1.0  0.84478  0.69575  0.97279  1.0000
  Fe  Fe122     1.0  0.90594  0.58161  0.97716  1.0000
  S   S243      1.0  0.93364  0.57330  0.95179  1.0000
  C   C720      1.0  0.80347  0.53610  0.91881  1.0000
  Fe  Fe123     1.0  0.94546  0.62981  0.95324  1.0000
  S   S244      1.0  0.99478  0.65992  0.94964  1.0000
  Fe  Fe124     1.0  0.88356  0.58761  0.93906  1.0000
  H   H719      1.0  0.80566  0.02572  0.82567  1.0000
  S   S245      1.0  0.92158  0.63724  0.97940  1.0000
  S   S246      1.0  0.85461  0.59243  0.96437  1.0000
  Fe  Fe125     1.0  0.91137  0.95458  0.95135  1.0000
  S   S247      1.0  0.90625  0.90796  0.96786  1.0000
  S   S248      1.0  0.96140  0.98303  0.94717  1.0000
  Fe  Fe126     1.0  0.83382  0.95938  0.94469  1.0000
  S   S249      1.0  0.82248  0.91230  0.96037  1.0000
  C   C721      1.0  0.67256  0.00555  0.84260  1.0000
  Fe  Fe127     1.0  0.86123  0.93486  0.97963  1.0000
  S   S250      1.0  0.85007  0.93801  0.00846  1.0000
  Fe  Fe128     1.0  0.86839  0.88943  0.94712  1.0000
  S   S251      1.0  0.87328  0.83648  0.93442  1.0000
  S   S252      1.0  0.86954  0.98309  0.96491  1.0000
  S   S253      1.0  0.87662  0.93482  0.92966  1.0000
  C   C722      1.0  0.75927  0.53878  0.72816  1.0000
  H   H720      1.0  0.75981  0.98429  0.99510  1.0000
  C   C723      1.0  0.94179  0.72273  0.96933  1.0000
  N   N60       1.0  0.94845  0.75421  0.95970  1.0000
  H   H721      1.0  0.78124  0.70257  0.94986  1.0000
  C   C724      1.0  0.00863  0.58088  0.98523  1.0000
  H   H722      1.0  0.93675  0.84008  0.96260  1.0000
  C   C725      1.0  0.99810  0.95751  0.94566  1.0000
  H   H723      1.0  0.00922  0.02074  0.98019  1.0000
  C   C726      1.0  0.94541  0.81557  0.95746  1.0000
  H   H724      1.0  0.70503  0.01005  0.87351  1.0000
  H   H725      1.0  0.97148  0.90947  0.94983  1.0000
  H   H726      1.0  0.60952  0.02927  0.84805  1.0000
  H   H727      1.0  0.83201  0.00543  0.79784  1.0000
  C   C727      1.0  0.96077  0.81363  0.94111  1.0000
  H   H728      1.0  0.79846  0.96768  0.98553  1.0000
  H   H729      1.0  0.85044  0.54945  0.00512  1.0000
  H   H730      1.0  0.82126  0.97139  0.90418  1.0000
  H   H731      1.0  0.79731  0.73455  0.92337  1.0000
  N   N61       1.0  0.81801  0.65405  0.90978  1.0000
  H   H732      1.0  0.79007  0.63962  0.95073  1.0000
  C   C728      1.0  0.79091  0.68888  0.93845  1.0000
  C   C729      1.0  0.85304  0.73494  0.96219  1.0000
  C   C730      1.0  0.84399  0.76622  0.97030  1.0000
  C   C731      1.0  0.85005  0.79770  0.96201  1.0000
  C   C732      1.0  0.86458  0.79794  0.94538  1.0000
  C   C733      1.0  0.87331  0.76667  0.93723  1.0000
  C   C734      1.0  0.86789  0.73538  0.94565  1.0000
  H   H733      1.0  0.83232  0.76614  0.98307  1.0000
  H   H734      1.0  0.84316  0.82170  0.96839  1.0000
  H   H735      1.0  0.88461  0.76671  0.92438  1.0000
  H   H736      1.0  0.87459  0.71162  0.93914  1.0000
  C   C735      1.0  0.83520  0.03204  0.80221  1.0000
  C   C736      1.0  0.80426  0.99238  0.90145  1.0000
  N   N62       1.0  0.80086  0.02075  0.99215  1.0000
  C   C737      1.0  0.81387  0.68892  0.90932  1.0000
  H   H737      1.0  0.00506  0.58728  0.94187  1.0000
  H   H738      1.0  0.82156  0.70318  0.89796  1.0000
  H   H739      1.0  0.66201  0.01968  0.83130  1.0000
  C   C738      1.0  0.01072  0.54555  0.98201  1.0000
  C   C739      1.0  0.80001  0.70681  0.92358  1.0000
  H   H740      1.0  0.82992  0.02650  0.70930  1.0000
  S   S254      1.0  0.86868  0.56316  0.91275  1.0000
  C   C740      1.0  0.02641  0.90285  0.94893  1.0000
  H   H741      1.0  0.97185  0.72727  0.93849  1.0000
  H   H742      1.0  0.96591  0.71386  0.97553  1.0000
  H   H743      1.0  0.98235  0.77990  0.92154  1.0000
  C   C741      1.0  0.01931  0.93814  0.99204  1.0000
  H   H744      1.0  0.92186  0.72639  0.97949  1.0000
  C   C742      1.0  0.87087  0.97265  0.01964  1.0000
  H   H745      1.0  0.02492  0.87553  0.95124  1.0000
  C   C743      1.0  0.79920  0.00283  0.88416  1.0000
  H   H746      1.0  0.00427  0.91511  0.99462  1.0000
  H   H747      1.0  0.98368  0.59263  0.98666  1.0000
  H   H748      1.0  0.97486  0.96938  0.98756  1.0000
  C   C744      1.0  0.00277  0.96864  0.98821  1.0000
  C   C745      1.0  0.97058  0.78173  0.93429  1.0000
  H   H749      1.0  0.86125  0.63186  0.89760  1.0000
  H   H750      1.0  0.83041  0.64982  0.88260  1.0000
  C   C746      1.0  0.80688  0.02612  0.00965  1.0000
  H   H751      1.0  0.81401  0.60898  0.92500  1.0000
  C   C747      1.0  0.02243  0.99775  0.98410  1.0000
  H   H752      1.0  0.82094  0.60993  0.89286  1.0000
  C   C748      1.0  0.79593  0.65349  0.93895  1.0000
  C   C749      1.0  0.83341  0.63570  0.89495  1.0000
  S   S255      1.0  0.79102  0.99508  0.93684  1.0000
  C   C750      1.0  0.80963  0.63639  0.92442  1.0000
  C   C751      1.0  0.99617  0.92201  0.94819  1.0000
  C   C752      1.0  0.02983  0.60020  0.94282  1.0000
  H   H753      1.0  0.03168  0.00084  0.94096  1.0000
  C   C753      1.0  0.83011  0.54078  0.90694  1.0000
  H   H754      1.0  0.93186  0.70207  0.96028  1.0000
  C   C754      1.0  0.03189  0.63574  0.94598  1.0000
  C   C755      1.0  0.78123  0.99013  0.98612  1.0000
  C   C756      1.0  0.89593  0.99240  0.01135  1.0000
  H   H755      1.0  0.81732  0.96966  0.69476  1.0000
  H   H756      1.0  0.70106  0.00873  0.84219  1.0000
  H   H757      1.0  0.90402  0.98535  0.99833  1.0000
  C   C757      1.0  0.78677  0.00864  0.91509  1.0000
  C   C758      1.0  0.93934  0.78544  0.96664  1.0000
  H   H758      1.0  0.92615  0.78711  0.97903  1.0000
  C   C759      1.0  0.91049  0.02152  0.01988  1.0000
  C   C760      1.0  0.67902  0.01973  0.87387  1.0000
  H   H759      1.0  0.79714  0.00793  0.01901  1.0000
  H   H760      1.0  0.81243  0.98974  0.87365  1.0000
  C   C761      1.0  0.66664  0.03352  0.88959  1.0000
  H   H761      1.0  0.66558  0.97786  0.84102  1.0000
  H   H762      1.0  0.96430  0.83678  0.93361  1.0000
  C   C762      1.0  0.96439  0.75209  0.94388  1.0000
  C   C763      1.0  0.80858  0.02344  0.70008  1.0000
  H   H763      1.0  0.76985  0.99357  0.97289  1.0000
  N   N63       1.0  0.65895  0.01928  0.85907  1.0000
  C   C764      1.0  0.77141  0.53830  0.75977  1.0000
  C   C765      1.0  0.77708  0.02990  0.88042  1.0000
  S   S256      1.0  0.92470  0.54811  0.99907  1.0000
  C   C766      1.0  0.03018  0.97348  0.94318  1.0000
  H   H764      1.0  0.80658  0.54527  0.93220  1.0000
  H   H765      1.0  0.76978  0.55632  0.71816  1.0000
  C   C767      1.0  0.62585  0.03063  0.85965  1.0000
  H   H766      1.0  0.73380  0.54856  0.73212  1.0000
  H   H767      1.0  0.74420  0.54106  0.76232  1.0000
  N   N64       1.0  0.78325  0.53676  0.74300  1.0000
  C   C768      1.0  0.86254  0.53512  0.01537  1.0000
  H   H768      1.0  0.68297  0.03449  0.90120  1.0000
