data_image0
_chemical_formula_structural       FeHCHS2HSHFeSCH2SCHCNHCH2C2SHC3H3CHNHCS2C7H2CH3C3HFeSNHSFeSFeS2CFeS2C2FeCFeSCSC2H4CH3C3HSH3C3HCH4C5HNCNH3C3SCH2C2H4CHC3FeCNCHC2H2CHSHFeS2FeS2FeCFeS3FeS2FeS2FeSFeCS2CHCHC2H2CN2C2H2C4H2C2H2C6H4C3H2SHNC6H8CHCH5C2HC2H3CH2CHCHNCH2CHC5H2CH2CHFeHSC2HCSCFeSH2S2HC3SHSCHC4H2NH2CHCH5CHCH2CH2SCH2CH2FeH2C2H2CHC3HNHCSC2HC2H2C2HCH2SH4SHSCNHFeSCFeSCS2CFeCFeS2FeSFe2SFeS3FeS2FeS2FeCFeS3HC3HSC2FeCH3CH2C6H4C2HC2HSH2C2FeSC2HC4H2C2H3C6H4C2HCHFeH2SN2C6H8C2HNC2HCHCHC3H3CHCHCHCHCHS2H2SC2H4CNCSNCHNC4SFeH4CHCH2C3FeCH4CHCHCHS2CFeC2H4C5HCH4C2H2CFeS2FeSHFeSFeS3FeS2FeSHFeSFeS4C2NHC3HC2H4C7H4CHCHC2H4C5HC2H2C3HNH4C3HC2H3CHCSC3H6CH3C2HCHCH2CHCSC2H2NCH2CH2CHCHCHC2SH2CH2CNC3HNH2CHCHCHCSFeSHFeS2FeSFeS3FeS2FeS2FeSFeHS2C2H2NH2CH2CHC2SC6H4CSHCHCH2C4H3CHC2SCH2CHCH2C2HC2H2CH2CHCH3CH2FeHCH2CH2C4HNC6H9C2HC4NHC2HNH2NH4CH2C7H2C2HCHCNCNH2FeSCFeCHFeS2HS2FeS2FeSHFeSFeHS2FeSCFeS2FeSFeS3HSHSHC6H2C2H2C2H2C4FeCH2C8H7SC2H2CHCNCH2CNC3HC2H2CS2H2CSCH2C2H3SCH2FeHSHC2HSFeCH2FeHSC2NC3HFeCHC3SH2C4HCNCSH2CHNH2SH3CFeC2H2CH2CHC2HSH2C3H3C3H2CHFeCSH4CSHFeC2HFeHSC2S2H2SHCNHC2H3CHCHFeHCHCSCH2C2HC4H7CHFeCHNH2CHC3HSNCH3CS2C2HCHCH2C4FeS2FeSCFeSFeS3FeS2FeS2FeSFeHS2CH2CSH3C5H2C6H6C3HC2H2C3H2CH3SC2HC2H2CH3NC6H10C2NHCH2C2NH2CH2C6HNC2HC2H3CHNHSFeSCFeSFeSCSFeS2FeC3FeS3CSH2SC6H2C2HCH2C3H3C3H4NH2NC3H2FeC2H2SHCH2CNHCHSHC2H3C2H3SC3FeHC2FeH3S4H2CHSC3HNC2FeCSH3CFeH4C2HC2SC2H2
_chemical_formula_sum              "Fe96 H576 C576 S192 N48"
_cell_length_a       60.2196
_cell_length_b       60.2834
_cell_length_c       39.4484
_cell_angle_alpha    90.2462
_cell_angle_beta     90.7778
_cell_angle_gamma    120.414

_space_group_name_H-M_alt    "P 1"
_space_group_IT_number       1

loop_
  _space_group_symop_operation_xyz
  'x, y, z'

loop_
  _atom_site_type_symbol
  _atom_site_label
  _atom_site_symmetry_multiplicity
  _atom_site_fract_x
  _atom_site_fract_y
  _atom_site_fract_z
  _atom_site_occupancy
  Fe  Fe1       1.0  0.29039  0.44963  0.43046  1.0000
  H   H1        1.0  0.22601  0.39385  0.11686  1.0000
  C   C1        1.0  0.10478  0.39036  0.48813  1.0000
  H   H2        1.0  0.23494  0.45011  0.07551  1.0000
  S   S1        1.0  0.31685  0.44664  0.46880  1.0000
  S   S2        1.0  0.30264  0.43243  0.38835  1.0000
  H   H3        1.0  0.29897  0.42170  0.24174  1.0000
  S   S3        1.0  0.31086  0.42621  0.08177  1.0000
  H   H4        1.0  0.22367  0.40683  0.07681  1.0000
  Fe  Fe2       1.0  0.30445  0.45413  0.05068  1.0000
  S   S4        1.0  0.26468  0.43832  0.02367  1.0000
  C   C2        1.0  0.23689  0.40929  0.09832  1.0000
  H   H5        1.0  0.25267  0.40696  0.08789  1.0000
  H   H6        1.0  0.22291  0.35795  0.40789  1.0000
  S   S5        1.0  0.32004  0.48446  0.09201  1.0000
  C   C3        1.0  0.32002  0.45219  0.27858  1.0000
  H   H7        1.0  0.09065  0.48162  0.05529  1.0000
  C   C4        1.0  0.22941  0.44297  0.46884  1.0000
  N   N1        1.0  0.24785  0.43471  0.11455  1.0000
  H   H8        1.0  0.25403  0.37657  0.38851  1.0000
  C   C5        1.0  0.20655  0.44277  0.45983  1.0000
  H   H9        1.0  0.28427  0.46764  0.18312  1.0000
  H   H10       1.0  0.06706  0.38338  0.47357  1.0000
  C   C6        1.0  0.24550  0.45379  0.09928  1.0000
  C   C7        1.0  0.27362  0.37543  0.44707  1.0000
  S   S6        1.0  0.24793  0.43930  0.43619  1.0000
  H   H11       1.0  0.31082  0.44013  0.30014  1.0000
  C   C8        1.0  0.32506  0.45710  0.21688  1.0000
  C   C9        1.0  0.31332  0.44179  0.24537  1.0000
  C   C10       1.0  0.24494  0.45069  0.00821  1.0000
  H   H12       1.0  0.07111  0.46198  0.99969  1.0000
  H   H13       1.0  0.26363  0.42448  0.15622  1.0000
  H   H14       1.0  0.20134  0.44184  0.43329  1.0000
  C   C11       1.0  0.26136  0.43947  0.14442  1.0000
  H   H15       1.0  0.23786  0.39246  0.40369  1.0000
  N   N2        1.0  0.25370  0.37997  0.44258  1.0000
  H   H16       1.0  0.28097  0.36975  0.42579  1.0000
  C   C12       1.0  0.24148  0.37643  0.40903  1.0000
  S   S7        1.0  0.31527  0.44280  0.17568  1.0000
  S   S8        1.0  0.31939  0.48986  0.41528  1.0000
  C   C13       1.0  0.07907  0.38277  0.49388  1.0000
  C   C14       1.0  0.24446  0.38701  0.46955  1.0000
  C   C15       1.0  0.25710  0.47847  0.11376  1.0000
  C   C16       1.0  0.28531  0.37864  0.47902  1.0000
  C   C17       1.0  0.27305  0.46387  0.15979  1.0000
  C   C18       1.0  0.25264  0.47683  0.01011  1.0000
  C   C19       1.0  0.19033  0.44383  0.48473  1.0000
  H   H17       1.0  0.17295  0.44371  0.47711  1.0000
  H   H18       1.0  0.22855  0.39045  0.46605  1.0000
  C   C20       1.0  0.27101  0.48351  0.14421  1.0000
  H   H19       1.0  0.11296  0.39700  0.46333  1.0000
  H   H20       1.0  0.30159  0.37568  0.48215  1.0000
  H   H21       1.0  0.27144  0.49044  0.02063  1.0000
  C   C21       1.0  0.07335  0.48047  0.00654  1.0000
  C   C22       1.0  0.08430  0.49142  0.03818  1.0000
  C   C23       1.0  0.23602  0.48545  0.99828  1.0000
  H   H22       1.0  0.25568  0.49365  0.10107  1.0000
  Fe  Fe3       1.0  0.12794  0.47787  0.61873  1.0000
  S   S9        1.0  0.12020  0.43792  0.60945  1.0000
  N   N3        1.0  0.11003  0.38212  0.54641  1.0000
  H   H23       1.0  0.07465  0.46236  0.80024  1.0000
  S   S10       1.0  0.10807  0.44342  0.53046  1.0000
  Fe  Fe4       1.0  0.08560  0.43195  0.57886  1.0000
  S   S11       1.0  0.04696  0.39680  0.59252  1.0000
  Fe  Fe5       1.0  0.14363  0.45321  0.56171  1.0000
  S   S12       1.0  0.17493  0.44235  0.55216  1.0000
  S   S13       1.0  0.09233  0.47129  0.59036  1.0000
  C   C24       1.0  0.07204  0.45658  0.77369  1.0000
  Fe  Fe6       1.0  0.12618  0.46266  0.87117  1.0000
  S   S14       1.0  0.12312  0.43544  0.91268  1.0000
  S   S15       1.0  0.12585  0.44809  0.81725  1.0000
  C   C25       1.0  0.17898  0.44667  0.85881  1.0000
  C   C26       1.0  0.06912  0.37523  0.52625  1.0000
  Fe  Fe7       1.0  0.15350  0.47079  0.94101  1.0000
  C   C27       1.0  0.06728  0.43563  0.66982  1.0000
  Fe  Fe8       1.0  0.09335  0.44356  0.93477  1.0000
  S   S16       1.0  0.05474  0.41649  0.95963  1.0000
  C   C28       1.0  0.22024  0.43341  0.99459  1.0000
  S   S17       1.0  0.09481  0.46839  0.89189  1.0000
  C   C29       1.0  0.02303  0.40311  0.94162  1.0000
  C   C30       1.0  0.01870  0.40427  0.90689  1.0000
  H   H24       1.0  0.05718  0.41447  0.66550  1.0000
  H   H25       1.0  0.03493  0.41372  0.89021  1.0000
  H   H26       1.0  0.06087  0.40607  0.72347  1.0000
  H   H27       1.0  0.28575  0.38959  0.53119  1.0000
  C   C31       1.0  0.99329  0.39247  0.89352  1.0000
  H   H28       1.0  0.07824  0.48107  0.69480  1.0000
  H   H29       1.0  0.03537  0.47889  0.94798  1.0000
  H   H30       1.0  0.22248  0.45001  0.91713  1.0000
  C   C32       1.0  0.01579  0.38923  0.57734  1.0000
  C   C33       1.0  0.01223  0.39878  0.54674  1.0000
  C   C34       1.0  0.23565  0.44402  0.50339  1.0000
  H   H31       1.0  0.02878  0.41200  0.53226  1.0000
  S   S18       1.0  0.12343  0.47651  0.96700  1.0000
  H   H32       1.0  0.25304  0.44416  0.51100  1.0000
  H   H33       1.0  0.14353  0.38183  0.56477  1.0000
  H   H34       1.0  0.18264  0.41805  0.88689  1.0000
  C   C35       1.0  0.13093  0.46306  0.77707  1.0000
  C   C36       1.0  0.12806  0.44843  0.74769  1.0000
  C   C37       1.0  0.13010  0.45876  0.71509  1.0000
  H   H35       1.0  0.08726  0.44417  0.66060  1.0000
  C   C38       1.0  0.21903  0.44430  0.52830  1.0000
  H   H36       1.0  0.12382  0.42880  0.75015  1.0000
  H   H37       1.0  0.12753  0.44715  0.69279  1.0000
  H   H38       1.0  0.05702  0.44307  0.65418  1.0000
  H   H39       1.0  0.22393  0.44460  0.55486  1.0000
  C   C39       1.0  0.07389  0.46685  0.71433  1.0000
  C   C40       1.0  0.13521  0.48399  0.71147  1.0000
  C   C41       1.0  0.12634  0.38204  0.57432  1.0000
  C   C42       1.0  0.19091  0.43840  0.88195  1.0000
  C   C43       1.0  0.06442  0.42505  0.73028  1.0000
  H   H40       1.0  0.24898  0.39711  0.52277  1.0000
  N   N4        1.0  0.06793  0.44243  0.70568  1.0000
  C   C44       1.0  0.21176  0.49060  0.87126  1.0000
  N   N5        1.0  0.22346  0.48233  0.89370  1.0000
  H   H41       1.0  0.16138  0.43283  0.84551  1.0000
  H   H42       1.0  0.11549  0.36493  0.59050  1.0000
  H   H43       1.0  0.18024  0.47951  0.83544  1.0000
  C   C45       1.0  0.21340  0.45660  0.89908  1.0000
  C   C46       1.0  0.07580  0.47423  0.74843  1.0000
  C   C47       1.0  0.13664  0.48849  0.77351  1.0000
  S   S19       1.0  0.19214  0.48075  0.96762  1.0000
  C   C48       1.0  0.18955  0.47291  0.85319  1.0000
  H   H44       1.0  0.04938  0.37007  0.53131  1.0000
  H   H45       1.0  0.13347  0.39973  0.59008  1.0000
  C   C49       1.0  0.08503  0.37522  0.55245  1.0000
  C   C50       1.0  0.25585  0.39065  0.50178  1.0000
  H   H46       1.0  0.05363  0.46291  0.94703  1.0000
  H   H47       1.0  0.18478  0.42842  0.97237  1.0000
  H   H48       1.0  0.00458  0.38942  0.98967  1.0000
  H   H49       1.0  0.07727  0.37001  0.57774  1.0000
  C   C51       1.0  0.19628  0.44433  0.51930  1.0000
  H   H50       1.0  0.06465  0.41844  0.78416  1.0000
  C   C52       1.0  0.06636  0.43184  0.76464  1.0000
  C   C53       1.0  0.12011  0.39006  0.51490  1.0000
  C   C54       1.0  0.20360  0.44203  0.98282  1.0000
  Fe  Fe9       1.0  0.11690  0.48359  0.54405  1.0000
  C   C55       1.0  0.00155  0.39054  0.96279  1.0000
  N   N6        1.0  0.06592  0.49303  0.98442  1.0000
  C   C56       1.0  0.27644  0.38645  0.50648  1.0000
  H   H51       1.0  0.99632  0.36419  0.61913  1.0000
  C   C57       1.0  0.05507  0.48188  0.95093  1.0000
  C   C58       1.0  0.21143  0.46822  0.98429  1.0000
  H   H52       1.0  0.25522  0.49226  0.92801  1.0000
  H   H53       1.0  0.14025  0.39661  0.51044  1.0000
  C   C59       1.0  0.99389  0.37193  0.59560  1.0000
  H   H54       1.0  0.21388  0.41311  0.99317  1.0000
  S   S20       1.0  0.15351  0.49403  0.57304  1.0000
  H   H55       1.0  0.08136  0.49386  0.75518  1.0000
  Fe  Fe10      1.0  0.15957  0.69981  0.43466  1.0000
  S   S21       1.0  0.16949  0.66957  0.42167  1.0000
  S   S22       1.0  0.19252  0.74224  0.43967  1.0000
  Fe  Fe11      1.0  0.10060  0.65917  0.42811  1.0000
  S   S23       1.0  0.10748  0.62678  0.41532  1.0000
  S   S24       1.0  0.06036  0.65417  0.43242  1.0000
  Fe  Fe12      1.0  0.13774  0.64375  0.45663  1.0000
  C   C60       1.0  0.08723  0.51517  0.04733  1.0000
  Fe  Fe13      1.0  0.13837  0.65556  0.38114  1.0000
  S   S25       1.0  0.14749  0.64400  0.33024  1.0000
  S   S26       1.0  0.12928  0.67476  0.47189  1.0000
  S   S27       1.0  0.13005  0.68724  0.39157  1.0000
  Fe  Fe14      1.0  0.13618  0.63137  0.07576  1.0000
  S   S28       1.0  0.12218  0.64618  0.03383  1.0000
  S   S29       1.0  0.14838  0.60175  0.06631  1.0000
  Fe  Fe15      1.0  0.12965  0.66442  0.12927  1.0000
  S   S30       1.0  0.11514  0.68150  0.08968  1.0000
  S   S31       1.0  0.12982  0.67818  0.18371  1.0000
  Fe  Fe16      1.0  0.09105  0.64095  0.06971  1.0000
  S   S32       1.0  0.04998  0.61859  0.04741  1.0000
  Fe  Fe17      1.0  0.14766  0.68550  0.05718  1.0000
  C   C61       1.0  0.14859  0.57710  0.39345  1.0000
  S   S33       1.0  0.10377  0.62370  0.11056  1.0000
  S   S34       1.0  0.16359  0.67094  0.09779  1.0000
  C   C62       1.0  0.01985  0.61341  0.06204  1.0000
  H   H56       1.0  0.12296  0.60229  0.00285  1.0000
  C   C63       1.0  0.01801  0.63054  0.08428  1.0000
  H   H57       1.0  0.00921  0.64644  0.42793  1.0000
  C   C64       1.0  0.22165  0.74981  0.03486  1.0000
  C   C65       1.0  0.14062  0.58344  0.02820  1.0000
  H   H58       1.0  0.26205  0.77531  0.04700  1.0000
  H   H59       1.0  0.21763  0.73986  0.05873  1.0000
  C   C66       1.0  0.15258  0.55986  0.41259  1.0000
  N   N7        1.0  0.16747  0.56794  0.44159  1.0000
  N   N8        1.0  0.07954  0.67925  0.00298  1.0000
  C   C67       1.0  0.21629  0.76097  0.47193  1.0000
  C   C68       1.0  0.06921  0.69887  0.04859  1.0000
  H   H60       1.0  0.24238  0.50575  0.99977  1.0000
  H   H61       1.0  0.08167  0.54622  0.03162  1.0000
  C   C69       1.0  0.02946  0.62553  0.43151  1.0000
  C   C70       1.0  0.00721  0.62765  0.43054  1.0000
  C   C71       1.0  0.02649  0.60107  0.43491  1.0000
  C   C72       1.0  0.23531  0.78661  0.46507  1.0000
  H   H62       1.0  0.04334  0.59905  0.43565  1.0000
  H   H63       1.0  0.99814  0.57910  0.03134  1.0000
  C   C73       1.0  0.09443  0.71965  0.04898  1.0000
  C   C74       1.0  0.14756  0.56450  0.02500  1.0000
  H   H64       1.0  0.13647  0.57063  0.37075  1.0000
  H   H65       1.0  0.13201  0.73573  0.02681  1.0000
  C   C75       1.0  0.14020  0.65158  0.28947  1.0000
  C   C76       1.0  0.12767  0.66563  0.28550  1.0000
  C   C77       1.0  0.12409  0.67298  0.25287  1.0000
  C   C78       1.0  0.13255  0.66605  0.22372  1.0000
  C   C79       1.0  0.14447  0.65140  0.22763  1.0000
  C   C80       1.0  0.14837  0.64434  0.26032  1.0000
  H   H66       1.0  0.12114  0.67125  0.30759  1.0000
  H   H67       1.0  0.11477  0.68424  0.25019  1.0000
  H   H68       1.0  0.15118  0.64599  0.20553  1.0000
  H   H69       1.0  0.15800  0.63338  0.26301  1.0000
  C   C81       1.0  0.19600  0.63753  0.01104  1.0000
  C   C82       1.0  0.20171  0.74289  0.01097  1.0000
  C   C83       1.0  0.19951  0.67849  0.01524  1.0000
  H   H70       1.0  0.18403  0.63058  0.44241  1.0000
  H   H71       1.0  0.19049  0.59950  0.47520  1.0000
  S   S35       1.0  0.16924  0.71735  0.01772  1.0000
  H   H72       1.0  0.15714  0.56105  0.04598  1.0000
  N   N9        1.0  0.19138  0.71566  0.32064  1.0000
  C   C84       1.0  0.19012  0.72758  0.34953  1.0000
  C   C85       1.0  0.18119  0.71823  0.29070  1.0000
  C   C86       1.0  0.17762  0.74181  0.34919  1.0000
  C   C87       1.0  0.16837  0.73215  0.28949  1.0000
  C   C88       1.0  0.16649  0.74389  0.31901  1.0000
  C   C89       1.0  0.20474  0.70101  0.32160  1.0000
  H   H73       1.0  0.19852  0.72589  0.37320  1.0000
  H   H74       1.0  0.18217  0.70880  0.26771  1.0000
  H   H75       1.0  0.17630  0.75082  0.37241  1.0000
  H   H76       1.0  0.15959  0.73336  0.26587  1.0000
  H   H77       1.0  0.15633  0.75449  0.31858  1.0000
  H   H78       1.0  0.20072  0.69016  0.34565  1.0000
  H   H79       1.0  0.19779  0.68636  0.30079  1.0000
  H   H80       1.0  0.22580  0.71420  0.31936  1.0000
  C   C90       1.0  0.11214  0.72000  0.02622  1.0000
  H   H81       1.0  0.15694  0.61623  0.38952  1.0000
  C   C91       1.0  0.25429  0.80230  0.48971  1.0000
  H   H82       1.0  0.09824  0.53376  0.45501  1.0000
  H   H83       1.0  0.23530  0.79451  0.44052  1.0000
  H   H84       1.0  0.03535  0.64682  0.09470  1.0000
  H   H85       1.0  0.19886  0.64698  0.07997  1.0000
  H   H86       1.0  0.09610  0.52417  0.07153  1.0000
  C   C92       1.0  0.11735  0.57270  0.47465  1.0000
  C   C93       1.0  0.07915  0.52759  0.02489  1.0000
  H   H87       1.0  0.26850  0.82194  0.48390  1.0000
  C   C94       1.0  0.16013  0.60275  0.40398  1.0000
  C   C95       1.0  0.10989  0.54649  0.47554  1.0000
  H   H88       1.0  0.10040  0.73521  0.06733  1.0000
  H   H89       1.0  0.11144  0.58007  0.45358  1.0000
  H   H90       1.0  0.19790  0.62219  0.02242  1.0000
  C   C96       1.0  0.24691  0.77007  0.02817  1.0000
  H   H91       1.0  0.20459  0.69586  0.02957  1.0000
  H   H92       1.0  0.23099  0.66103  0.06331  1.0000
  C   C97       1.0  0.21330  0.66241  0.06364  1.0000
  H   H93       1.0  0.05537  0.69809  0.06658  1.0000
  C   C98       1.0  0.99701  0.59241  0.04874  1.0000
  H   H94       1.0  0.99977  0.56061  0.44241  1.0000
  N   N10       1.0  0.20272  0.65951  0.02914  1.0000
  C   C99       1.0  0.10435  0.69944  0.00339  1.0000
  H   H95       1.0  0.14335  0.53988  0.40445  1.0000
  H   H96       1.0  0.21834  0.68123  0.07538  1.0000
  C   C100      1.0  0.00170  0.57928  0.43882  1.0000
  H   H97       1.0  0.04251  0.66248  0.02544  1.0000
  C   C101      1.0  0.17904  0.59312  0.45193  1.0000
  C   C102      1.0  0.06205  0.67873  0.02523  1.0000
  C   C103      1.0  0.17549  0.61085  0.43338  1.0000
  C   C104      1.0  0.12837  0.58779  0.00082  1.0000
  C   C105      1.0  0.99363  0.62708  0.09217  1.0000
  H   H98       1.0  0.15580  0.52972  0.45744  1.0000
  H   H99       1.0  0.19012  0.55095  0.45279  1.0000
  C   C106      1.0  0.17201  0.54984  0.46092  1.0000
  H   H100      1.0  0.17333  0.55407  0.48859  1.0000
  H   H101      1.0  0.28057  0.50266  0.15545  1.0000
  C   C107      1.0  0.25281  0.78386  0.99758  1.0000
  H   H102      1.0  0.99245  0.64080  0.10870  1.0000
  Fe  Fe18      1.0  0.12618  0.50093  0.92296  1.0000
  H   H103      1.0  0.11398  0.57711  0.94937  1.0000
  S   S36       1.0  0.27757  0.81163  0.55477  1.0000
  C   C108      1.0  0.06870  0.51629  0.99322  1.0000
  C   C109      1.0  0.24648  0.50141  0.91260  1.0000
  H   H104      1.0  0.17428  0.65082  0.93836  1.0000
  C   C110      1.0  0.12332  0.57349  0.97049  1.0000
  S   S37       1.0  0.30428  0.86623  0.91859  1.0000
  C   C111      1.0  0.31634  0.86410  0.75554  1.0000
  Fe  Fe19      1.0  0.31152  0.84027  0.95225  1.0000
  S   S38       1.0  0.14472  0.62279  0.49939  1.0000
  H   H105      1.0  0.30062  0.80543  0.61576  1.0000
  H   H106      1.0  0.13910  0.54600  0.54971  1.0000
  S   S39       1.0  0.12288  0.53671  0.92887  1.0000
  S   S40       1.0  0.31150  0.85597  0.82430  1.0000
  H   H107      1.0  0.21941  0.51100  0.86753  1.0000
  C   C112      1.0  0.13006  0.55441  0.96738  1.0000
  C   C113      1.0  0.13283  0.55328  0.52890  1.0000
  C   C114      1.0  0.04544  0.58054  0.51583  1.0000
  S   S41       1.0  0.11066  0.50449  0.50033  1.0000
  H   H108      1.0  0.02613  0.63740  0.54167  1.0000
  S   S42       1.0  0.15791  0.49760  0.89820  1.0000
  C   C115      1.0  0.20758  0.75659  0.98036  1.0000
  H   H109      1.0  0.30845  0.91726  0.88901  1.0000
  C   C116      1.0  0.14214  0.54990  0.99483  1.0000
  C   C117      1.0  0.25450  0.79268  0.52193  1.0000
  C   C118      1.0  0.06973  0.63378  0.51759  1.0000
  C   C119      1.0  0.18579  0.63411  0.97809  1.0000
  H   H110      1.0  0.14291  0.51845  0.73837  1.0000
  H   H111      1.0  0.23534  0.75920  0.55343  1.0000
  N   N11       1.0  0.04344  0.61939  0.51546  1.0000
  H   H112      1.0  0.23690  0.78716  0.95007  1.0000
  H   H113      1.0  0.10534  0.63323  0.52118  1.0000
  C   C120      1.0  0.13302  0.58938  0.50061  1.0000
  H   H114      1.0  0.07757  0.66499  0.95294  1.0000
  C   C121      1.0  0.23554  0.76701  0.52874  1.0000
  H   H115      1.0  0.29887  0.92189  0.84709  1.0000
  H   H116      1.0  0.26353  0.81145  0.62619  1.0000
  H   H117      1.0  0.06329  0.52648  0.97542  1.0000
  H   H118      1.0  0.19246  0.75161  0.96160  1.0000
  H   H119      1.0  0.18681  0.69086  0.97161  1.0000
  C   C122      1.0  0.30865  0.80402  0.66901  1.0000
  H   H120      1.0  0.08183  0.64700  0.98662  1.0000
  C   C123      1.0  0.14043  0.57951  0.52790  1.0000
  H   H121      1.0  0.00894  0.61991  0.50358  1.0000
  H   H122      1.0  0.25071  0.81304  0.68555  1.0000
  C   C124      1.0  0.18242  0.65334  0.96374  1.0000
  H   H123      1.0  0.29830  0.86388  0.75708  1.0000
  H   H124      1.0  0.26130  0.51499  0.89496  1.0000
  S   S43       1.0  0.31751  0.87411  0.61375  1.0000
  C   C125      1.0  0.02834  0.63231  0.51537  1.0000
  H   H125      1.0  0.20232  0.73171  0.50996  1.0000
  H   H126      1.0  0.27511  0.80846  0.73344  1.0000
  C   C126      1.0  0.28071  0.80766  0.70763  1.0000
  H   H127      1.0  0.15248  0.59231  0.54815  1.0000
  H   H128      1.0  0.03793  0.65012  0.50003  1.0000
  Fe  Fe20      1.0  0.31457  0.85072  0.56683  1.0000
  H   H129      1.0  0.31814  0.86779  0.70086  1.0000
  H   H130      1.0  0.05103  0.64390  0.97921  1.0000
  C   C127      1.0  0.27401  0.80941  0.64745  1.0000
  C   C128      1.0  0.29494  0.80613  0.64154  1.0000
  H   H131      1.0  0.07944  0.65464  0.51770  1.0000
  H   H132      1.0  0.14752  0.53534  0.99272  1.0000
  C   C129      1.0  0.07227  0.59508  0.51794  1.0000
  H   H133      1.0  0.24120  0.51232  0.93034  1.0000
  C   C130      1.0  0.18938  0.67573  0.98236  1.0000
  C   C131      1.0  0.26683  0.81026  0.68070  1.0000
  C   C132      1.0  0.31545  0.80146  0.72990  1.0000
  H   H134      1.0  0.18002  0.61638  0.96413  1.0000
  N   N12       1.0  0.30150  0.80487  0.70154  1.0000
  H   H135      1.0  0.30784  0.78068  0.73418  1.0000
  C   C133      1.0  0.13882  0.49887  0.74088  1.0000
  S   S44       1.0  0.28526  0.80946  0.99099  1.0000
  C   C134      1.0  0.11783  0.53674  0.50245  1.0000
  C   C135      1.0  0.23286  0.77685  0.97366  1.0000
  H   H136      1.0  0.30684  0.89724  0.85438  1.0000
  C   C136      1.0  0.07213  0.65780  0.97914  1.0000
  C   C137      1.0  0.31190  0.91717  0.86137  1.0000
  H   H137      1.0  0.03576  0.55971  0.51462  1.0000
  H   H138      1.0  0.31366  0.81043  0.75364  1.0000
  C   C138      1.0  0.21669  0.75127  0.50402  1.0000
  C   C139      1.0  0.03122  0.59309  0.51508  1.0000
  H   H139      1.0  0.08366  0.58572  0.51859  1.0000
  C   C140      1.0  0.08449  0.62183  0.51918  1.0000
  H   H140      1.0  0.01036  0.58168  0.51327  1.0000
  H   H141      1.0  0.11843  0.69960  0.98635  1.0000
  S   S45       1.0  0.13561  0.49723  0.67108  1.0000
  H   H142      1.0  0.13900  0.50003  0.79582  1.0000
  H   H143      1.0  0.06759  0.49492  0.93083  1.0000
  H   H144      1.0  0.32536  0.80222  0.66416  1.0000
  H   H145      1.0  0.40488  0.48370  0.04534  1.0000
  S   S46       1.0  0.36321  0.47278  0.41181  1.0000
  H   H146      1.0  0.41291  0.42787  0.38099  1.0000
  S   S47       1.0  0.65338  0.04711  0.42284  1.0000
  C   C141      1.0  0.61166  0.02043  0.16125  1.0000
  N   N13       1.0  0.39805  0.27721  0.00277  1.0000
  H   H147      1.0  0.59910  0.02673  0.40352  1.0000
  Fe  Fe21      1.0  0.35064  0.44411  0.06010  1.0000
  S   S48       1.0  0.37608  0.42902  0.03919  1.0000
  C   C142      1.0  0.58759  0.14455  0.47506  1.0000
  Fe  Fe22      1.0  0.62583  0.12472  0.06378  1.0000
  S   S49       1.0  0.58608  0.12036  0.05834  1.0000
  C   C143      1.0  0.44990  0.23276  0.02837  1.0000
  S   S50       1.0  0.62811  0.09484  0.09556  1.0000
  S   S51       1.0  0.61998  0.08844  0.40053  1.0000
  C   C144      1.0  0.33852  0.47815  0.28375  1.0000
  Fe  Fe23      1.0  0.63024  0.11575  0.44481  1.0000
  C   C145      1.0  0.36205  0.37013  0.42604  1.0000
  Fe  Fe24      1.0  0.43315  0.33636  0.07362  1.0000
  S   S52       1.0  0.46726  0.36578  0.10366  1.0000
  S   S53       1.0  0.39523  0.33642  0.07644  1.0000
  Fe  Fe25      1.0  0.46280  0.31009  0.04661  1.0000
  S   S54       1.0  0.49913  0.33891  0.07488  1.0000
  Fe  Fe26      1.0  0.33351  0.47270  0.37626  1.0000
  Fe  Fe27      1.0  0.47306  0.33327  0.11892  1.0000
  S   S55       1.0  0.48654  0.32970  0.17209  1.0000
  Fe  Fe28      1.0  0.49011  0.36896  0.05736  1.0000
  S   S56       1.0  0.51546  0.40982  0.03864  1.0000
  S   S57       1.0  0.43722  0.30284  0.09166  1.0000
  S   S58       1.0  0.45543  0.34103  0.02640  1.0000
  Fe  Fe29      1.0  0.44640  0.35601  0.43957  1.0000
  S   S59       1.0  0.47450  0.37802  0.39892  1.0000
  S   S60       1.0  0.43112  0.38080  0.46241  1.0000
  Fe  Fe30      1.0  0.45942  0.31198  0.43648  1.0000
  S   S61       1.0  0.48781  0.33215  0.39446  1.0000
  S   S62       1.0  0.45900  0.27429  0.45050  1.0000
  Fe  Fe31      1.0  0.50116  0.36810  0.42583  1.0000
  C   C146      1.0  0.49213  0.09903  0.46361  1.0000
  Fe  Fe32      1.0  0.45852  0.34032  0.37096  1.0000
  S   S63       1.0  0.44473  0.34014  0.31635  1.0000
  S   S64       1.0  0.47456  0.34817  0.46869  1.0000
  S   S65       1.0  0.42881  0.31814  0.41069  1.0000
  H   H148      1.0  0.43913  0.19426  0.04392  1.0000
  C   C147      1.0  0.38275  0.36609  0.43365  1.0000
  C   C148      1.0  0.37711  0.25096  0.06247  1.0000
  C   C149      1.0  0.38904  0.24237  0.04017  1.0000
  H   H149      1.0  0.38691  0.43080  0.45772  1.0000
  S   S66       1.0  0.54349  0.39843  0.43108  1.0000
  C   C150      1.0  0.46115  0.11729  0.43888  1.0000
  C   C151      1.0  0.52057  0.28919  0.47935  1.0000
  Fe  Fe33      1.0  0.34637  0.48641  0.45177  1.0000
  C   C152      1.0  0.42382  0.39947  0.37130  1.0000
  H   H150      1.0  0.34493  0.35501  0.41351  1.0000
  H   H151      1.0  0.41761  0.42000  0.02558  1.0000
  H   H152      1.0  0.64805  0.99749  0.43390  1.0000
  C   C153      1.0  0.59919  0.01979  0.05961  1.0000
  H   H153      1.0  0.60308  0.15284  0.45711  1.0000
  H   H154      1.0  0.54268  0.34904  0.40727  1.0000
  C   C154      1.0  0.47461  0.33272  0.21190  1.0000
  C   C155      1.0  0.48673  0.33135  0.24196  1.0000
  C   C156      1.0  0.47803  0.33374  0.27410  1.0000
  C   C157      1.0  0.45701  0.33751  0.27658  1.0000
  C   C158      1.0  0.44507  0.33916  0.24650  1.0000
  C   C159      1.0  0.45380  0.33682  0.21437  1.0000
  H   H155      1.0  0.50284  0.32818  0.24040  1.0000
  H   H156      1.0  0.48741  0.33238  0.29693  1.0000
  H   H157      1.0  0.42878  0.34203  0.24802  1.0000
  H   H158      1.0  0.44426  0.33792  0.19153  1.0000
  C   C160      1.0  0.44615  0.20779  0.02331  1.0000
  C   C161      1.0  0.50333  0.12261  0.44721  1.0000
  H   H159      1.0  0.49541  0.21239  0.04349  1.0000
  C   C162      1.0  0.58227  0.41982  0.99955  1.0000
  C   C163      1.0  0.61621  0.00425  0.14061  1.0000
  H   H160      1.0  0.41713  0.08721  0.48092  1.0000
  S   S67       1.0  0.46316  0.28219  0.00619  1.0000
  H   H161      1.0  0.41528  0.05863  0.46394  1.0000
  H   H162      1.0  0.63862  0.13737  0.19441  1.0000
  C   C164      1.0  0.58153  0.12157  0.49110  1.0000
  C   C165      1.0  0.57614  0.13278  0.02460  1.0000
  Fe  Fe34      1.0  0.65397  0.08524  0.41699  1.0000
  S   S68       1.0  0.34288  0.46931  0.02527  1.0000
  C   C166      1.0  0.62393  0.06327  0.18413  1.0000
  C   C167      1.0  0.59381  0.00361  0.49342  1.0000
  H   H163      1.0  0.36658  0.27976  0.07174  1.0000
  C   C168      1.0  0.35020  0.49349  0.25525  1.0000
  C   C169      1.0  0.38605  0.28555  0.02424  1.0000
  C   C170      1.0  0.62191  0.02379  0.04480  1.0000
  C   C171      1.0  0.60138  0.04638  0.48411  1.0000
  H   H164      1.0  0.39169  0.32607  0.33998  1.0000
  H   H165      1.0  0.59720  0.03613  0.06616  1.0000
  C   C172      1.0  0.50719  0.21199  0.02321  1.0000
  C   C173      1.0  0.62624  0.01535  0.41893  1.0000
  H   H166      1.0  0.53966  0.29763  0.43165  1.0000
  H   H167      1.0  0.51400  0.24802  0.00268  1.0000
  H   H168      1.0  0.36949  0.24112  0.08617  1.0000
  C   C174      1.0  0.38190  0.40406  0.05247  1.0000
  C   C175      1.0  0.40411  0.40431  0.04108  1.0000
  C   C176      1.0  0.40893  0.38430  0.04922  1.0000
  C   C177      1.0  0.39125  0.36336  0.06826  1.0000
  C   C178      1.0  0.36909  0.36314  0.07977  1.0000
  C   C179      1.0  0.36457  0.38347  0.07229  1.0000
  H   H169      1.0  0.44574  0.23816  0.05262  1.0000
  H   H170      1.0  0.42598  0.38476  0.03996  1.0000
  H   H171      1.0  0.35521  0.34706  0.09441  1.0000
  H   H172      1.0  0.34732  0.38283  0.08108  1.0000
  C   C180      1.0  0.36334  0.39351  0.43444  1.0000
  C   C181      1.0  0.64793  0.12810  0.27803  1.0000
  H   H173      1.0  0.59205  0.40899  0.99740  1.0000
  C   C182      1.0  0.40487  0.38521  0.45051  1.0000
  H   H174      1.0  0.49659  0.15078  0.42346  1.0000
  Fe  Fe35      1.0  0.64834  0.12318  0.37125  1.0000
  H   H175      1.0  0.45686  0.06678  0.48051  1.0000
  H   H176      1.0  0.41191  0.08009  0.43584  1.0000
  S   S69       1.0  0.64781  0.12155  0.02032  1.0000
  N   N14       1.0  0.54131  0.33086  0.45368  1.0000
  N   N15       1.0  0.51417  0.42337  0.13322  1.0000
  C   C183      1.0  0.53210  0.41670  0.12523  1.0000
  C   C184      1.0  0.50044  0.41470  0.16239  1.0000
  C   C185      1.0  0.53702  0.40138  0.14704  1.0000
  C   C186      1.0  0.50501  0.39949  0.18489  1.0000
  C   C187      1.0  0.52354  0.39297  0.17718  1.0000
  C   C188      1.0  0.50820  0.43829  0.10933  1.0000
  H   H177      1.0  0.54237  0.42277  0.10156  1.0000
  H   H178      1.0  0.48543  0.41900  0.16801  1.0000
  H   H179      1.0  0.55071  0.39552  0.14024  1.0000
  H   H180      1.0  0.49375  0.39211  0.20767  1.0000
  H   H181      1.0  0.52675  0.38060  0.19399  1.0000
  H   H182      1.0  0.50405  0.45192  0.12289  1.0000
  H   H183      1.0  0.52452  0.44966  0.09208  1.0000
  H   H184      1.0  0.49120  0.42500  0.09329  1.0000
  C   C189      1.0  0.37543  0.27258  0.05439  1.0000
  C   C190      1.0  0.46107  0.23167  0.47273  1.0000
  H   H185      1.0  0.38500  0.30261  0.01854  1.0000
  N   N16       1.0  0.39314  0.36213  0.33932  1.0000
  C   C191      1.0  0.41624  0.37556  0.35632  1.0000
  C   C192      1.0  0.37734  0.37222  0.33605  1.0000
  H   H186      1.0  0.52410  0.13401  0.44484  1.0000
  C   C193      1.0  0.38429  0.39609  0.35078  1.0000
  H   H187      1.0  0.39078  0.22577  0.04628  1.0000
  C   C194      1.0  0.38594  0.33730  0.32341  1.0000
  H   H188      1.0  0.42876  0.36760  0.35873  1.0000
  C   C195      1.0  0.46538  0.08486  0.46712  1.0000
  C   C196      1.0  0.59265  0.14709  0.99853  1.0000
  C   C197      1.0  0.62403  0.00218  0.03651  1.0000
  H   H189      1.0  0.56752  0.34084  0.41265  1.0000
  H   H190      1.0  0.36485  0.32535  0.31873  1.0000
  H   H191      1.0  0.39607  0.34048  0.29898  1.0000
  C   C198      1.0  0.55601  0.34781  0.42588  1.0000
  H   H192      1.0  0.56786  0.04866  0.47084  1.0000
  C   C199      1.0  0.53356  0.34033  0.47964  1.0000
  H   H193      1.0  0.50421  0.09208  0.47412  1.0000
  C   C200      1.0  0.60173  0.01074  0.40971  1.0000
  H   H194      1.0  0.61437  0.06696  0.48264  1.0000
  C   C201      1.0  0.49859  0.16988  0.04287  1.0000
  H   H195      1.0  0.46745  0.23127  0.44735  1.0000
  C   C202      1.0  0.57369  0.15696  0.48254  1.0000
  H   H196      1.0  0.56964  0.36761  0.43554  1.0000
  S   S70       1.0  0.65594  0.15116  0.41455  1.0000
  S   S71       1.0  0.59849  0.10523  0.48309  1.0000
  H   H197      1.0  0.47845  0.15650  0.03405  1.0000
  H   H198      1.0  0.44173  0.40954  0.38585  1.0000
  S   S72       1.0  0.33653  0.39742  0.42410  1.0000
  C   C203      1.0  0.57516  0.03601  0.47740  1.0000
  C   C204      1.0  0.63776  0.13366  0.24908  1.0000
  H   H199      1.0  0.53755  0.11594  0.04332  1.0000
  H   H200      1.0  0.59404  0.44049  0.44718  1.0000
  H   H201      1.0  0.49817  0.17667  0.06895  1.0000
  H   H202      1.0  0.44926  0.12493  0.42998  1.0000
  C   C205      1.0  0.58322  0.43501  0.47037  1.0000
  N   N17       1.0  0.45023  0.09388  0.45431  1.0000
  C   C206      1.0  0.55043  0.12701  0.02324  1.0000
  S   S73       1.0  0.63745  0.13132  0.31879  1.0000
  N   N18       1.0  0.51092  0.19154  0.01954  1.0000
  C   C207      1.0  0.38560  0.41277  0.45087  1.0000
  H   H203      1.0  0.62619  0.08019  0.17000  1.0000
  N   N19       1.0  0.62840  0.04646  0.16178  1.0000
  C   C208      1.0  0.48785  0.13199  0.43506  1.0000
  C   C209      1.0  0.55811  0.40861  0.01518  1.0000
  C   C210      1.0  0.64988  0.05699  0.14221  1.0000
  C   C211      1.0  0.55761  0.41457  0.46987  1.0000
  S   S74       1.0  0.36848  0.47394  0.10172  1.0000
  Fe  Fe36      1.0  0.33188  0.43306  0.42575  1.0000
  H   H204      1.0  0.64147  0.00500  0.02502  1.0000
  H   H205      1.0  0.62302  0.13872  0.25202  1.0000
  H   H206      1.0  0.63817  0.07038  0.20552  1.0000
  H   H207      1.0  0.54944  0.38932  0.02506  1.0000
  C   C212      1.0  0.61084  0.03017  0.49215  1.0000
  H   H208      1.0  0.48979  0.42099  0.48768  1.0000
  C   C213      1.0  0.64658  0.13292  0.21635  1.0000
  H   H209      1.0  0.42292  0.42338  0.47245  1.0000
  H   H210      1.0  0.37135  0.40368  0.34921  1.0000
  C   C214      1.0  0.40605  0.40850  0.45917  1.0000
  C   C215      1.0  0.40767  0.40973  0.36857  1.0000
  C   C216      1.0  0.42227  0.07926  0.45886  1.0000
  Fe  Fe37      1.0  0.65225  0.09361  0.05387  1.0000
  C   C217      1.0  0.55083  0.46832  0.47031  1.0000
  H   H211      1.0  0.49155  0.05614  0.02000  1.0000
  H   H212      1.0  0.53831  0.00138  0.47336  1.0000
  H   H213      1.0  0.35911  0.36172  0.32236  1.0000
  H   H214      1.0  0.53832  0.36021  0.47976  1.0000
  C   C218      1.0  0.54536  0.42248  0.01814  1.0000
  H   H215      1.0  0.50908  0.15912  0.04421  1.0000
  C   C219      1.0  0.34356  0.48306  0.22201  1.0000
  H   H216      1.0  0.38135  0.34797  0.42714  1.0000
  C   C220      1.0  0.45490  0.25064  0.48142  1.0000
  H   H217      1.0  0.54712  0.45838  0.00735  1.0000
  S   S75       1.0  0.64839  0.05528  0.03728  1.0000
  S   S76       1.0  0.34761  0.49233  0.32511  1.0000
  C   C221      1.0  0.45885  0.25056  0.00201  1.0000
  Fe  Fe38      1.0  0.32853  0.45763  0.12191  1.0000
  C   C222      1.0  0.39922  0.25566  0.01009  1.0000
  C   C223      1.0  0.65502  0.04138  0.12134  1.0000
  H   H218      1.0  0.51996  0.43862  0.43961  1.0000
  H   H219      1.0  0.53387  0.06407  0.01377  1.0000
  H   H220      1.0  0.59459  0.01201  0.17666  1.0000
  H   H221      1.0  0.64170  0.00259  0.10422  1.0000
  C   C224      1.0  0.63815  0.01485  0.12077  1.0000
  C   C225      1.0  0.50908  0.43742  0.49169  1.0000
  C   C226      1.0  0.55687  0.44751  0.00517  1.0000
  C   C227      1.0  0.52591  0.44745  0.46464  1.0000
  C   C228      1.0  0.53451  0.30548  0.45289  1.0000
  H   H222      1.0  0.60425  0.05328  0.19469  1.0000
  C   C229      1.0  0.55866  0.00936  0.47887  1.0000
  H   H223      1.0  0.61252  0.15171  0.99935  1.0000
  H   H224      1.0  0.51497  0.26902  0.47859  1.0000
  H   H225      1.0  0.46404  0.19890  0.48918  1.0000
  H   H226      1.0  0.57856  0.17480  0.47014  1.0000
  C   C230      1.0  0.57890  0.99455  0.06576  1.0000
  C   C231      1.0  0.51759  0.23217  0.00008  1.0000
  H   H227      1.0  0.63140  0.03808  0.49603  1.0000
  H   H228      1.0  0.56393  0.47570  0.44925  1.0000
  C   C232      1.0  0.45920  0.21323  0.49651  1.0000
  Fe  Fe39      1.0  0.45083  0.09389  0.92652  1.0000
  S   S77       1.0  0.48056  0.11232  0.88592  1.0000
  S   S78       1.0  0.44228  0.05241  0.93354  1.0000
  Fe  Fe40      1.0  0.45724  0.14748  0.94684  1.0000
  S   S79       1.0  0.48729  0.16812  0.90743  1.0000
  H   H229      1.0  0.51283  0.33200  0.52652  1.0000
  Fe  Fe41      1.0  0.46140  0.13480  0.87236  1.0000
  S   S80       1.0  0.44855  0.13926  0.81900  1.0000
  Fe  Fe42      1.0  0.50338  0.14332  0.92466  1.0000
  S   S81       1.0  0.54608  0.15838  0.93374  1.0000
  S   S82       1.0  0.43010  0.11493  0.91112  1.0000
  S   S83       1.0  0.47494  0.12434  0.96578  1.0000
  Fe  Fe43      1.0  0.47860  0.13629  0.61932  1.0000
  S   S84       1.0  0.43878  0.12409  0.59950  1.0000
  S   S85       1.0  0.49154  0.13493  0.67364  1.0000
  Fe  Fe44      1.0  0.50119  0.14658  0.54748  1.0000
  S   S86       1.0  0.46282  0.13507  0.52316  1.0000
  H   H230      1.0  0.59622  0.16628  0.95106  1.0000
  Fe  Fe45      1.0  0.45873  0.15863  0.56445  1.0000
  S   S87       1.0  0.44699  0.18970  0.56056  1.0000
  Fe  Fe46      1.0  0.44668  0.10183  0.55979  1.0000
  S   S88       1.0  0.42584  0.06047  0.53877  1.0000
  S   S89       1.0  0.49806  0.17173  0.58708  1.0000
  S   S90       1.0  0.48553  0.11249  0.58141  1.0000
  S   S91       1.0  0.62390  0.45798  0.96663  1.0000
  C   C233      1.0  0.46059  0.21805  0.96575  1.0000
  C   C234      1.0  0.58115  0.44166  0.53080  1.0000
  N   N20       1.0  0.59371  0.46361  0.83735  1.0000
  H   H231      1.0  0.47086  0.25635  0.94997  1.0000
  C   C235      1.0  0.55570  0.42089  0.53041  1.0000
  C   C236      1.0  0.58329  0.43565  0.89677  1.0000
  C   C237      1.0  0.45065  0.21308  0.52944  1.0000
  H   H232      1.0  0.51184  0.19612  0.72004  1.0000
  C   C238      1.0  0.41829  0.99956  0.93399  1.0000
  C   C239      1.0  0.40283  0.00770  0.53996  1.0000
  H   H233      1.0  0.43728  0.00262  0.92930  1.0000
  H   H234      1.0  0.54494  0.41541  0.55365  1.0000
  H   H235      1.0  0.61613  0.43211  0.88464  1.0000
  H   H236      1.0  0.49792  0.08143  0.93261  1.0000
  C   C240      1.0  0.55356  0.14646  0.50591  1.0000
  C   C241      1.0  0.45917  0.13471  0.77909  1.0000
  C   C242      1.0  0.44492  0.13297  0.74956  1.0000
  C   C243      1.0  0.45408  0.13225  0.71705  1.0000
  C   C244      1.0  0.47777  0.13346  0.71375  1.0000
  C   C245      1.0  0.49174  0.13466  0.74326  1.0000
  C   C246      1.0  0.48251  0.13523  0.77574  1.0000
  H   H237      1.0  0.42685  0.13260  0.75186  1.0000
  H   H238      1.0  0.44309  0.13131  0.69461  1.0000
  H   H239      1.0  0.51007  0.13557  0.74101  1.0000
  H   H240      1.0  0.49379  0.13674  0.79815  1.0000
  C   C247      1.0  0.36956  0.00077  0.59248  1.0000
  H   H241      1.0  0.61111  0.47511  0.78874  1.0000
  C   C248      1.0  0.51292  0.29880  0.50617  1.0000
  H   H242      1.0  0.46076  0.18600  0.77780  1.0000
  C   C249      1.0  0.49214  0.19302  0.67301  1.0000
  C   C250      1.0  0.45154  0.20020  0.99205  1.0000
  H   H243      1.0  0.41465  0.48104  0.95311  1.0000
  H   H244      1.0  0.61463  0.46436  0.50074  1.0000
  H   H245      1.0  0.53198  0.11513  0.53979  1.0000
  H   H246      1.0  0.57506  0.08490  0.98371  1.0000
  C   C251      1.0  0.49487  0.19497  0.70834  1.0000
  C   C252      1.0  0.44008  0.00884  0.60569  1.0000
  C   C253      1.0  0.55743  0.14887  0.96937  1.0000
  C   C254      1.0  0.60869  0.45350  0.84678  1.0000
  C   C255      1.0  0.40908  0.29083  0.97115  1.0000
  H   H247      1.0  0.55664  0.09334  0.52703  1.0000
  C   C256      1.0  0.41485  0.02094  0.93692  1.0000
  C   C257      1.0  0.39013  0.01660  0.94297  1.0000
  H   H248      1.0  0.54610  0.20900  0.94821  1.0000
  H   H249      1.0  0.38714  0.03277  0.94551  1.0000
  C   C258      1.0  0.38728  0.02588  0.58156  1.0000
  C   C259      1.0  0.40395  0.02948  0.55505  1.0000
  C   C260      1.0  0.54249  0.46903  0.52885  1.0000
  H   H250      1.0  0.38752  0.04232  0.59303  1.0000
  N   N21       1.0  0.43534  0.03958  0.63913  1.0000
  H   H251      1.0  0.53943  0.24645  0.95443  1.0000
  H   H252      1.0  0.47506  0.04078  0.98056  1.0000
  H   H253      1.0  0.42852  0.29334  0.96754  1.0000
  H   H254      1.0  0.57791  0.10466  0.92751  1.0000
  C   C261      1.0  0.54740  0.12339  0.52176  1.0000
  C   C262      1.0  0.51925  0.32449  0.50625  1.0000
  C   C263      1.0  0.46405  0.24290  0.97068  1.0000
  H   H255      1.0  0.54907  0.47695  0.55420  1.0000
  C   C264      1.0  0.44662  0.25067  0.51445  1.0000
  C   C265      1.0  0.53542  0.21026  0.96939  1.0000
  H   H256      1.0  0.58228  0.47650  0.79368  1.0000
  H   H257      1.0  0.39080  0.46970  0.98529  1.0000
  H   H258      1.0  0.55306  0.44429  0.90360  1.0000
  C   C266      1.0  0.54104  0.13475  0.99565  1.0000
  H   H259      1.0  0.35643  0.99817  0.61258  1.0000
  C   C267      1.0  0.60375  0.43942  0.87663  1.0000
  S   S92       1.0  0.53588  0.16215  0.51327  1.0000
  C   C268      1.0  0.55963  0.09469  0.94034  1.0000
  C   C269      1.0  0.41153  0.47691  0.98059  1.0000
  C   C270      1.0  0.44748  0.03430  0.61398  1.0000
  H   H260      1.0  0.50463  0.44030  0.54537  1.0000
  H   H261      1.0  0.41158  0.31042  0.97147  1.0000
  H   H262      1.0  0.46409  0.07905  0.64644  1.0000
  H   H263      1.0  0.58951  0.47789  0.97931  1.0000
  H   H264      1.0  0.62499  0.45680  0.83165  1.0000
  H   H265      1.0  0.50685  0.19268  0.65780  1.0000
  C   C271      1.0  0.44437  0.23199  0.53807  1.0000
  H   H266      1.0  0.46251  0.04981  0.59957  1.0000
  H   H267      1.0  0.56282  0.46947  0.85074  1.0000
  H   H268      1.0  0.38331  0.99834  0.87001  1.0000
  C   C272      1.0  0.41533  0.01998  0.65595  1.0000
  C   C273      1.0  0.57396  0.46049  0.85740  1.0000
  H   H269      1.0  0.43759  0.23214  0.56327  1.0000
  C   C274      1.0  0.53784  0.09376  0.92606  1.0000
  H   H270      1.0  0.43430  0.07313  0.62651  1.0000
  C   C275      1.0  0.56838  0.44637  0.88732  1.0000
  H   H271      1.0  0.41555  0.46135  0.98715  1.0000
  H   H272      1.0  0.65657  0.48614  0.75176  1.0000
  C   C276      1.0  0.51471  0.08180  0.94366  1.0000
  H   H273      1.0  0.41543  0.01017  0.51925  1.0000
  C   C277      1.0  0.44277  0.06639  0.64627  1.0000
  S   S93       1.0  0.44753  0.16869  0.98792  1.0000
  C   C278      1.0  0.58335  0.15529  0.97117  1.0000
  C   C279      1.0  0.59492  0.44860  0.50067  1.0000
  H   H274      1.0  0.43941  0.19202  0.72845  1.0000
  H   H275      1.0  0.43376  0.18854  0.66579  1.0000
  N   N22       1.0  0.47600  0.19446  0.72786  1.0000
  C   C280      1.0  0.55802  0.08355  0.97181  1.0000
  H   H276      1.0  0.49188  0.18979  0.77427  1.0000
  H   H277      1.0  0.39641  0.27976  0.94931  1.0000
  C   C281      1.0  0.45102  0.19042  0.67766  1.0000
  H   H278      1.0  0.46763  0.18914  0.63019  1.0000
  H   H279      1.0  0.50146  0.28613  0.52632  1.0000
  C   C282      1.0  0.45435  0.19240  0.71298  1.0000
  H   H280      1.0  0.46484  0.21267  0.94154  1.0000
  C   C283      1.0  0.47007  0.19076  0.65761  1.0000
  H   H281      1.0  0.43621  0.06874  0.67154  1.0000
  C   C284      1.0  0.47950  0.19733  0.76481  1.0000
  H   H282      1.0  0.48840  0.21787  0.77235  1.0000
  C   C285      1.0  0.54388  0.40753  0.50004  1.0000
  C   C286      1.0  0.53170  0.23119  0.97293  1.0000
  S   S94       1.0  0.59449  0.45903  0.56908  1.0000
  H   H283      1.0  0.44927  0.00467  0.58517  1.0000
  H   H284      1.0  0.53902  0.10303  0.90207  1.0000
  C   C287      1.0  0.56137  0.11106  0.51442  1.0000
  H   H285      1.0  0.57948  0.42502  0.92018  1.0000
  H   H286      1.0  0.52412  0.39192  0.50002  1.0000
  C   C288      1.0  0.51738  0.44826  0.52404  1.0000
  N   N23       1.0  0.51343  0.07139  0.97483  1.0000
  C   C289      1.0  0.52474  0.19046  0.99301  1.0000
  C   C290      1.0  0.59996  0.47957  0.80706  1.0000
  C   C291      1.0  0.59377  0.44487  0.98662  1.0000
  H   H287      1.0  0.44170  0.26495  0.52176  1.0000
  N   N24       1.0  0.55887  0.47870  0.50216  1.0000
  H   H288      1.0  0.40497  0.02407  0.67488  1.0000
  H   H289      1.0  0.52108  0.12951  0.99467  1.0000
  C   C292      1.0  0.58091  0.45864  0.98930  1.0000
  H   H290      1.0  0.52737  0.17412  0.98974  1.0000
  C   C293      1.0  0.53461  0.07186  0.98880  1.0000
  H   H291      1.0  0.48050  0.07208  0.99214  1.0000
  C   C294      1.0  0.48901  0.05945  0.99291  1.0000
  H   H292      1.0  0.40861  0.24896  0.99296  1.0000
  C   C295      1.0  0.43643  0.52183  0.05532  1.0000
  S   S95       1.0  0.38933  0.54021  0.06156  1.0000
  Fe  Fe47      1.0  0.49179  0.84343  0.44734  1.0000
  S   S96       1.0  0.53235  0.86534  0.46789  1.0000
  H   H293      1.0  0.42159  0.88178  0.40610  1.0000
  Fe  Fe48      1.0  0.50966  0.84294  0.37444  1.0000
  S   S97       1.0  0.55145  0.86462  0.39036  1.0000
  S   S98       1.0  0.49228  0.82761  0.32174  1.0000
  Fe  Fe49      1.0  0.53862  0.83784  0.43573  1.0000
  S   S99       1.0  0.55959  0.81715  0.45564  1.0000
  Fe  Fe50      1.0  0.54118  0.88992  0.42112  1.0000
  S   S100      1.0  0.55513  0.93316  0.41912  1.0000
  S   S101      1.0  0.49764  0.81492  0.41760  1.0000
  S   S102      1.0  0.49970  0.86900  0.40279  1.0000
  Fe  Fe51      1.0  0.49071  0.85016  0.07134  1.0000
  S   S103      1.0  0.51923  0.86861  0.03002  1.0000
  S   S104      1.0  0.44816  0.83643  0.06395  1.0000
  Fe  Fe52      1.0  0.53215  0.85828  0.12423  1.0000
  S   S105      1.0  0.56356  0.87748  0.08557  1.0000
  S   S106      1.0  0.54655  0.85816  0.17831  1.0000
  Fe  Fe53      1.0  0.54382  0.89920  0.06905  1.0000
  S   S107      1.0  0.55446  0.94166  0.06591  1.0000
  Fe  Fe54      1.0  0.53620  0.84499  0.04995  1.0000
  H   H294      1.0  0.49502  0.80341  0.49562  1.0000
  S   S108      1.0  0.51395  0.88136  0.10952  1.0000
  S   S109      1.0  0.50604  0.82484  0.08948  1.0000
  C   C296      1.0  0.58109  0.97294  0.05776  1.0000
  C   C297      1.0  0.60389  0.97693  0.04323  1.0000
  H   H295      1.0  0.45000  0.90524  0.11271  1.0000
  H   H296      1.0  0.60588  0.96058  0.03673  1.0000
  N   N25       1.0  0.56775  0.71842  0.03199  1.0000
  H   H297      1.0  0.50811  0.77165  0.46684  1.0000
  H   H298      1.0  0.55638  0.74339  0.05500  1.0000
  C   C298      1.0  0.44270  0.90579  0.03912  1.0000
  H   H299      1.0  0.36452  0.51360  0.25888  1.0000
  H   H300      1.0  0.51383  0.77461  0.04501  1.0000
  C   C299      1.0  0.58332  0.96425  0.41724  1.0000
  H   H301      1.0  0.47204  0.57911  0.43104  1.0000
  C   C300      1.0  0.58046  0.98539  0.40898  1.0000
  C   C301      1.0  0.38566  0.54219  0.39004  1.0000
  S   S110      1.0  0.36625  0.51970  0.48927  1.0000
  C   C302      1.0  0.50727  0.83988  0.28222  1.0000
  C   C303      1.0  0.53395  0.85585  0.27981  1.0000
  C   C304      1.0  0.54555  0.86186  0.24774  1.0000
  C   C305      1.0  0.53062  0.85263  0.21767  1.0000
  C   C306      1.0  0.50383  0.83754  0.22007  1.0000
  C   C307      1.0  0.49228  0.83103  0.25217  1.0000
  H   H302      1.0  0.54574  0.86287  0.30266  1.0000
  H   H303      1.0  0.56628  0.87359  0.24617  1.0000
  H   H304      1.0  0.49210  0.83015  0.19722  1.0000
  H   H305      1.0  0.47163  0.81860  0.25371  1.0000
  C   C308      1.0  0.45074  0.89189  0.09393  1.0000
  S   S111      1.0  0.45792  0.82801  0.48294  1.0000
  H   H306      1.0  0.46358  0.88507  0.10396  1.0000
  C   C309      1.0  0.41317  0.84372  0.41948  1.0000
  H   H307      1.0  0.56158  0.98216  0.40213  1.0000
  C   C310      1.0  0.40730  0.55251  0.02402  1.0000
  H   H308      1.0  0.57902  0.67097  0.00821  1.0000
  H   H309      1.0  0.56057  0.95479  0.48832  1.0000
  C   C311      1.0  0.41646  0.57538  0.42794  1.0000
  C   C312      1.0  0.39752  0.82198  0.43849  1.0000
  C   C313      1.0  0.37787  0.82132  0.45780  1.0000
  C   C314      1.0  0.62919  0.99418  0.42679  1.0000
  H   H310      1.0  0.53224  0.70997  0.05322  1.0000
  H   H311      1.0  0.46410  0.60152  0.44838  1.0000
  H   H312      1.0  0.38697  0.87995  0.44120  1.0000
  C   C315      1.0  0.43695  0.84571  0.02809  1.0000
  H   H313      1.0  0.40132  0.80619  0.43929  1.0000
  C   C316      1.0  0.44561  0.84770  0.49628  1.0000
  C   C317      1.0  0.40902  0.86449  0.41997  1.0000
  S   S112      1.0  0.54807  0.82397  0.01129  1.0000
  C   C318      1.0  0.55322  0.72361  0.05720  1.0000
  H   H314      1.0  0.45443  0.53634  0.47702  1.0000
  H   H315      1.0  0.43355  0.58935  0.04708  1.0000
  C   C319      1.0  0.45409  0.79040  0.01728  1.0000
  H   H316      1.0  0.36624  0.80466  0.47326  1.0000
  C   C320      1.0  0.39096  0.55946  0.41679  1.0000
  H   H317      1.0  0.53704  0.95882  0.46598  1.0000
  H   H318      1.0  0.40702  0.51066  0.46780  1.0000
  C   C321      1.0  0.35384  0.84085  0.47977  1.0000
  C   C322      1.0  0.47690  0.79917  0.99945  1.0000
  H   H319      1.0  0.35358  0.85916  0.47924  1.0000
  C   C323      1.0  0.55023  0.96573  0.48853  1.0000
  C   C324      1.0  0.51494  0.74370  0.49215  1.0000
  H   H320      1.0  0.61046  0.95281  0.43247  1.0000
  H   H321      1.0  0.58728  0.79347  0.48278  1.0000
  C   C325      1.0  0.43373  0.79188  0.00244  1.0000
  H   H322      1.0  0.46871  0.56059  0.05696  1.0000
  H   H323      1.0  0.47102  0.88024  0.46616  1.0000
  C   C326      1.0  0.54869  0.78582  0.47297  1.0000
  H   H324      1.0  0.50261  0.72974  0.03151  1.0000
  C   C327      1.0  0.56699  0.77960  0.48515  1.0000
  H   H325      1.0  0.58231  0.75459  0.00751  1.0000
  H   H326      1.0  0.55453  0.68053  0.05004  1.0000
  H   H327      1.0  0.42035  0.58868  0.44884  1.0000
  C   C328      1.0  0.43098  0.55666  0.38722  1.0000
  H   H328      1.0  0.49466  0.72992  0.49491  1.0000
  H   H329      1.0  0.49277  0.79827  0.01133  1.0000
  Fe  Fe55      1.0  0.35879  0.49807  0.06808  1.0000
  H   H330      1.0  0.39826  0.82900  0.04664  1.0000
  C   C329      1.0  0.44237  0.54332  0.48686  1.0000
  H   H331      1.0  0.45247  0.78323  0.04285  1.0000
  H   H332      1.0  0.47397  0.60470  0.40496  1.0000
  C   C330      1.0  0.41557  0.52878  0.48157  1.0000
  H   H333      1.0  0.43133  0.87442  0.09092  1.0000
  H   H334      1.0  0.42236  0.89632  0.04485  1.0000
  C   C331      1.0  0.45507  0.87240  0.48343  1.0000
  C   C332      1.0  0.42881  0.57759  0.02436  1.0000
  C   C333      1.0  0.45777  0.54321  0.04176  1.0000
  C   C334      1.0  0.52215  0.77076  0.02325  1.0000
  H   H335      1.0  0.55901  0.72142  0.08323  1.0000
  N   N26       1.0  0.53104  0.79977  0.30538  1.0000
  C   C335      1.0  0.52176  0.79050  0.33684  1.0000
  C   C336      1.0  0.55644  0.81792  0.30150  1.0000
  C   C337      1.0  0.53810  0.79926  0.36544  1.0000
  C   C338      1.0  0.57323  0.82740  0.32964  1.0000
  C   C339      1.0  0.56399  0.81782  0.36175  1.0000
  C   C340      1.0  0.51391  0.78907  0.27555  1.0000
  H   H336      1.0  0.50153  0.77648  0.33998  1.0000
  H   H337      1.0  0.56374  0.82550  0.27660  1.0000
  H   H338      1.0  0.53076  0.79194  0.39042  1.0000
  H   H339      1.0  0.59323  0.84217  0.32660  1.0000
  H   H340      1.0  0.57672  0.82502  0.38390  1.0000
  H   H341      1.0  0.51207  0.77049  0.26787  1.0000
  H   H342      1.0  0.49450  0.78605  0.28113  1.0000
  H   H343      1.0  0.52122  0.80245  0.25376  1.0000
  H   H344      1.0  0.62563  0.61006  0.49163  1.0000
  C   C341      1.0  0.58021  0.68957  0.00843  1.0000
  C   C342      1.0  0.41107  0.83942  0.02618  1.0000
  H   H345      1.0  0.40155  0.52712  0.35440  1.0000
  C   C343      1.0  0.60790  0.96879  0.42595  1.0000
  C   C344      1.0  0.46281  0.59062  0.42487  1.0000
  C   C345      1.0  0.51586  0.74523  0.01553  1.0000
  C   C346      1.0  0.48540  0.91654  0.05393  1.0000
  N   N27       1.0  0.45980  0.90478  0.06137  1.0000
  H   H346      1.0  0.42904  0.84479  0.40534  1.0000
  C   C347      1.0  0.40572  0.54069  0.37514  1.0000
  C   C348      1.0  0.38932  0.86327  0.43977  1.0000
  H   H347      1.0  0.33459  0.82500  0.47129  1.0000
  N   N28       1.0  0.43607  0.57372  0.41331  1.0000
  H   H348      1.0  0.49905  0.91610  0.07173  1.0000
  H   H349      1.0  0.37534  0.56013  0.42922  1.0000
  N   N29       1.0  0.37406  0.84185  0.45837  1.0000
  H   H350      1.0  0.44649  0.55534  0.37560  1.0000
  H   H351      1.0  0.36602  0.52989  0.38088  1.0000
  H   H352      1.0  0.43064  0.52243  0.08109  1.0000
  H   H353      1.0  0.35275  0.49511  0.20043  1.0000
  C   C349      1.0  0.58200  0.73645  0.00832  1.0000
  H   H354      1.0  0.60264  0.98368  0.13952  1.0000
  H   H355      1.0  0.51466  0.93798  0.01720  1.0000
  C   C350      1.0  0.52253  0.76746  0.47620  1.0000
  C   C351      1.0  0.56649  0.69512  0.03201  1.0000
  C   C352      1.0  0.53934  0.79117  0.00304  1.0000
  C   C353      1.0  0.49436  0.92906  0.02307  1.0000
  C   C354      1.0  0.45099  0.91820  0.00804  1.0000
  C   C355      1.0  0.44329  0.88667  0.49202  1.0000
  C   C356      1.0  0.47697  0.92974  0.99993  1.0000
  H   H356      1.0  0.45027  0.90547  0.48121  1.0000
  H   H357      1.0  0.56137  0.99177  0.07692  1.0000
  C   C357      1.0  0.42166  0.50009  0.03481  1.0000
  C   C358      1.0  0.39991  0.53758  0.49451  1.0000
  H   H358      1.0  0.47311  0.86392  0.00239  1.0000
  C   C359      1.0  0.46425  0.54251  0.00811  1.0000
  H   H359      1.0  0.41628  0.78600  0.01654  1.0000
  C   C360      1.0  0.45323  0.85900  0.00138  1.0000
  N   N30       1.0  0.42775  0.49979  0.00161  1.0000
  C   C361      1.0  0.40167  0.84676  0.99807  1.0000
  N   N31       1.0  0.56808  0.99354  0.48667  1.0000
  H   H360      1.0  0.59877  0.49999  0.49007  1.0000
  H   H361      1.0  0.38179  0.84213  0.99702  1.0000
  Fe  Fe56      1.0  0.34529  0.90957  0.58442  1.0000
  S   S113      1.0  0.38008  0.90817  0.60192  1.0000
  C   C362      1.0  0.39736  0.97419  0.93696  1.0000
  Fe  Fe57      1.0  0.37293  0.88332  0.55578  1.0000
  C   C363      1.0  0.40122  0.53759  0.99437  1.0000
  H   H362      1.0  0.56320  0.80098  0.95899  1.0000
  Fe  Fe58      1.0  0.36808  0.86673  0.93138  1.0000
  S   S114      1.0  0.34830  0.87420  0.97400  1.0000
  S   S115      1.0  0.40769  0.87072  0.93613  1.0000
  H   H363      1.0  0.39910  0.56811  0.52212  1.0000
  S   S116      1.0  0.34539  0.93826  0.94650  1.0000
  S   S117      1.0  0.36482  0.89414  0.89557  1.0000
  Fe  Fe59      1.0  0.51844  0.64423  0.61568  1.0000
  S   S118      1.0  0.55437  0.68013  0.59954  1.0000
  S   S119      1.0  0.49905  0.63119  0.66729  1.0000
  Fe  Fe60      1.0  0.50883  0.62022  0.54359  1.0000
  S   S120      1.0  0.54418  0.65429  0.52292  1.0000
  H   H364      1.0  0.39087  0.97870  0.66055  1.0000
  Fe  Fe61      1.0  0.56349  0.65258  0.57158  1.0000
  S   S121      1.0  0.60064  0.65107  0.57858  1.0000
  Fe  Fe62      1.0  0.53180  0.67873  0.55185  1.0000
  H   H365      1.0  0.38786  0.53536  0.58301  1.0000
  S   S122      1.0  0.52881  0.61738  0.59025  1.0000
  S   S123      1.0  0.49517  0.64393  0.57009  1.0000
  Fe  Fe63      1.0  0.52402  0.67992  0.94344  1.0000
  S   S124      1.0  0.49464  0.65669  0.90223  1.0000
  C   C364      1.0  0.45363  0.56680  0.50483  1.0000
  Fe  Fe64      1.0  0.55327  0.65003  0.93163  1.0000
  S   S125      1.0  0.52585  0.62523  0.89044  1.0000
  S   S126      1.0  0.58999  0.64979  0.94705  1.0000
  Fe  Fe65      1.0  0.52807  0.66135  0.87120  1.0000
  S   S127      1.0  0.54077  0.67609  0.81725  1.0000
  Fe  Fe66      1.0  0.49471  0.62233  0.92481  1.0000
  S   S128      1.0  0.45929  0.58246  0.93087  1.0000
  S   S129      1.0  0.55747  0.68681  0.91112  1.0000
  S   S130      1.0  0.52217  0.64487  0.96741  1.0000
  H   H366      1.0  0.64599  0.61199  0.94705  1.0000
  S   S131      1.0  0.34840  0.84663  0.58355  1.0000
  H   H367      1.0  0.35029  0.98814  0.95153  1.0000
  S   S132      1.0  0.63264  0.52953  0.59801  1.0000
  H   H368      1.0  0.35738  0.83781  0.50661  1.0000
  C   C365      1.0  0.35324  0.92897  0.83512  1.0000
  C   C366      1.0  0.59617  0.62413  0.94022  1.0000
  C   C367      1.0  0.57743  0.60031  0.92664  1.0000
  C   C368      1.0  0.58342  0.58085  0.92041  1.0000
  C   C369      1.0  0.60817  0.58480  0.92764  1.0000
  C   C370      1.0  0.49560  0.80677  0.52341  1.0000
  H   H369      1.0  0.56594  0.58604  0.84874  1.0000
  H   H370      1.0  0.55832  0.59689  0.92089  1.0000
  C   C371      1.0  0.32794  0.86156  0.78535  1.0000
  C   C372      1.0  0.38996  0.97186  0.84115  1.0000
  H   H371      1.0  0.44660  0.59399  0.53100  1.0000
  H   H372      1.0  0.41009  0.98575  0.83691  1.0000
  C   C373      1.0  0.38559  0.98267  0.55150  1.0000
  C   C374      1.0  0.34924  0.96063  0.86594  1.0000
  H   H373      1.0  0.40031  0.95800  0.93440  1.0000
  H   H374      1.0  0.59073  0.68630  0.83936  1.0000
  C   C375      1.0  0.60446  0.62540  0.56288  1.0000
  C   C376      1.0  0.60760  0.60915  0.58559  1.0000
  C   C377      1.0  0.61739  0.59340  0.57456  1.0000
  C   C378      1.0  0.62448  0.59401  0.54070  1.0000
  Fe  Fe67      1.0  0.64316  0.49707  0.94142  1.0000
  C   C379      1.0  0.61038  0.62493  0.52879  1.0000
  H   H375      1.0  0.60362  0.60969  0.61214  1.0000
  H   H376      1.0  0.62046  0.58167  0.59252  1.0000
  C   C380      1.0  0.58488  0.50088  0.50748  1.0000
  C   C381      1.0  0.43646  0.80231  0.97022  1.0000
  C   C382      1.0  0.51153  0.64350  0.70884  1.0000
  C   C383      1.0  0.49700  0.63020  0.73724  1.0000
  C   C384      1.0  0.50574  0.63957  0.77059  1.0000
  C   C385      1.0  0.52906  0.66260  0.77595  1.0000
  C   C386      1.0  0.54367  0.67577  0.74757  1.0000
  C   C387      1.0  0.53507  0.66626  0.71427  1.0000
  H   H377      1.0  0.47873  0.61263  0.73344  1.0000
  H   H378      1.0  0.49419  0.62925  0.79204  1.0000
  H   H379      1.0  0.56170  0.69362  0.75132  1.0000
  H   H380      1.0  0.54647  0.67677  0.69279  1.0000
  H   H381      1.0  0.46390  0.53589  0.55817  1.0000
  H   H382      1.0  0.47903  0.76151  0.55364  1.0000
  H   H383      1.0  0.61207  0.50023  0.81445  1.0000
  S   S133      1.0  0.65169  0.51959  0.52477  1.0000
  C   C388      1.0  0.46934  0.54611  0.58311  1.0000
  C   C389      1.0  0.42492  0.83781  0.51877  1.0000
  H   H384      1.0  0.45649  0.87614  0.95246  1.0000
  H   H385      1.0  0.55204  0.75606  0.94556  1.0000
  C   C390      1.0  0.37492  0.97897  0.85963  1.0000
  H   H386      1.0  0.65389  0.66632  0.61995  1.0000
  C   C391      1.0  0.62689  0.60860  0.94134  1.0000
  N   N32       1.0  0.47935  0.80913  0.96772  1.0000
  C   C392      1.0  0.35032  0.86562  0.72108  1.0000
  H   H387      1.0  0.48879  0.56324  0.57976  1.0000
  H   H388      1.0  0.33793  0.96602  0.88149  1.0000
  C   C393      1.0  0.37269  0.96985  0.94344  1.0000
  N   N33       1.0  0.33882  0.93593  0.85408  1.0000
  C   C394      1.0  0.62089  0.62807  0.94763  1.0000
  C   C395      1.0  0.40766  0.54639  0.59227  1.0000
  C   C396      1.0  0.44372  0.86583  0.97299  1.0000
  H   H389      1.0  0.53874  0.96105  0.51191  1.0000
  C   C397      1.0  0.42208  0.87648  0.51363  1.0000
  C   C398      1.0  0.41802  0.86006  0.97138  1.0000
  H   H390      1.0  0.60651  0.74551  0.96493  1.0000
  H   H391      1.0  0.56666  0.59659  0.80562  1.0000
  C   C399      1.0  0.36871  0.97900  0.57776  1.0000
  S   S134      1.0  0.34649  0.94786  0.59334  1.0000
  S   S135      1.0  0.33921  0.88647  0.53626  1.0000
  H   H392      1.0  0.47054  0.53358  0.60268  1.0000
  H   H393      1.0  0.38510  0.96616  0.53975  1.0000
  C   C400      1.0  0.45964  0.81111  0.95322  1.0000
  S   S136      1.0  0.33212  0.83176  0.91105  1.0000
  C   C401      1.0  0.41322  0.85217  0.52753  1.0000
  H   H394      1.0  0.33639  0.81103  0.72460  1.0000
  H   H395      1.0  0.39703  0.84420  0.54439  1.0000
  C   C402      1.0  0.35133  0.86204  0.78300  1.0000
  C   C403      1.0  0.36232  0.86385  0.75101  1.0000
  H   H396      1.0  0.36048  0.86004  0.80566  1.0000
  H   H397      1.0  0.37991  0.86321  0.74936  1.0000
  H   H398      1.0  0.57379  0.75168  0.51073  1.0000
  S   S137      1.0  0.62788  0.50872  0.89737  1.0000
  C   C404      1.0  0.51470  0.76435  0.56896  1.0000
  H   H399      1.0  0.50360  0.82767  0.52814  1.0000
  H   H400      1.0  0.51868  0.83731  0.96189  1.0000
  Fe  Fe68      1.0  0.32725  0.85997  0.87871  1.0000
  H   H401      1.0  0.50191  0.82189  0.92270  1.0000
  S   S138      1.0  0.36274  0.86363  0.68124  1.0000
  H   H402      1.0  0.44769  0.59920  0.64017  1.0000
  C   C405      1.0  0.41989  0.98876  0.62294  1.0000
  C   C406      1.0  0.59494  0.70789  0.98441  1.0000
  H   H403      1.0  0.47845  0.58583  0.62308  1.0000
  S   S139      1.0  0.40586  0.89377  0.51964  1.0000
  Fe  Fe69      1.0  0.35234  0.87179  0.62852  1.0000
  C   C407      1.0  0.44898  0.52047  0.98828  1.0000
  H   H404      1.0  0.46181  0.81979  0.92856  1.0000
  H   H405      1.0  0.41206  0.53568  0.94297  1.0000
  Fe  Fe70      1.0  0.63281  0.49672  0.57090  1.0000
  H   H406      1.0  0.41760  0.81877  0.52897  1.0000
  S   S140      1.0  0.48729  0.58434  0.51039  1.0000
  C   C408      1.0  0.43803  0.57583  0.51730  1.0000
  C   C409      1.0  0.62023  0.60935  0.51783  1.0000
  N   N34       1.0  0.58267  0.62658  0.84245  1.0000
  C   C410      1.0  0.60543  0.63220  0.85796  1.0000
  C   C411      1.0  0.57768  0.64579  0.83498  1.0000
  C   C412      1.0  0.62326  0.65743  0.86814  1.0000
  H   H407      1.0  0.63557  0.64637  0.95818  1.0000
  Fe  Fe71      1.0  0.34261  0.89933  0.93681  1.0000
  C   C413      1.0  0.56391  0.59999  0.83252  1.0000
  H   H408      1.0  0.60961  0.61705  0.86357  1.0000
  C   C414      1.0  0.37906  0.94672  0.82862  1.0000
  C   C415      1.0  0.61789  0.67700  0.86172  1.0000
  C   C416      1.0  0.49981  0.77377  0.55441  1.0000
  S   S141      1.0  0.64104  0.57832  0.52603  1.0000
  H   H409      1.0  0.58495  0.51914  0.50333  1.0000
  H   H410      1.0  0.57386  0.81533  0.55278  1.0000
  C   C417      1.0  0.52655  0.73953  0.98754  1.0000
  C   C418      1.0  0.53759  0.81262  0.53989  1.0000
  C   C419      1.0  0.43875  0.57223  0.96634  1.0000
  C   C420      1.0  0.54992  0.78547  0.97494  1.0000
  H   H411      1.0  0.41940  0.52288  0.56602  1.0000
  C   C421      1.0  0.53324  0.73773  0.50513  1.0000
  N   N35       1.0  0.45084  0.55383  0.59311  1.0000
  C   C422      1.0  0.41561  0.56810  0.61287  1.0000
  S   S142      1.0  0.52222  0.70833  0.52800  1.0000
  H   H412      1.0  0.56873  0.56251  0.90998  1.0000
  H   H413      1.0  0.54390  0.59609  0.83560  1.0000
  C   C423      1.0  0.54360  0.75992  0.96718  1.0000
  H   H414      1.0  0.54675  0.83102  0.52718  1.0000
  N   N36       1.0  0.51132  0.79771  0.54036  1.0000
  H   H415      1.0  0.50565  0.74498  0.57891  1.0000
  H   H416      1.0  0.60872  0.63772  0.51112  1.0000
  S   S143      1.0  0.51914  0.70697  0.98079  1.0000
  H   H417      1.0  0.64075  0.66157  0.88175  1.0000
  H   H418      1.0  0.34500  0.90948  0.82545  1.0000
  H   H419      1.0  0.60523  0.70353  0.96559  1.0000
  C   C424      1.0  0.42562  0.53942  0.58270  1.0000
  Fe  Fe72      1.0  0.64545  0.54786  0.92245  1.0000
  C   C425      1.0  0.44122  0.58232  0.62398  1.0000
  C   C426      1.0  0.41119  0.56116  0.51225  1.0000
  H   H420      1.0  0.41320  0.96889  0.61584  1.0000
  H   H421      1.0  0.51066  0.80486  0.95202  1.0000
  C   C427      1.0  0.41679  0.54747  0.96566  1.0000
  H   H422      1.0  0.55321  0.77195  0.57876  1.0000
  H   H423      1.0  0.55992  0.64147  0.82188  1.0000
  C   C428      1.0  0.50377  0.81881  0.95007  1.0000
  H   H424      1.0  0.40200  0.57396  0.62016  1.0000
  C   C429      1.0  0.59510  0.67124  0.84470  1.0000
  C   C430      1.0  0.45863  0.57475  0.61403  1.0000
  H   H425      1.0  0.45367  0.52051  0.96183  1.0000
  S   S144      1.0  0.61446  0.55953  0.91811  1.0000
  H   H426      1.0  0.39052  0.94084  0.81432  1.0000
  H   H427      1.0  0.63128  0.69655  0.87006  1.0000
  C   C431      1.0  0.54149  0.77952  0.56884  1.0000
  C   C432      1.0  0.55306  0.80384  0.55431  1.0000
  C   C433      1.0  0.44455  0.58738  0.99573  1.0000
  H   H428      1.0  0.59217  0.50121  0.53366  1.0000
  H   H429      1.0  0.42107  0.80447  0.95910  1.0000
  H   H430      1.0  0.48353  0.93890  0.97560  1.0000
  C   C434      1.0  0.55939  0.75581  0.50105  1.0000
  C   C435      1.0  0.40737  0.99430  0.64819  1.0000
  C   C436      1.0  0.32757  0.86640  0.72362  1.0000
  H   H431      1.0  0.43715  0.91800  0.98987  1.0000
  H   H432      1.0  0.47549  0.79680  0.53259  1.0000
  C   C437      1.0  0.36926  0.99123  0.94646  1.0000
  H   H433      1.0  0.38462  0.51839  0.99359  1.0000
  Fe  Fe73      1.0  0.65369  0.55299  0.55337  1.0000
  C   C438      1.0  0.59572  0.73142  0.98412  1.0000
  S   S145      1.0  0.65849  0.53490  0.96867  1.0000
  H   H434      1.0  0.60147  0.99109  0.49865  1.0000
  H   H435      1.0  0.46131  0.60652  0.99654  1.0000
  H   H436      1.0  0.48024  0.55935  0.99690  1.0000
  H   H437      1.0  0.82870  0.39722  0.45701  1.0000
  C   C439      1.0  0.79603  0.24128  0.06130  1.0000
  S   S146      1.0  0.68967  0.12514  0.07707  1.0000
  H   H438      1.0  0.83633  0.39922  0.04276  1.0000
  Fe  Fe74      1.0  0.68337  0.15344  0.04716  1.0000
  C   C440      1.0  0.80024  0.44260  0.00552  1.0000
  C   C441      1.0  0.74212  0.20906  0.00059  1.0000
  H   H439      1.0  0.80089  0.22628  0.06307  1.0000
  Fe  Fe75      1.0  0.68840  0.14454  0.42996  1.0000
  H   H440      1.0  0.89508  0.45273  0.41335  1.0000
  S   S147      1.0  0.73087  0.17534  0.44223  1.0000
  C   C442      1.0  0.71080  0.18978  0.35847  1.0000
  C   C443      1.0  0.78304  0.27901  0.05327  1.0000
  S   S148      1.0  0.88789  0.49046  0.01104  1.0000
  S   S149      1.0  0.68201  0.11838  0.38478  1.0000
  H   H441      1.0  0.73598  0.16090  0.36967  1.0000
  H   H442      1.0  0.85725  0.48106  0.24339  1.0000
  S   S150      1.0  0.84225  0.44829  0.43731  1.0000
  H   H443      1.0  0.71335  0.19198  0.38581  1.0000
  C   C444      1.0  0.74825  0.20411  0.46752  1.0000
  N   N37       1.0  0.80659  0.28347  0.04309  1.0000
  H   H444      1.0  0.77749  0.29335  0.04936  1.0000
  C   C445      1.0  0.68777  0.18956  0.30783  1.0000
  C   C446      1.0  0.73601  0.21396  0.48733  1.0000
  H   H445      1.0  0.75810  0.21794  0.08188  1.0000
  H   H446      1.0  0.78520  0.21006  0.45268  1.0000
  H   H447      1.0  0.89106  0.41564  0.44527  1.0000
  C   C447      1.0  0.85004  0.41293  0.02527  1.0000
  H   H448      1.0  0.71519  0.20419  0.48737  1.0000
  C   C448      1.0  0.77541  0.21736  0.46787  1.0000
  H   H449      1.0  0.83119  0.26790  0.03686  1.0000
  Fe  Fe76      1.0  0.85811  0.49098  0.42953  1.0000
  H   H450      1.0  0.75606  0.19504  0.37643  1.0000
  C   C449      1.0  0.78727  0.44264  0.46921  1.0000
  H   H451      1.0  0.67212  0.19070  0.29563  1.0000
  C   C450      1.0  0.72207  0.18001  0.30529  1.0000
  S   S151      1.0  0.66320  0.11090  0.46298  1.0000
  C   C451      1.0  0.81309  0.26488  0.04659  1.0000
  H   H452      1.0  0.67160  0.04990  0.10496  1.0000
  H   H453      1.0  0.85317  0.44601  0.05170  1.0000
  C   C452      1.0  0.66604  0.12700  0.21221  1.0000
  C   C453      1.0  0.76546  0.25556  0.06792  1.0000
  H   H454      1.0  0.78853  0.42522  0.46343  1.0000
  C   C454      1.0  0.83924  0.41007  0.47802  1.0000
  C   C455      1.0  0.90453  0.45572  0.43796  1.0000
  C   C456      1.0  0.67613  0.12130  0.24113  1.0000
  C   C457      1.0  0.70320  0.18325  0.28883  1.0000
  H   H455      1.0  0.66307  0.07762  0.14241  1.0000
  H   H456      1.0  0.75977  0.18039  0.33889  1.0000
  H   H457      1.0  0.74643  0.25161  0.07491  1.0000
  H   H458      1.0  0.84458  0.31397  0.03252  1.0000
  H   H459      1.0  0.73329  0.17414  0.29043  1.0000
  H   H460      1.0  0.82083  0.32338  0.03318  1.0000
  H   H461      1.0  0.69971  0.17970  0.26172  1.0000
  C   C458      1.0  0.85959  0.43942  0.03047  1.0000
  H   H462      1.0  0.82147  0.30451  0.99800  1.0000
  Fe  Fe77      1.0  0.66479  0.12759  0.11758  1.0000
  C   C459      1.0  0.69149  0.19277  0.34288  1.0000
  H   H463      1.0  0.67893  0.19672  0.35799  1.0000
  N   N38       1.0  0.91306  0.43838  0.48800  1.0000
  H   H464      1.0  0.71086  0.48250  0.04737  1.0000
  H   H465      1.0  0.67047  0.47353  0.02268  1.0000
  C   C460      1.0  0.87707  0.45724  0.00774  1.0000
  H   H466      1.0  0.80622  0.49177  0.48698  1.0000
  C   C461      1.0  0.74542  0.17980  0.35680  1.0000
  C   C462      1.0  0.92964  0.48394  0.48427  1.0000
  C   C463      1.0  0.82417  0.30746  0.02590  1.0000
  H   H467      1.0  0.79582  0.45559  0.44724  1.0000
  S   S152      1.0  0.67878  0.12679  0.17182  1.0000
  N   N39       1.0  0.72591  0.18365  0.33964  1.0000
  C   C464      1.0  0.84839  0.43652  0.47517  1.0000
  H   H468      1.0  0.69111  0.11657  0.23824  1.0000
  H   H469      1.0  0.76673  0.43706  0.47134  1.0000
  H   H470      1.0  0.75274  0.18015  0.00628  1.0000
  C   C465      1.0  0.90219  0.43481  0.45627  1.0000
  S   S153      1.0  0.71187  0.19207  0.02153  1.0000
  S   S154      1.0  0.66064  0.15781  0.08943  1.0000
  C   C466      1.0  0.77205  0.23661  0.07193  1.0000
  C   C467      1.0  0.79013  0.23989  0.48788  1.0000
  H   H471      1.0  0.78679  0.43487  0.02617  1.0000
  C   C468      1.0  0.91835  0.48041  0.45213  1.0000
  H   H472      1.0  0.80713  0.48091  0.01230  1.0000
  C   C469      1.0  0.66700  0.12162  0.27381  1.0000
  H   H473      1.0  0.67500  0.11727  0.29578  1.0000
  H   H474      1.0  0.81094  0.24962  0.48795  1.0000
  C   C470      1.0  0.67823  0.49415  0.01683  1.0000
  C   C471      1.0  0.75866  0.19923  0.99715  1.0000
  C   C472      1.0  0.81196  0.46871  0.99768  1.0000
  C   C473      1.0  0.85796  0.40410  0.99749  1.0000
  Fe  Fe78      1.0  0.85000  0.33455  0.87480  1.0000
  S   S155      1.0  0.86855  0.31119  0.88578  1.0000
  S   S156      1.0  0.83472  0.33749  0.82272  1.0000
  Fe  Fe79      1.0  0.85698  0.35356  0.94899  1.0000
  S   S157      1.0  0.87729  0.33218  0.96393  1.0000
  C   C474      1.0  0.80643  0.42674  0.98702  1.0000
  Fe  Fe80      1.0  0.89869  0.34649  0.91468  1.0000
  S   S158      1.0  0.94022  0.36411  0.89568  1.0000
  Fe  Fe81      1.0  0.84523  0.29928  0.93385  1.0000
  S   S159      1.0  0.82310  0.25785  0.95386  1.0000
  S   S160      1.0  0.88028  0.37015  0.90212  1.0000
  S   S161      1.0  0.82455  0.32019  0.92048  1.0000
  Fe  Fe82      1.0  0.86037  0.36629  0.57646  1.0000
  S   S162      1.0  0.86324  0.34620  0.53037  1.0000
  S   S163      1.0  0.86188  0.40470  0.57400  1.0000
  Fe  Fe83      1.0  0.86329  0.32800  0.62510  1.0000
  S   S164      1.0  0.86709  0.30570  0.58149  1.0000
  S   S165      1.0  0.86547  0.31380  0.67814  1.0000
  Fe  Fe84      1.0  0.89500  0.34485  0.56012  1.0000
  S   S166      1.0  0.93394  0.36186  0.53389  1.0000
  Fe  Fe85      1.0  0.83509  0.30906  0.55583  1.0000
  H   H475      1.0  0.82165  0.44232  0.57433  1.0000
  S   S167      1.0  0.89304  0.36648  0.60511  1.0000
  S   S168      1.0  0.83032  0.32976  0.60076  1.0000
  C   C475      1.0  0.85681  0.41642  0.53544  1.0000
  H   H476      1.0  0.93458  0.38895  0.70174  1.0000
  H   H477      1.0  0.87624  0.45564  0.55372  1.0000
  C   C476      1.0  0.80551  0.23234  0.58029  1.0000
  S   S169      1.0  0.84437  0.37061  0.99087  1.0000
  H   H478      1.0  0.79345  0.27317  0.61094  1.0000
  H   H479      1.0  0.91707  0.35408  0.70197  1.0000
  H   H480      1.0  0.98462  0.39747  0.50998  1.0000
  C   C477      1.0  0.79812  0.25882  0.62119  1.0000
  C   C478      1.0  0.82678  0.47932  0.56099  1.0000
  C   C479      1.0  0.96877  0.36419  0.58344  1.0000
  C   C480      1.0  0.76999  0.19605  0.55142  1.0000
  C   C481      1.0  0.91381  0.37518  0.81773  1.0000
  H   H481      1.0  0.80988  0.20863  0.54280  1.0000
  H   H482      1.0  0.83633  0.37961  0.50993  1.0000
  C   C482      1.0  0.84329  0.33054  0.78277  1.0000
  C   C483      1.0  0.85744  0.31803  0.78001  1.0000
  C   C484      1.0  0.86370  0.31278  0.74777  1.0000
  C   C485      1.0  0.85633  0.32034  0.71795  1.0000
  C   C486      1.0  0.84246  0.33311  0.72073  1.0000
  C   C487      1.0  0.83578  0.33794  0.75296  1.0000
  H   H483      1.0  0.86357  0.31241  0.80265  1.0000
  H   H484      1.0  0.87452  0.30297  0.74591  1.0000
  H   H485      1.0  0.83663  0.33903  0.69805  1.0000
  H   H486      1.0  0.82481  0.34760  0.75479  1.0000
  H   H487      1.0  0.79805  0.40659  0.99334  1.0000
  H   H488      1.0  0.93553  0.46539  0.52704  1.0000
  C   C488      1.0  0.87575  0.42197  0.97511  1.0000
  C   C489      1.0  0.79646  0.21179  0.55712  1.0000
  C   C490      1.0  0.77789  0.24957  0.50802  1.0000
  H   H489      1.0  0.93977  0.35673  0.75581  1.0000
  C   C491      1.0  0.97179  0.37970  0.91463  1.0000
  C   C492      1.0  0.97612  0.37907  0.94948  1.0000
  H   H490      1.0  0.81935  0.26869  0.62527  1.0000
  H   H491      1.0  0.95989  0.36927  0.96610  1.0000
  C   C493      1.0  0.79154  0.23940  0.97103  1.0000
  C   C494      1.0  0.96518  0.37314  0.55232  1.0000
  C   C495      1.0  0.86597  0.44285  0.53257  1.0000
  H   H492      1.0  0.88205  0.41542  0.95370  1.0000
  H   H493      1.0  0.95217  0.35062  0.59756  1.0000
  C   C496      1.0  0.81810  0.45328  0.55545  1.0000
  H   H494      1.0  0.99027  0.39306  0.86654  1.0000
  H   H495      1.0  0.82611  0.24497  0.58374  1.0000
  H   H496      1.0  0.78080  0.26822  0.96510  1.0000
  S   S170      1.0  0.79523  0.27686  0.53588  1.0000
  C   C497      1.0  0.90024  0.38332  0.79740  1.0000
  C   C498      1.0  0.98710  0.39051  0.53415  1.0000
  H   H497      1.0  0.73775  0.24181  0.99080  1.0000
  C   C499      1.0  0.83586  0.46341  0.95425  1.0000
  C   C500      1.0  0.90132  0.38189  0.76209  1.0000
  H   H498      1.0  0.82984  0.42514  0.94736  1.0000
  H   H499      1.0  0.74094  0.24377  0.52257  1.0000
  C   C501      1.0  0.76265  0.22172  0.59184  1.0000
  H   H500      1.0  0.78904  0.25235  0.64628  1.0000
  H   H501      1.0  0.83690  0.48875  0.58441  1.0000
  H   H502      1.0  0.88844  0.39007  0.80897  1.0000
  N   N40       1.0  0.80102  0.25015  0.86572  1.0000
  C   C502      1.0  0.78094  0.23519  0.88643  1.0000
  C   C503      1.0  0.80226  0.27091  0.84991  1.0000
  C   C504      1.0  0.76121  0.24063  0.89138  1.0000
  C   C505      1.0  0.78290  0.27695  0.85435  1.0000
  C   C506      1.0  0.76228  0.26170  0.87528  1.0000
  C   C507      1.0  0.82182  0.24445  0.86187  1.0000
  H   H503      1.0  0.78043  0.21929  0.89995  1.0000
  H   H504      1.0  0.81837  0.28312  0.83395  1.0000
  H   H505      1.0  0.74551  0.22886  0.90823  1.0000
  H   H506      1.0  0.78418  0.29363  0.84200  1.0000
  H   H507      1.0  0.74731  0.26637  0.87929  1.0000
  H   H508      1.0  0.81384  0.22343  0.85849  1.0000
  H   H509      1.0  0.83382  0.25419  0.83952  1.0000
  H   H510      1.0  0.83447  0.25103  0.88492  1.0000
  H   H511      1.0  0.93859  0.35914  0.81865  1.0000
  H   H512      1.0  0.91318  0.37616  0.84512  1.0000
  C   C508      1.0  0.91690  0.37162  0.71049  1.0000
  C   C509      1.0  0.92869  0.36431  0.76733  1.0000
  N   N41       1.0  0.91528  0.37229  0.74751  1.0000
  H   H513      1.0  0.89986  0.37073  0.69773  1.0000
  C   C510      1.0  0.92812  0.36559  0.80273  1.0000
  H   H514      1.0  0.89879  0.46211  0.96259  1.0000
  H   H515      1.0  0.89039  0.38791  0.74647  1.0000
  C   C511      1.0  0.77484  0.24906  0.97388  1.0000
  C   C512      1.0  0.86200  0.45290  0.50249  1.0000
  N   N42       1.0  0.78862  0.23694  0.59749  1.0000
  H   H516      1.0  0.79573  0.20644  0.98027  1.0000
  H   H517      1.0  0.73239  0.18943  0.56366  1.0000
  C   C513      1.0  0.75033  0.23396  0.98839  1.0000
  H   H518      1.0  0.74934  0.22602  0.60443  1.0000
  H   H519      1.0  0.76272  0.18065  0.53256  1.0000
  C   C514      1.0  0.82241  0.49319  0.53622  1.0000
  C   C515      1.0  0.82422  0.43713  0.96107  1.0000
  C   C516      1.0  0.75294  0.20098  0.56890  1.0000
  C   C517      1.0  0.84361  0.40006  0.50793  1.0000
  C   C518      1.0  0.92687  0.46258  0.50194  1.0000
  C   C519      1.0  0.80952  0.48081  0.50606  1.0000
  H   H520      1.0  0.79889  0.42134  0.52071  1.0000
  N   N43       1.0  0.82960  0.47880  0.97240  1.0000
  C   C520      1.0  0.78312  0.21427  0.98240  1.0000
  C   C521      1.0  0.88523  0.44841  0.98023  1.0000
  H   H521      1.0  0.90983  0.41886  0.53444  1.0000
  C   C522      1.0  0.91075  0.41631  0.50664  1.0000
  C   C523      1.0  0.75073  0.23651  0.50730  1.0000
  H   H522      1.0  0.92738  0.41369  0.50143  1.0000
  H   H523      1.0  0.89270  0.39832  0.49942  1.0000
  H   H524      1.0  0.85057  0.47162  0.93512  1.0000
  C   C524      1.0  0.80523  0.44150  0.52500  1.0000
  H   H525      1.0  0.86925  0.47326  0.50069  1.0000
  N   N44       1.0  0.80137  0.45536  0.50063  1.0000
  H   H526      1.0  0.76339  0.55776  0.08750  1.0000
  S   S171      1.0  0.88040  0.54695  0.03341  1.0000
  Fe  Fe86      1.0  0.86461  0.51908  0.12445  1.0000
  S   S172      1.0  0.86544  0.55555  0.10996  1.0000
  C   C525      1.0  0.97949  0.58148  0.43861  1.0000
  Fe  Fe87      1.0  0.84360  0.53441  0.06165  1.0000
  S   S173      1.0  0.80532  0.52476  0.03398  1.0000
  Fe  Fe88      1.0  0.90201  0.56457  0.08241  1.0000
  S   S174      1.0  0.94043  0.60223  0.08987  1.0000
  C   C526      1.0  0.96643  0.56981  0.14766  1.0000
  S   S175      1.0  0.90172  0.52900  0.09894  1.0000
  Fe  Fe89      1.0  0.90767  0.54315  0.43432  1.0000
  S   S176      1.0  0.88966  0.51330  0.39252  1.0000
  S   S177      1.0  0.94923  0.55397  0.44856  1.0000
  Fe  Fe90      1.0  0.85403  0.53721  0.45165  1.0000
  C   C527      1.0  0.85075  0.58648  0.37968  1.0000
  C   C528      1.0  0.78064  0.53949  0.39035  1.0000
  C   C529      1.0  0.93917  0.57652  0.18547  1.0000
  Fe  Fe91      1.0  0.86720  0.53243  0.37792  1.0000
  S   S178      1.0  0.86220  0.54588  0.32558  1.0000
  S   S179      1.0  0.87672  0.51953  0.47196  1.0000
  S   S180      1.0  0.88693  0.56387  0.41791  1.0000
  C   C530      1.0  0.81216  0.57629  0.42523  1.0000
  S   S181      1.0  0.84065  0.49713  0.07837  1.0000
  H   H527      1.0  0.94026  0.50314  0.49536  1.0000
  H   H528      1.0  0.78344  0.59177  0.00469  1.0000
  S   S182      1.0  0.83353  0.50713  0.41108  1.0000
  C   C531      1.0  0.85893  0.51343  0.21787  1.0000
  C   C532      1.0  0.86076  0.53733  0.22258  1.0000
  C   C533      1.0  0.86186  0.54695  0.25566  1.0000
  C   C534      1.0  0.86148  0.53303  0.28447  1.0000
  C   C535      1.0  0.85661  0.60159  0.40899  1.0000
  C   C536      1.0  0.79404  0.56327  0.01648  1.0000
  H   H529      1.0  0.86111  0.54830  0.20076  1.0000
  H   H530      1.0  0.86298  0.56532  0.25894  1.0000
  C   C537      1.0  0.98239  0.60580  0.43381  1.0000
  C   C538      1.0  0.75441  0.51729  0.48318  1.0000
  H   H531      1.0  0.73856  0.50292  0.46782  1.0000
  C   C539      1.0  0.86002  0.50930  0.27974  1.0000
  H   H532      1.0  0.93085  0.49836  0.18642  1.0000
  H   H533      1.0  0.76668  0.53887  0.40908  1.0000
  C   C540      1.0  0.92598  0.55024  0.19248  1.0000
  C   C541      1.0  0.82560  0.56614  0.37403  1.0000
  C   C542      1.0  0.97077  0.60599  0.07892  1.0000
  H   H534      1.0  0.87623  0.61690  0.41419  1.0000
  H   H535      1.0  0.95529  0.57218  0.04705  1.0000
  H   H536      1.0  0.79733  0.57232  0.44352  1.0000
  C   C543      1.0  0.77979  0.52274  0.47694  1.0000
  C   C544      1.0  0.78721  0.53739  0.01376  1.0000
  C   C545      1.0  0.83722  0.59649  0.43196  1.0000
  H   H537      1.0  0.96560  0.60793  0.43379  1.0000
  H   H538      1.0  0.73610  0.57373  0.06206  1.0000
  H   H539      1.0  0.81146  0.57670  0.03022  1.0000
  H   H540      1.0  0.93331  0.58911  0.19692  1.0000
  N   N45       1.0  0.93280  0.53414  0.17735  1.0000
  H   H541      1.0  0.91011  0.54281  0.20984  1.0000
  H   H542      1.0  0.86575  0.58998  0.36184  1.0000
  N   N46       1.0  0.80668  0.56133  0.39663  1.0000
  C   C546      1.0  0.70773  0.53644  0.04204  1.0000
  C   C547      1.0  0.95259  0.54356  0.15493  1.0000
  C   C548      1.0  0.97264  0.58847  0.05752  1.0000
  H   H543      1.0  0.77361  0.54081  0.36467  1.0000
  H   H544      1.0  0.82142  0.55405  0.35160  1.0000
  Fe  Fe92      1.0  0.87791  0.51054  0.05189  1.0000
  C   C549      1.0  0.73008  0.55347  0.06039  1.0000
  C   C550      1.0  0.95958  0.58633  0.16303  1.0000
  H   H545      1.0  0.66230  0.49812  0.02066  1.0000
  H   H546      1.0  0.95747  0.53071  0.14204  1.0000
  S   S183      1.0  0.83336  0.55040  0.48846  1.0000
  H   H547      1.0  0.78085  0.52120  0.39210  1.0000
  C   C551      1.0  0.91794  0.50640  0.18351  1.0000
  H   H548      1.0  0.78323  0.51266  0.45685  1.0000
  H   H549      1.0  0.84165  0.60760  0.45535  1.0000
  C   C552      1.0  0.74541  0.54453  0.07451  1.0000
  N   N47       1.0  0.70075  0.51116  0.03811  1.0000
  H   H550      1.0  0.85963  0.49831  0.30156  1.0000
  C   C553      1.0  0.77804  0.57179  0.00192  1.0000
  H   H551      1.0  0.69668  0.54387  0.02963  1.0000
  S   S184      1.0  0.85810  0.50052  0.17680  1.0000
  H   H552      1.0  0.90642  0.50202  0.20693  1.0000
  C   C554      1.0  0.73824  0.51875  0.07024  1.0000
  C   C555      1.0  0.71575  0.50224  0.05173  1.0000
  H   H553      1.0  0.96962  0.60660  0.15684  1.0000
  H   H554      1.0  0.75070  0.51194  0.07981  1.0000
  H   H555      1.0  0.98191  0.57723  0.12954  1.0000
  C   C556      1.0  0.80057  0.54144  0.49637  1.0000
  C   C557      1.0  0.85862  0.49954  0.24667  1.0000
  H   H556      1.0  0.92014  0.49678  0.43836  1.0000
  H   H557      1.0  0.90422  0.49653  0.16197  1.0000
  H   H558      1.0  0.68362  0.64737  0.53317  1.0000
  S   S185      1.0  0.68349  0.56263  0.89576  1.0000
  C   C558      1.0  0.76999  0.54859  0.52881  1.0000
  C   C559      1.0  0.84227  0.50627  0.96467  1.0000
  C   C560      1.0  0.66302  0.65647  0.60889  1.0000
  Fe  Fe93      1.0  0.69521  0.54638  0.94032  1.0000
  H   H559      1.0  0.82896  0.51345  0.54023  1.0000
  C   C561      1.0  0.79541  0.55424  0.52235  1.0000
  C   C562      1.0  0.66886  0.52195  0.77840  1.0000
  Fe  Fe94      1.0  0.68959  0.52921  0.55014  1.0000
  H   H560      1.0  0.73106  0.51553  0.96718  1.0000
  H   H561      1.0  0.83812  0.50897  0.93800  1.0000
  H   H562      1.0  0.68997  0.61696  0.56785  1.0000
  S   S186      1.0  0.68248  0.55795  0.67183  1.0000
  S   S187      1.0  0.68015  0.50787  0.91531  1.0000
  S   S188      1.0  0.69321  0.56498  0.57478  1.0000
  S   S189      1.0  0.67009  0.50419  0.59559  1.0000
  H   H563      1.0  0.68910  0.57919  0.73908  1.0000
  H   H564      1.0  0.68355  0.49713  0.98969  1.0000
  C   C563      1.0  0.75499  0.55470  0.98429  1.0000
  H   H565      1.0  0.66533  0.67220  0.55932  1.0000
  S   S190      1.0  0.73437  0.56618  0.96920  1.0000
  C   C564      1.0  0.67781  0.54819  0.77450  1.0000
  C   C565      1.0  0.68168  0.55878  0.74174  1.0000
  C   C566      1.0  0.68321  0.62864  0.57986  1.0000
  H   H566      1.0  0.76649  0.55870  0.54886  1.0000
  N   N48       1.0  0.67689  0.62552  0.61338  1.0000
  C   C567      1.0  0.67972  0.64589  0.56008  1.0000
  C   C568      1.0  0.67633  0.54329  0.71246  1.0000
  Fe  Fe95      1.0  0.67154  0.53929  0.61884  1.0000
  C   C569      1.0  0.74850  0.52894  0.98087  1.0000
  S   S191      1.0  0.71661  0.52268  0.51503  1.0000
  H   H567      1.0  0.81120  0.56877  0.53762  1.0000
  H   H568      1.0  0.67987  0.60961  0.66071  1.0000
  H   H569      1.0  0.83561  0.51665  0.98128  1.0000
  C   C570      1.0  0.66676  0.63903  0.62794  1.0000
  Fe  Fe96      1.0  0.66603  0.52281  0.87283  1.0000
  H   H570      1.0  0.86344  0.51526  0.96861  1.0000
  H   H571      1.0  0.66246  0.58667  0.62715  1.0000
  H   H572      1.0  0.66078  0.63583  0.65412  1.0000
  H   H573      1.0  0.68225  0.56042  0.79669  1.0000
  C   C571      1.0  0.66689  0.51696  0.71638  1.0000
  C   C572      1.0  0.67916  0.60612  0.63292  1.0000
  H   H574      1.0  0.69710  0.60607  0.62670  1.0000
  C   C573      1.0  0.74920  0.53012  0.50916  1.0000
  C   C574      1.0  0.66946  0.65979  0.57473  1.0000
  S   S192      1.0  0.66450  0.50751  0.81898  1.0000
  C   C575      1.0  0.66334  0.50643  0.74913  1.0000
  C   C576      1.0  0.76442  0.52040  0.99556  1.0000
  H   H575      1.0  0.75888  0.50037  0.99301  1.0000
  H   H576      1.0  0.66282  0.50480  0.69419  1.0000
