data_image0
_chemical_formula_structural       CHC3H3NHC2HC3H2C3H4C3HCHNCHFeS2FeSHFe3S3CFeSCSFeS2FeS2FeSFeS3FeS2CSCS2CH2C3HFeS2FeS2FeSCFeSFeS5NCNC2H3CHCH2C6H6C4HCH2C7H4C3H2CH2FeHC6H5C2H2C6H4C3H3CH3CFeSHNC6H4CH3CH2CH3CFeCHSC6H3NC6H9CH4CFeCNC2HNC6H6NFeSCSNH2CFeH2CH2C5H2CHCSH2CHCH3CHC2HSCH5SCHFeH2SH6C2SFeHCSH2CHFeS2FeHCFeNFeS3CFeSNFe2S2FeS2FeSFeS3FeS2HNCS2HSC2H2CFeS2FeS2FeS2FeSFeS3FeCHC2H2CHCHSCHC7H4CHCH2CHC2H2C6H4C3NHCH2CHC6H4C3NHC6H4CH2S2NC3H7CHC2H5CSCHNC4HCH3CH4CH2NC4H4CH2C2H2C2SNCSC2H2CFeHCHC2H5C2SHCNC2H3CHC2HCH2C6SCH2NCH2CH3CHSC2FeH2C3FeHCHFeH2CHFeCNHCSC2HSH2FeH3C3HCHCSC2HSCSHFeC2H5SHSC3HSCH2SCH4FeS2FeS2Fe2S3FeSHS2HC7H4C6H4C6HCH4C4NC5H5SC2FeCH2CSHCHSH2CHCNHCH3C2HCNC2HCHCHCH2NHNHS2HCHC2H3C6FeHCH4CSFeC2H2NCHCHCH2C2HCNCH2FeSCH2SCH2SCH3CSHSHC2H2CH2CH2FeSFeSFe2CS2FeS2HC4H2C3H2CH2C5HS3C6SC3HCHCH2NSHSC3H2CH2CHCNHCHCHNH6CH4C4H3FeC5NH3SC3HFeH3CH5SCH2C2HC2SCNCH2CH2CH2FeH3C5HCHC4HCHCHC2HC2H5C2H6CH2C2SNS3C3SHFeHC3FeS2FeS2FeSHSCFeS2FeS2FeSFeS3FeS2FeSHFeSHSFeHFeS2FeHFeS3CFeHC2H2C2H4C6H4C6H2C6S2H2C2H3NH3C6H4C3HC4H2CHCHC2H6C3H4C3HCHC3H2CH2NH3CH3C2H2CHNC7S2HNCNHC3HCHCNHCHC2HCHSHCHCH4C2SH2FeS2FeS2FeSHSNFeS2FeS2FeSFeS3FeS2FeSNFeSHSFeHFeS2FeSFeHS2H2CH2C2H6C6H4C6H2C8H2C3SCFeHS2C6H4CNH3CHC2HC2HC3HNH2SH2CH5C2H2C2NC6H7NC5H3SC3HCSCHCHCHC2H3CH2CH2CH2C3H6S4FeSHFeSFe2SFeS4CHFeCSHSC2HFeHFeSHCSFeSFeS3C6H4C2FeHSC2HNCNCSH2SCHCHC6H4C3FeC2HFeCHCH2C3H3C3SC2H2SHC6NH3CH2SC2H2C2HSHC2HNC3H3NH2CH2C2NC5H5CS2CHFeSH2CH3CHFeSFeHCHFeC2FeCS2CFeC2S2H3C2SNHFeSCSH3CH2CHCH2C2HSHC2H2CHCSCH5CNC4HCFeHCH2CHC2H3CHCHFeCH2SNCH2C4HCHCH3CHCH3SHCH3C2HCH2C2H2CNC3SH2NS4FeSFe2SCFeSFeS4CHCS2CNSHCHFeHSFeHCHCFeS3C6H4C2SCNCHCSH2C2NHFe2NHC7H4C2SC3H2CHCHC5H2C2SH2CHFeCHC2HC3HCH2CHCHC2SFeH2NH6CHC2FeC3SH2CSH2C2SHC2NC3SH3FeH5SHSHCSH3SCFeHCFeSC2FeCSH2C3H2CH3CSC2HCHC2H2NHNC3S2CHC2H3C2HCHC2H3CSH2SHCH6C2HC3SHCHCSC2H3CHNC4H4CH2CHCH2NCSH2FeHFeCH2CFeH2FeSH2SCHFe2CFeCHSHSCHFeSHFeSHFeSHSHFeS2FeSHFeSCSNC3HS2FeS2FeS2FeSFeS3FeSHSHCHC7H4C6H4C5H3SH2FeSH2C4HC3SH3C6H4C6HFeH2C6HSHCNC6H10CH4SHC2HS2CHCHNC5HSNH3NC6H2CHSC2H3NHFeSCHC3H3CFeCHC2H2CHCHCH3CH2C3H3NH4FeCS2NHC2NHCHFeSHFeSCFeSHSCFe2SFeSCFeSHSCH4S2FeS2FeS2FeSFeS3FeSHSHCH2C6H4C6H4C3H4SFeCSC2NCHCSCHC4H3C6H4C4HNH2CHC4HC2H2CH10CH2CHC2H2SHC4FeSCSCHCH2SNC5SCH3FeHNCNC6H7FeNC2H2C2HNHSCH3CHC2H9CSCH2CHNCHC2HC2FeS2FeS2FeCFeHS2C3FeSFeS2H2CH4CHC4SH2NHC2H6C2SHC3HC2HC6SNH3C6H2C3NH2SH2CHC5FeCH2CSHC2HSHCHCH2C2H5NH4FeS2FeCSFeHFeCS2C2HFeSFeS3HCHC2H2C2HC2HC2NHCHNHCHCH4C5H4SC5SH3C5H3C2H2CFeSHCNC6H8SCHNHCH3C3HC2HCSH2SH2C2SCSCH2CHC2HSC2HCHSNSHCH3SCHC3H2CHC4HCHNH3CHFeHCH3C3FeCHNH2C4SCH2CHC2H3C2HSHCSC3H5C2H2C2SHSC3H2CSH2CHCHCSHCHCH3C2HC2NHC3HCH2CHC2H2CHSCHCHCH2C4NH2CH2FeHCSCFeH2SHSCH4C2H3C3SHSCFeS2FeS2FeSFeS3C3HFeSH2CFeS2FeS2FeSFeS3C6H3C7H5NSH2C2HC6H4C2HNC2H4C6H4C6H4NH4CH3CH5C3HCH2NC6H9NFeHC3HC3H2CH3C3NH3C2HCHCHC2HCNCNH2CH5FeC4H2CH6C2HSHCH2CNH2SHFeS2FeS2FeSFeS3CH2CFeSH2SFeS2FeS2FeSFeS3C6H4C6H4C2NCH2C8H4C3HC2H4C6H4C6H4SC2HCH2CHNH2NC2H2SHCHCH2NC6H9CHC2H3CHC2H5SH3CH2C2HC2HNCH2C3NC5H3C2HCH2CSHC3SHFeSFe2CS2CFeCHNSC2H2S2C2SCFeCH2FeHCHCH3CSCH2C4H3CH2N2H2CSHCSHC3H2CSCFeSFe2CS2CFeC5SH2CFeH2FeHCHCHC2SH3CSHCHNCSH3SH3CHSC2HCHC3H2SHFeSFeS2FeS2FeSFeS3FeSHFeS2FeSFeS3FeS4C2HC2H2CH2C8H4C6H4C6H4C6H6NSC6H5N2HCFeHC3H2CH2C2HCH3C2HCHCHCHCHCHC2HCHCHCSH3CH2NC6HCH6NHC2H5C3NCH2C3S2FeSFeSFeHSCH2FeHFeC3HCH3C3H2C4H5CNH3SHC3SCH2CSH3C3HSH3CSCHCHC3H2CHS2FeSFeS2FeS2FeSFe2S2FeSCFeS2FeSFeS3FeS4C2HCH2C2H2C8H3C7H4C7H3C6H4CSFeHC7H3CHCHCHNCH3C2HCH2C2HCNH2C2SHCHSHCH2CNC6H2CHCH5FeCHSH3CSNC4H2NCH3CH3FeH4CSHCNC3SH2FeC3HSHC2HCH6CHCNHCNH3NCFeH2CHC2H7C3HCHSH3S2H3C2H2CSHSFeH2CHFeH2C2HCHSHFeSHFeS2FeSFeS3FeS3FeSHFeS2FeSFeS3C6H4C6H6C3H4C6SH2C2HC3HCHC3HC3H3CH2C2H2C2SH2C3NSHCHCN3C6HFe2HCHFeCSCSFeCSH3CH2FeC5H3NH2SH2SC2H2S2HC3HCH3C2HCHSH5SHCH2CFeCSFeHCH2S2FeS2FeS2FeSFeS3FeS3FeSHFeS2FeSFeS3C6H4C6H5C4HCH2C7H5CSC3H2CHC4HC2H2CHC2H2CHCH2C2FeCHC3HFeC2H3FeHC2H2CH3CSC4H2CH2N3H2CH5CH2C2HC3NHNHC2HC2SFeHNCH4SCH3CHFeC3H3CHCSHSC2
_chemical_formula_sum              "C1728 H1728 N144 Fe288 S576"
_cell_length_a       72.4542
_cell_length_b       76.8058
_cell_length_c       49.8488
_cell_angle_alpha    88.007
_cell_angle_beta     88.2471
_cell_angle_gamma    105.629

_space_group_name_H-M_alt    "P 1"
_space_group_IT_number       1

loop_
  _space_group_symop_operation_xyz
  'x, y, z'

loop_
  _atom_site_type_symbol
  _atom_site_label
  _atom_site_symmetry_multiplicity
  _atom_site_fract_x
  _atom_site_fract_y
  _atom_site_fract_z
  _atom_site_occupancy
  C   C1        1.0  0.31715  0.02154  0.38800  1.0000
  H   H1        1.0  0.31790  0.06820  0.32222  1.0000
  C   C2        1.0  0.29565  0.03473  0.33102  1.0000
  C   C3        1.0  0.31598  0.02888  0.29618  1.0000
  C   C4        1.0  0.31827  0.03978  0.39255  1.0000
  H   H2        1.0  0.30851  0.04296  0.40726  1.0000
  H   H3        1.0  0.29051  0.04421  0.34281  1.0000
  H   H4        1.0  0.27840  0.01143  0.35430  1.0000
  N   N1        1.0  0.30921  0.04085  0.31068  1.0000
  H   H5        1.0  0.32679  0.03372  0.28012  1.0000
  C   C5        1.0  0.28863  0.01620  0.33749  1.0000
  C   C6        1.0  0.31585  0.06030  0.30373  1.0000
  H   H6        1.0  0.30530  0.06450  0.29112  1.0000
  C   C7        1.0  0.33156  0.05391  0.37765  1.0000
  C   C8        1.0  0.30931  0.01025  0.30217  1.0000
  C   C9        1.0  0.32975  0.01757  0.36883  1.0000
  H   H7        1.0  0.33190  0.06785  0.38079  1.0000
  H   H8        1.0  0.33005  0.06390  0.29271  1.0000
  C   C10       1.0  0.31267  0.02206  0.88729  1.0000
  C   C11       1.0  0.32662  0.05452  0.87664  1.0000
  C   C12       1.0  0.31187  0.04013  0.88864  1.0000
  H   H9        1.0  0.32556  0.06829  0.87724  1.0000
  H   H10       1.0  0.29144  0.04177  0.83077  1.0000
  H   H11       1.0  0.29958  0.04301  0.89852  1.0000
  H   H12       1.0  0.31025  0.01214  0.96045  1.0000
  C   C13       1.0  0.29940  0.03272  0.82325  1.0000
  C   C14       1.0  0.32866  0.01859  0.87444  1.0000
  C   C15       1.0  0.31686  0.03970  0.80898  1.0000
  H   H13       1.0  0.32260  0.05422  0.80539  1.0000
  C   C16       1.0  0.32738  0.02791  0.80052  1.0000
  H   H14       1.0  0.32895  0.18561  0.84105  1.0000
  N   N2        1.0  0.32075  0.00969  0.80636  1.0000
  C   C17       1.0  0.29260  0.01410  0.82868  1.0000
  H   H15       1.0  0.27933  0.00859  0.84051  1.0000
  Fe  Fe1       1.0  0.07863  0.44740  0.26155  1.0000
  S   S1        1.0  0.04855  0.42997  0.26798  1.0000
  S   S2        1.0  0.10275  0.43405  0.26108  1.0000
  Fe  Fe2       1.0  0.06616  0.48182  0.26758  1.0000
  S   S3        1.0  0.09508  0.29755  0.40739  1.0000
  H   H16       1.0  0.05961  0.26982  0.40722  1.0000
  Fe  Fe3       1.0  0.04622  0.44801  0.30189  1.0000
  Fe  Fe4       1.0  0.32167  0.32470  0.18461  1.0000
  Fe  Fe5       1.0  0.04075  0.45054  0.24045  1.0000
  S   S4        1.0  0.07685  0.46431  0.29669  1.0000
  S   S5        1.0  0.07119  0.46667  0.23151  1.0000
  S   S6        1.0  0.05670  0.45504  0.04839  1.0000
  C   C18       1.0  0.08962  0.26890  0.33738  1.0000
  Fe  Fe6       1.0  0.04010  0.43167  0.02487  1.0000
  S   S7        1.0  0.04046  0.40198  0.03001  1.0000
  C   C19       1.0  0.07459  0.32226  0.45351  1.0000
  S   S8        1.0  0.32014  0.39383  0.45927  1.0000
  Fe  Fe7       1.0  0.17804  0.37474  0.15470  1.0000
  S   S9        1.0  0.16501  0.34496  0.15336  1.0000
  S   S10       1.0  0.21003  0.38652  0.15517  1.0000
  Fe  Fe8       1.0  0.13919  0.38270  0.15335  1.0000
  S   S11       1.0  0.12312  0.35335  0.15173  1.0000
  S   S12       1.0  0.12294  0.40384  0.15074  1.0000
  Fe  Fe9       1.0  0.14319  0.34931  0.18341  1.0000
  S   S13       1.0  0.13603  0.33124  0.22100  1.0000
  Fe  Fe10      1.0  0.14657  0.35216  0.12175  1.0000
  S   S14       1.0  0.14272  0.33584  0.08440  1.0000
  S   S15       1.0  0.15766  0.37872  0.18703  1.0000
  S   S16       1.0  0.16115  0.38181  0.12098  1.0000
  Fe  Fe11      1.0  0.28735  0.34002  0.19219  1.0000
  S   S17       1.0  0.30583  0.36861  0.18961  1.0000
  S   S18       1.0  0.25538  0.33293  0.20110  1.0000
  C   C20       1.0  0.28856  0.36358  0.27460  1.0000
  S   S19       1.0  0.03247  0.27712  0.32035  1.0000
  C   C21       1.0  0.06026  0.27873  0.38971  1.0000
  S   S20       1.0  0.30581  0.33019  0.22130  1.0000
  S   S21       1.0  0.30102  0.33131  0.15576  1.0000
  C   C22       1.0  0.32588  0.27736  0.09154  1.0000
  H   H17       1.0  0.06168  0.27089  0.26996  1.0000
  H   H18       1.0  0.19779  0.38050  0.46346  1.0000
  C   C23       1.0  0.03899  0.46646  0.13425  1.0000
  C   C24       1.0  0.03207  0.44433  0.37275  1.0000
  C   C25       1.0  0.10670  0.28238  0.33979  1.0000
  H   H19       1.0  0.32505  0.37813  0.01860  1.0000
  Fe  Fe12      1.0  0.30026  0.38380  0.42553  1.0000
  S   S22       1.0  0.27312  0.39201  0.41637  1.0000
  S   S23       1.0  0.29936  0.35467  0.43259  1.0000
  Fe  Fe13      1.0  0.13804  0.35698  0.36855  1.0000
  S   S24       1.0  0.14343  0.32947  0.37126  1.0000
  S   S25       1.0  0.13525  0.37187  0.32937  1.0000
  Fe  Fe14      1.0  0.13442  0.35869  0.42987  1.0000
  S   S26       1.0  0.13933  0.33143  0.43634  1.0000
  C   C26       1.0  0.07595  0.29404  0.38532  1.0000
  Fe  Fe15      1.0  0.16291  0.34093  0.40457  1.0000
  S   S27       1.0  0.19108  0.33462  0.41323  1.0000
  Fe  Fe16      1.0  0.11938  0.32321  0.40260  1.0000
  S   S28       1.0  0.03595  0.48089  0.01208  1.0000
  S   S29       1.0  0.15913  0.36888  0.39976  1.0000
  S   S30       1.0  0.11285  0.34999  0.39821  1.0000
  S   S31       1.0  0.01201  0.46602  0.45027  1.0000
  S   S32       1.0  0.03784  0.43417  0.34335  1.0000
  N   N3        1.0  0.08431  0.28304  0.29561  1.0000
  C   C27       1.0  0.06242  0.30089  0.34352  1.0000
  N   N4        1.0  0.08013  0.50239  0.43775  1.0000
  C   C28       1.0  0.32178  0.35097  0.03423  1.0000
  C   C29       1.0  0.17183  0.39982  0.24999  1.0000
  H   H20       1.0  0.00314  0.40196  0.05481  1.0000
  H   H21       1.0  0.02292  0.40060  0.47335  1.0000
  H   H22       1.0  0.31901  0.32565  0.05618  1.0000
  C   C30       1.0  0.19747  0.39671  0.22138  1.0000
  H   H23       1.0  0.28240  0.37325  0.36827  1.0000
  C   C31       1.0  0.07670  0.30545  0.36257  1.0000
  H   H24       1.0  0.06361  0.30922  0.32527  1.0000
  H   H25       1.0  0.08874  0.31728  0.35899  1.0000
  C   C32       1.0  0.25034  0.37595  0.41554  1.0000
  C   C33       1.0  0.23426  0.38175  0.40834  1.0000
  C   C34       1.0  0.21601  0.36930  0.40737  1.0000
  C   C35       1.0  0.21368  0.35090  0.41368  1.0000
  C   C36       1.0  0.22975  0.34513  0.42084  1.0000
  C   C37       1.0  0.24795  0.35756  0.42178  1.0000
  H   H26       1.0  0.23595  0.39593  0.40340  1.0000
  H   H27       1.0  0.20382  0.37394  0.40159  1.0000
  H   H28       1.0  0.22810  0.33095  0.42578  1.0000
  H   H29       1.0  0.26005  0.35285  0.42754  1.0000
  H   H30       1.0  0.11488  0.43217  0.34847  1.0000
  H   H31       1.0  0.05156  0.46275  0.17223  1.0000
  C   C38       1.0  0.04710  0.28518  0.34742  1.0000
  C   C39       1.0  0.27397  0.34689  0.31526  1.0000
  C   C40       1.0  0.04966  0.30142  0.48070  1.0000
  C   C41       1.0  0.06056  0.49627  0.43992  1.0000
  H   H32       1.0  0.29021  0.35282  0.36832  1.0000
  C   C42       1.0  0.32425  0.36955  0.03641  1.0000
  H   H33       1.0  0.08454  0.47795  0.45446  1.0000
  H   H34       1.0  0.16174  0.39495  0.26686  1.0000
  C   C43       1.0  0.28000  0.35972  0.35955  1.0000
  C   C44       1.0  0.22264  0.37221  0.16976  1.0000
  C   C45       1.0  0.24266  0.37672  0.16645  1.0000
  C   C46       1.0  0.25290  0.36492  0.17644  1.0000
  C   C47       1.0  0.24317  0.34863  0.19004  1.0000
  C   C48       1.0  0.22319  0.34442  0.19407  1.0000
  C   C49       1.0  0.21294  0.35617  0.18396  1.0000
  H   H35       1.0  0.25026  0.38916  0.15559  1.0000
  H   H36       1.0  0.26826  0.36827  0.17304  1.0000
  H   H37       1.0  0.21558  0.33188  0.20468  1.0000
  H   H38       1.0  0.19754  0.35272  0.18712  1.0000
  C   C50       1.0  0.14253  0.34601  0.05208  1.0000
  C   C51       1.0  0.14523  0.36467  0.04816  1.0000
  C   C52       1.0  0.14456  0.37221  0.02219  1.0000
  H   H39       1.0  0.00330  0.48250  0.16798  1.0000
  H   H40       1.0  0.09433  0.48439  0.42060  1.0000
  C   C53       1.0  0.13945  0.33504  0.02982  1.0000
  H   H41       1.0  0.14767  0.37329  0.06510  1.0000
  H   H42       1.0  0.14651  0.38664  0.01932  1.0000
  Fe  Fe17      1.0  0.32533  0.35821  0.21624  1.0000
  H   H43       1.0  0.13726  0.32058  0.03271  1.0000
  C   C54       1.0  0.13559  0.34262  0.25091  1.0000
  C   C55       1.0  0.12995  0.35866  0.25138  1.0000
  C   C56       1.0  0.12945  0.36731  0.27568  1.0000
  C   C57       1.0  0.13503  0.36023  0.29947  1.0000
  C   C58       1.0  0.14094  0.34436  0.29882  1.0000
  C   C59       1.0  0.14102  0.33547  0.27470  1.0000
  H   H44       1.0  0.12557  0.36417  0.23312  1.0000
  H   H45       1.0  0.12480  0.37956  0.27597  1.0000
  H   H46       1.0  0.14586  0.33913  0.31674  1.0000
  H   H47       1.0  0.14569  0.32322  0.27433  1.0000
  H   H48       1.0  0.11504  0.28250  0.35756  1.0000
  C   C60       1.0  0.32354  0.33855  0.31649  1.0000
  C   C61       1.0  0.02013  0.36618  0.03973  1.0000
  H   H49       1.0  0.26511  0.35197  0.36584  1.0000
  H   H50       1.0  0.03282  0.36310  0.03151  1.0000
  C   C62       1.0  0.10741  0.42516  0.23043  1.0000
  C   C63       1.0  0.10095  0.43079  0.20634  1.0000
  C   C64       1.0  0.10574  0.42414  0.18194  1.0000
  C   C65       1.0  0.11670  0.41163  0.18162  1.0000
  C   C66       1.0  0.12269  0.40566  0.20584  1.0000
  C   C67       1.0  0.11821  0.41255  0.23015  1.0000
  H   H51       1.0  0.09261  0.44053  0.20644  1.0000
  H   H52       1.0  0.10105  0.42882  0.16331  1.0000
  H   H53       1.0  0.13077  0.39579  0.20591  1.0000
  H   H54       1.0  0.12299  0.40799  0.24881  1.0000
  C   C68       1.0  0.00387  0.35189  0.04783  1.0000
  C   C69       1.0  0.27667  0.34789  0.28723  1.0000
  C   C70       1.0  0.19731  0.41247  0.20654  1.0000
  H   H55       1.0  0.31197  0.27017  0.08328  1.0000
  H   H56       1.0  0.10619  0.44392  0.32148  1.0000
  H   H57       1.0  0.05620  0.29773  0.43914  1.0000
  C   C71       1.0  0.03369  0.43618  0.39794  1.0000
  H   H58       1.0  0.02343  0.46584  0.35238  1.0000
  H   H59       1.0  0.30226  0.38754  0.32991  1.0000
  H   H60       1.0  0.03369  0.50333  0.43922  1.0000
  C   C72       1.0  0.00726  0.48825  0.18783  1.0000
  Fe  Fe18      1.0  0.00021  0.27037  0.32750  1.0000
  S   S33       1.0  0.01217  0.43901  0.02776  1.0000
  H   H61       1.0  0.03813  0.28900  0.48295  1.0000
  N   N5        1.0  0.08662  0.39125  0.09275  1.0000
  C   C73       1.0  0.09693  0.37905  0.09789  1.0000
  C   C74       1.0  0.08141  0.39416  0.06717  1.0000
  C   C75       1.0  0.10207  0.36919  0.07721  1.0000
  C   C76       1.0  0.08633  0.38455  0.04598  1.0000
  C   C77       1.0  0.09680  0.37204  0.05106  1.0000
  C   C78       1.0  0.08214  0.40210  0.11440  1.0000
  H   H62       1.0  0.10133  0.37695  0.11807  1.0000
  H   H63       1.0  0.07343  0.40399  0.06299  1.0000
  H   H64       1.0  0.11023  0.35950  0.08143  1.0000
  H   H65       1.0  0.08209  0.38692  0.02577  1.0000
  C   C79       1.0  0.01896  0.46618  0.39554  1.0000
  H   H66       1.0  0.09383  0.41485  0.11521  1.0000
  H   H67       1.0  0.06832  0.40543  0.11134  1.0000
  H   H68       1.0  0.08094  0.39475  0.13429  1.0000
  C   C80       1.0  0.02497  0.45957  0.37166  1.0000
  H   H69       1.0  0.10570  0.49602  0.44946  1.0000
  H   H70       1.0  0.32309  0.28373  0.11040  1.0000
  C   C81       1.0  0.02043  0.45789  0.42069  1.0000
  H   H71       1.0  0.00851  0.27286  0.45242  1.0000
  H   H72       1.0  0.08457  0.25856  0.35332  1.0000
  H   H73       1.0  0.03907  0.42434  0.39897  1.0000
  C   C82       1.0  0.00348  0.38809  0.05269  1.0000
  Fe  Fe19      1.0  0.32090  0.35936  0.15489  1.0000
  C   C83       1.0  0.07189  0.28423  0.27334  1.0000
  H   H74       1.0  0.12563  0.30682  0.32176  1.0000
  S   S34       1.0  0.01890  0.44255  0.20817  1.0000
  C   C84       1.0  0.02129  0.44936  0.17354  1.0000
  C   C85       1.0  0.32657  0.34565  0.28982  1.0000
  C   C86       1.0  0.02218  0.46268  0.11961  1.0000
  C   C87       1.0  0.10106  0.29632  0.29779  1.0000
  C   C88       1.0  0.17119  0.41557  0.23548  1.0000
  C   C89       1.0  0.18397  0.42185  0.21354  1.0000
  H   H75       1.0  0.20709  0.41699  0.18918  1.0000
  H   H76       1.0  0.16061  0.42266  0.24088  1.0000
  H   H77       1.0  0.18333  0.43381  0.20173  1.0000
  N   N6        1.0  0.20559  0.34878  0.10333  1.0000
  C   C90       1.0  0.19398  0.33174  0.10938  1.0000
  C   C91       1.0  0.22436  0.35334  0.11029  1.0000
  C   C92       1.0  0.20091  0.31901  0.12378  1.0000
  C   C93       1.0  0.23187  0.34078  0.12406  1.0000
  C   C94       1.0  0.21997  0.32364  0.13126  1.0000
  C   C95       1.0  0.19817  0.36227  0.08893  1.0000
  H   H78       1.0  0.17911  0.32804  0.10367  1.0000
  H   H79       1.0  0.23351  0.36691  0.10580  1.0000
  H   H80       1.0  0.19148  0.30574  0.12935  1.0000
  H   H81       1.0  0.24670  0.34451  0.12988  1.0000
  H   H82       1.0  0.22551  0.31409  0.14292  1.0000
  H   H83       1.0  0.18236  0.35762  0.08716  1.0000
  H   H84       1.0  0.20133  0.37504  0.09992  1.0000
  H   H85       1.0  0.20490  0.36512  0.06839  1.0000
  H   H86       1.0  0.26980  0.33654  0.27533  1.0000
  C   C96       1.0  0.32946  0.34979  0.33799  1.0000
  H   H87       1.0  0.26494  0.33455  0.32502  1.0000
  H   H88       1.0  0.08050  0.28896  0.25433  1.0000
  H   H89       1.0  0.17609  0.36192  0.24461  1.0000
  H   H90       1.0  0.20744  0.38915  0.21519  1.0000
  C   C97       1.0  0.04179  0.49522  0.19545  1.0000
  Fe  Fe20      1.0  0.06260  0.47186  0.00940  1.0000
  C   C98       1.0  0.00513  0.45187  0.13189  1.0000
  N   N7        1.0  0.18479  0.39056  0.24275  1.0000
  C   C99       1.0  0.09177  0.48956  0.44049  1.0000
  C   C100      1.0  0.29467  0.37650  0.31800  1.0000
  H   H91       1.0  0.19893  0.37181  0.25907  1.0000
  N   N8        1.0  0.09616  0.41509  0.32259  1.0000
  C   C101      1.0  0.07728  0.41510  0.32344  1.0000
  C   C102      1.0  0.10122  0.39941  0.31875  1.0000
  C   C103      1.0  0.06288  0.39919  0.31978  1.0000
  C   C104      1.0  0.08722  0.38322  0.31509  1.0000
  C   C105      1.0  0.06791  0.38316  0.31552  1.0000
  C   C106      1.0  0.11107  0.43178  0.32707  1.0000
  H   H92       1.0  0.07324  0.42747  0.32672  1.0000
  H   H93       1.0  0.11618  0.39938  0.31843  1.0000
  H   H94       1.0  0.04794  0.39943  0.32024  1.0000
  H   H95       1.0  0.09140  0.37086  0.31201  1.0000
  H   H96       1.0  0.05688  0.37073  0.31262  1.0000
  H   H97       1.0  0.12404  0.43265  0.31402  1.0000
  N   N9        1.0  0.02665  0.50057  0.18567  1.0000
  Fe  Fe21      1.0  0.02912  0.46293  0.04985  1.0000
  S   S35       1.0  0.03513  0.46688  0.27513  1.0000
  C   C107      1.0  0.32270  0.34766  0.08306  1.0000
  S   S36       1.0  0.13011  0.37504  0.46530  1.0000
  N   N10       1.0  0.28269  0.36120  0.33020  1.0000
  H   H98       1.0  0.10546  0.30731  0.28265  1.0000
  H   H99       1.0  0.00623  0.47677  0.20259  1.0000
  C   C108      1.0  0.00473  0.44517  0.15854  1.0000
  Fe  Fe22      1.0  0.32061  0.36477  0.46410  1.0000
  H   H100      1.0  0.06477  0.25943  0.31403  1.0000
  H   H101      1.0  0.02926  0.43648  0.44096  1.0000
  C   C109      1.0  0.14135  0.36121  0.99994  1.0000
  H   H102      1.0  0.32843  0.25945  0.13762  1.0000
  H   H103      1.0  0.18199  0.36271  0.44620  1.0000
  C   C110      1.0  0.18421  0.37323  0.25656  1.0000
  C   C111      1.0  0.13886  0.34259  0.00385  1.0000
  C   C112      1.0  0.04580  0.27438  0.37094  1.0000
  C   C113      1.0  0.29763  0.37799  0.29003  1.0000
  C   C114      1.0  0.07851  0.26946  0.31506  1.0000
  H   H104      1.0  0.32140  0.32325  0.45589  1.0000
  H   H105      1.0  0.29114  0.36442  0.25295  1.0000
  C   C115      1.0  0.02816  0.44306  0.42180  1.0000
  H   H106      1.0  0.17709  0.37196  0.27691  1.0000
  C   C116      1.0  0.05976  0.30632  0.45612  1.0000
  S   S37       1.0  0.02125  0.47438  0.08859  1.0000
  H   H107      1.0  0.10096  0.36465  0.03477  1.0000
  H   H108      1.0  0.17275  0.38001  0.46008  1.0000
  C   C117      1.0  0.11254  0.29614  0.31983  1.0000
  H   H109      1.0  0.30751  0.38994  0.28039  1.0000
  C   C118      1.0  0.32547  0.36630  0.08516  1.0000
  H   H110      1.0  0.05360  0.48203  0.44419  1.0000
  H   H111      1.0  0.03723  0.50329  0.25832  1.0000
  H   H112      1.0  0.07229  0.50264  0.20136  1.0000
  C   C119      1.0  0.00542  0.31776  0.19672  1.0000
  H   H113      1.0  0.31641  0.32435  0.32050  1.0000
  C   C120      1.0  0.03860  0.45967  0.16106  1.0000
  C   C121      1.0  0.32091  0.34004  0.05767  1.0000
  H   H114      1.0  0.32180  0.33690  0.27349  1.0000
  S   S38       1.0  0.32509  0.34066  0.37132  1.0000
  C   C122      1.0  0.01998  0.38439  0.04183  1.0000
  H   H115      1.0  0.05219  0.47506  0.12512  1.0000
  H   H116      1.0  0.03424  0.26209  0.37391  1.0000
  H   H117      1.0  0.00802  0.31724  0.14326  1.0000
  H   H118      1.0  0.01289  0.47759  0.39446  1.0000
  H   H119      1.0  0.06328  0.29380  0.27814  1.0000
  S   S39       1.0  0.32447  0.38925  0.39429  1.0000
  C   C123      1.0  0.18289  0.37162  0.46345  1.0000
  H   H120      1.0  0.00412  0.33799  0.04564  1.0000
  Fe  Fe23      1.0  0.32465  0.36061  0.40343  1.0000
  H   H121      1.0  0.08258  0.32604  0.43449  1.0000
  H   H122      1.0  0.12377  0.33788  0.48639  1.0000
  S   S40       1.0  0.32102  0.34118  0.00255  1.0000
  H   H123      1.0  0.32226  0.33917  0.10094  1.0000
  H   H124      1.0  0.01573  0.36888  0.46279  1.0000
  H   H125      1.0  0.17760  0.33591  0.47189  1.0000
  H   H126      1.0  0.03950  0.48207  0.20567  1.0000
  H   H127      1.0  0.01117  0.30676  0.18900  1.0000
  H   H128      1.0  0.01754  0.32973  0.20021  1.0000
  C   C124      1.0  0.07920  0.33312  0.47562  1.0000
  C   C125      1.0  0.32616  0.37718  0.06175  1.0000
  S   S41       1.0  0.32922  0.37665  0.11636  1.0000
  Fe  Fe24      1.0  0.02299  0.45592  0.98963  1.0000
  H   H129      1.0  0.32831  0.39161  0.06321  1.0000
  C   C126      1.0  0.00730  0.39957  0.47453  1.0000
  S   S42       1.0  0.09021  0.49276  0.99557  1.0000
  H   H130      1.0  0.09086  0.34545  0.47332  1.0000
  H   H131      1.0  0.04987  0.50558  0.06485  1.0000
  C   C127      1.0  0.00233  0.36667  0.47438  1.0000
  H   H132      1.0  0.00287  0.40388  0.45478  1.0000
  Fe  Fe25      1.0  0.07709  0.46079  0.75831  1.0000
  S   S43       1.0  0.05059  0.43778  0.76398  1.0000
  S   S44       1.0  0.10556  0.45515  0.74979  1.0000
  Fe  Fe26      1.0  0.05606  0.48842  0.77438  1.0000
  H   H133      1.0  0.05728  0.27454  0.90605  1.0000
  C   C128      1.0  0.08148  0.46585  0.87873  1.0000
  Fe  Fe27      1.0  0.04481  0.45092  0.80187  1.0000
  N   N11       1.0  0.02314  0.29803  0.73702  1.0000
  Fe  Fe28      1.0  0.03640  0.45658  0.74241  1.0000
  S   S45       1.0  0.07251  0.47257  0.79757  1.0000
  S   S46       1.0  0.06344  0.47891  0.73423  1.0000
  S   S47       1.0  0.05359  0.45703  0.55315  1.0000
  C   C129      1.0  0.17584  0.34285  0.49004  1.0000
  Fe  Fe29      1.0  0.03898  0.43516  0.52575  1.0000
  S   S48       1.0  0.03964  0.40557  0.52912  1.0000
  N   N12       1.0  0.01962  0.49992  0.67956  1.0000
  Fe  Fe30      1.0  0.06204  0.47566  0.51612  1.0000
  Fe  Fe31      1.0  0.16654  0.38107  0.64913  1.0000
  S   S49       1.0  0.15107  0.35156  0.65132  1.0000
  S   S50       1.0  0.19897  0.39096  0.65000  1.0000
  Fe  Fe32      1.0  0.12905  0.39217  0.64764  1.0000
  S   S51       1.0  0.11117  0.36331  0.64976  1.0000
  S   S52       1.0  0.11131  0.41222  0.64513  1.0000
  Fe  Fe33      1.0  0.13126  0.35933  0.68132  1.0000
  S   S53       1.0  0.12079  0.34248  0.71973  1.0000
  Fe  Fe34      1.0  0.13280  0.35885  0.61943  1.0000
  S   S54       1.0  0.12495  0.34090  0.58402  1.0000
  S   S55       1.0  0.14782  0.38850  0.68115  1.0000
  S   S56       1.0  0.14955  0.38802  0.61513  1.0000
  Fe  Fe35      1.0  0.27905  0.34556  0.68668  1.0000
  S   S57       1.0  0.29762  0.37399  0.68709  1.0000
  S   S58       1.0  0.24675  0.33774  0.69113  1.0000
  H   H134      1.0  0.08331  0.42578  0.79368  1.0000
  N   N13       1.0  0.03719  0.30977  0.91835  1.0000
  C   C130      1.0  0.08122  0.29935  0.85171  1.0000
  S   S59       1.0  0.29655  0.33431  0.71567  1.0000
  S   S60       1.0  0.29380  0.33843  0.65011  1.0000
  H   H135      1.0  0.28434  0.37261  0.87487  1.0000
  S   S61       1.0  0.32163  0.38783  0.96339  1.0000
  C   C131      1.0  0.01674  0.45160  0.92073  1.0000
  C   C132      1.0  0.01766  0.45129  0.67590  1.0000
  H   H136      1.0  0.20502  0.32464  0.95685  1.0000
  H   H137      1.0  0.16219  0.33078  0.75581  1.0000
  C   C133      1.0  0.09248  0.38631  0.73030  1.0000
  Fe  Fe36      1.0  0.30046  0.37985  0.93039  1.0000
  S   S62       1.0  0.27276  0.38801  0.92448  1.0000
  S   S63       1.0  0.29898  0.35041  0.93401  1.0000
  Fe  Fe37      1.0  0.14082  0.35811  0.86846  1.0000
  S   S64       1.0  0.14411  0.33008  0.86440  1.0000
  S   S65       1.0  0.14120  0.37687  0.83244  1.0000
  Fe  Fe38      1.0  0.14031  0.35541  0.93004  1.0000
  S   S66       1.0  0.14336  0.32720  0.93016  1.0000
  S   S67       1.0  0.03251  0.27370  0.81505  1.0000
  Fe  Fe39      1.0  0.16560  0.33779  0.89674  1.0000
  S   S68       1.0  0.19442  0.33129  0.89650  1.0000
  Fe  Fe40      1.0  0.12152  0.32266  0.89798  1.0000
  S   S69       1.0  0.03533  0.48463  0.51632  1.0000
  S   S70       1.0  0.16377  0.36628  0.89845  1.0000
  S   S71       1.0  0.11698  0.35039  0.90016  1.0000
  Fe  Fe41      1.0  0.02410  0.46099  0.49040  1.0000
  C   C134      1.0  0.00845  0.48852  0.69902  1.0000
  H   H138      1.0  0.04948  0.27372  0.70606  1.0000
  C   C135      1.0  0.08646  0.41303  0.78977  1.0000
  C   C136      1.0  0.17245  0.34630  0.80227  1.0000
  H   H139      1.0  0.16934  0.36714  0.55474  1.0000
  H   H140      1.0  0.09841  0.36834  0.77459  1.0000
  C   C137      1.0  0.01215  0.45838  0.89599  1.0000
  H   H141      1.0  0.31691  0.34775  0.60085  1.0000
  C   C138      1.0  0.04937  0.28136  0.83997  1.0000
  H   H142      1.0  0.22960  0.35046  0.97142  1.0000
  S   S72       1.0  0.31844  0.34827  0.50297  1.0000
  C   C139      1.0  0.06001  0.28009  0.88561  1.0000
  H   H143      1.0  0.01957  0.30986  0.67170  1.0000
  C   C140      1.0  0.32302  0.38545  0.56024  1.0000
  C   C141      1.0  0.25146  0.37228  0.91473  1.0000
  C   C142      1.0  0.23538  0.37839  0.90861  1.0000
  C   C143      1.0  0.21784  0.36608  0.90272  1.0000
  C   C144      1.0  0.21631  0.34752  0.90246  1.0000
  C   C145      1.0  0.23253  0.34149  0.90774  1.0000
  C   C146      1.0  0.24995  0.35376  0.91399  1.0000
  H   H144      1.0  0.23638  0.39270  0.90896  1.0000
  H   H145      1.0  0.20555  0.37098  0.89845  1.0000
  H   H146      1.0  0.23153  0.32718  0.90751  1.0000
  H   H147      1.0  0.26205  0.34875  0.91863  1.0000
  C   C147      1.0  0.04573  0.27484  0.86669  1.0000
  H   H148      1.0  0.27604  0.35051  0.53779  1.0000
  C   C148      1.0  0.01612  0.30066  0.76402  1.0000
  H   H149      1.0  0.16470  0.33396  0.55688  1.0000
  H   H150      1.0  0.03840  0.27968  0.75156  1.0000
  C   C149      1.0  0.06464  0.31309  0.94558  1.0000
  H   H151      1.0  0.29265  0.38635  0.79034  1.0000
  C   C150      1.0  0.21224  0.38728  0.96969  1.0000
  C   C151      1.0  0.19378  0.33005  0.96644  1.0000
  H   H152      1.0  0.18533  0.34187  0.80742  1.0000
  H   H153      1.0  0.05989  0.48779  0.95500  1.0000
  C   C152      1.0  0.21216  0.37606  0.66141  1.0000
  C   C153      1.0  0.20319  0.35786  0.66815  1.0000
  C   C154      1.0  0.21393  0.34634  0.67754  1.0000
  C   C155      1.0  0.23378  0.35286  0.68003  1.0000
  C   C156      1.0  0.24284  0.37107  0.67333  1.0000
  C   C157      1.0  0.23204  0.38263  0.66405  1.0000
  H   H154      1.0  0.18800  0.35257  0.66604  1.0000
  H   H155      1.0  0.20684  0.33226  0.68261  1.0000
  H   H156      1.0  0.25808  0.37631  0.67559  1.0000
  H   H157      1.0  0.23907  0.39675  0.65912  1.0000
  C   C158      1.0  0.12536  0.35057  0.55134  1.0000
  C   C159      1.0  0.12804  0.36916  0.54668  1.0000
  C   C160      1.0  0.12926  0.37649  0.52020  1.0000
  N   N14       1.0  0.07014  0.47630  0.89246  1.0000
  H   H158      1.0  0.03976  0.50327  0.92903  1.0000
  C   C161      1.0  0.12357  0.33934  0.52942  1.0000
  H   H159      1.0  0.12925  0.37791  0.56343  1.0000
  H   H160      1.0  0.13140  0.39090  0.51671  1.0000
  C   C162      1.0  0.03274  0.30163  0.96559  1.0000
  H   H161      1.0  0.12140  0.32493  0.53290  1.0000
  C   C163      1.0  0.12636  0.35225  0.75096  1.0000
  C   C164      1.0  0.13537  0.37070  0.75268  1.0000
  C   C165      1.0  0.13977  0.37811  0.77780  1.0000
  C   C166      1.0  0.13528  0.36711  0.80139  1.0000
  C   C167      1.0  0.12608  0.34869  0.79980  1.0000
  C   C168      1.0  0.12164  0.34129  0.77463  1.0000
  H   H162      1.0  0.13887  0.37935  0.73477  1.0000
  H   H163      1.0  0.14671  0.39242  0.77894  1.0000
  H   H164      1.0  0.12227  0.34014  0.81794  1.0000
  H   H165      1.0  0.11452  0.32701  0.77350  1.0000
  C   C169      1.0  0.25770  0.33439  0.60017  1.0000
  C   C170      1.0  0.17591  0.36987  0.51190  1.0000
  C   C171      1.0  0.02082  0.36974  0.54081  1.0000
  N   N15       1.0  0.17798  0.36113  0.48901  1.0000
  H   H166      1.0  0.03365  0.36699  0.53250  1.0000
  C   C172      1.0  0.10726  0.44367  0.72033  1.0000
  C   C173      1.0  0.09219  0.43979  0.70271  1.0000
  C   C174      1.0  0.09347  0.42995  0.67985  1.0000
  C   C175      1.0  0.10979  0.42393  0.67449  1.0000
  C   C176      1.0  0.12472  0.42756  0.69235  1.0000
  C   C177      1.0  0.12346  0.43743  0.71522  1.0000
  H   H167      1.0  0.07952  0.44434  0.70675  1.0000
  H   H168      1.0  0.08168  0.42680  0.66655  1.0000
  H   H169      1.0  0.13745  0.42317  0.68824  1.0000
  H   H170      1.0  0.13509  0.44031  0.72892  1.0000
  C   C178      1.0  0.02527  0.30375  0.94050  1.0000
  H   H171      1.0  0.03167  0.43399  0.93941  1.0000
  H   H172      1.0  0.04413  0.42533  0.89673  1.0000
  S   S73       1.0  0.14042  0.37121  0.96772  1.0000
  S   S74       1.0  0.02776  0.46752  0.78106  1.0000
  N   N16       1.0  0.27878  0.35867  0.80114  1.0000
  C   C179      1.0  0.27217  0.34598  0.82165  1.0000
  C   C180      1.0  0.27416  0.35078  0.84845  1.0000
  C   C181      1.0  0.27597  0.35347  0.77320  1.0000
  H   H173      1.0  0.26548  0.33200  0.81738  1.0000
  H   H174      1.0  0.26922  0.34067  0.86471  1.0000
  H   H175      1.0  0.27737  0.33956  0.77069  1.0000
  H   H176      1.0  0.26154  0.35404  0.76700  1.0000
  H   H177      1.0  0.28698  0.36259  0.75930  1.0000
  H   H178      1.0  0.03219  0.26522  0.87256  1.0000
  H   H179      1.0  0.00989  0.30039  0.93876  1.0000
  C   C182      1.0  0.02426  0.30364  0.68918  1.0000
  H   H180      1.0  0.08165  0.33237  0.53771  1.0000
  C   C183      1.0  0.03112  0.44176  0.87174  1.0000
  C   C184      1.0  0.12806  0.36532  0.49825  1.0000
  H   H181      1.0  0.07014  0.29868  0.81192  1.0000
  H   H182      1.0  0.00296  0.46740  0.89570  1.0000
  H   H183      1.0  0.08958  0.37140  0.72880  1.0000
  H   H184      1.0  0.16897  0.31825  0.51510  1.0000
  H   H185      1.0  0.18101  0.32570  0.95397  1.0000
  C   C185      1.0  0.07060  0.47743  0.91980  1.0000
  S   S75       1.0  0.32228  0.38494  0.61528  1.0000
  C   C186      1.0  0.31751  0.34816  0.55766  1.0000
  H   H186      1.0  0.16990  0.35566  0.81764  1.0000
  N   N17       1.0  0.07328  0.41536  0.59589  1.0000
  C   C187      1.0  0.05480  0.40547  0.59265  1.0000
  C   C188      1.0  0.07700  0.43052  0.61066  1.0000
  C   C189      1.0  0.03941  0.41085  0.60392  1.0000
  C   C190      1.0  0.06194  0.43630  0.62222  1.0000
  H   H187      1.0  0.03932  0.31080  0.87537  1.0000
  C   C191      1.0  0.08906  0.40917  0.58409  1.0000
  H   H188      1.0  0.05186  0.39342  0.58102  1.0000
  H   H189      1.0  0.09168  0.43806  0.61396  1.0000
  H   H190      1.0  0.02477  0.40307  0.60102  1.0000
  C   C192      1.0  0.04078  0.28310  0.70842  1.0000
  H   H191      1.0  0.09653  0.47417  0.87530  1.0000
  H   H192      1.0  0.09029  0.39685  0.59546  1.0000
  H   H193      1.0  0.08654  0.40614  0.56265  1.0000
  H   H194      1.0  0.10307  0.41957  0.58497  1.0000
  C   C193      1.0  0.09121  0.40269  0.81066  1.0000
  H   H195      1.0  0.09951  0.37845  0.82117  1.0000
  H   H196      1.0  0.09173  0.40731  0.83101  1.0000
  N   N18       1.0  0.26957  0.36681  0.59859  1.0000
  C   C194      1.0  0.26087  0.35093  0.61258  1.0000
  C   C195      1.0  0.27451  0.36680  0.57187  1.0000
  C   C196      1.0  0.05258  0.30616  0.96802  1.0000
  C   C197      1.0  0.27305  0.38391  0.61229  1.0000
  H   H197      1.0  0.25670  0.35094  0.63365  1.0000
  H   H198      1.0  0.27881  0.38247  0.63242  1.0000
  H   H199      1.0  0.25949  0.38793  0.61468  1.0000
  H   H200      1.0  0.18339  0.37830  0.70422  1.0000
  C   C198      1.0  0.32197  0.37749  0.53514  1.0000
  H   H201      1.0  0.00137  0.42072  0.96660  1.0000
  H   H202      1.0  0.07919  0.47058  0.93143  1.0000
  C   C199      1.0  0.16892  0.34160  0.53789  1.0000
  C   C200      1.0  0.31832  0.35609  0.58268  1.0000
  H   H203      1.0  0.26120  0.32145  0.56336  1.0000
  H   H204      1.0  0.09488  0.30875  0.84577  1.0000
  C   C201      1.0  0.01979  0.38774  0.54176  1.0000
  C   C202      1.0  0.05978  0.48723  0.93329  1.0000
  S   S76       1.0  0.04046  0.43496  0.84188  1.0000
  N   N19       1.0  0.20019  0.34982  0.96723  1.0000
  C   C203      1.0  0.01951  0.45368  0.87156  1.0000
  S   S77       1.0  0.09523  0.29854  0.90287  1.0000
  C   C204      1.0  0.28720  0.37632  0.80659  1.0000
  C   C205      1.0  0.09546  0.38648  0.80516  1.0000
  H   H205      1.0  0.28125  0.37938  0.56067  1.0000
  H   H206      1.0  0.02783  0.40600  0.97326  1.0000
  C   C206      1.0  0.09502  0.38091  0.77869  1.0000
  Fe  Fe42      1.0  0.02605  0.46496  0.55190  1.0000
  H   H207      1.0  0.31551  0.33370  0.55683  1.0000
  C   C207      1.0  0.05457  0.31258  0.50243  1.0000
  H   H208      1.0  0.00537  0.30862  0.76366  1.0000
  C   C208      1.0  0.05972  0.48541  0.87784  1.0000
  C   C209      1.0  0.28274  0.36872  0.85417  1.0000
  H   H209      1.0  0.28405  0.39493  0.60116  1.0000
  H   H210      1.0  0.04661  0.30859  0.52148  1.0000
  H   H211      1.0  0.18844  0.38123  0.78958  1.0000
  H   H212      1.0  0.15969  0.33435  0.80356  1.0000
  H   H213      1.0  0.04565  0.47017  0.67648  1.0000
  C   C210      1.0  0.03536  0.43472  0.89643  1.0000
  C   C211      1.0  0.02837  0.43972  0.92075  1.0000
  S   S78       1.0  0.01092  0.44230  0.52602  1.0000
  H   H214      1.0  0.06618  0.32014  0.90341  1.0000
  C   C212      1.0  0.28935  0.38160  0.83318  1.0000
  N   N20       1.0  0.17514  0.35513  0.77533  1.0000
  C   C213      1.0  0.18406  0.37326  0.77218  1.0000
  C   C214      1.0  0.05665  0.31499  0.92080  1.0000
  H   H215      1.0  0.03125  0.43058  0.62784  1.0000
  H   H216      1.0  0.08226  0.39092  0.71747  1.0000
  H   H217      1.0  0.25125  0.32183  0.61166  1.0000
  C   C215      1.0  0.26324  0.33420  0.57314  1.0000
  H   H218      1.0  0.02826  0.30755  0.77631  1.0000
  C   C216      1.0  0.02894  0.31118  0.89212  1.0000
  C   C217      1.0  0.16943  0.34510  0.75340  1.0000
  H   H219      1.0  0.03967  0.28866  0.66581  1.0000
  C   C218      1.0  0.03546  0.29161  0.68587  1.0000
  H   H220      1.0  0.01613  0.29954  0.88971  1.0000
  H   H221      1.0  0.08119  0.45331  0.89075  1.0000
  C   C219      1.0  0.17112  0.33279  0.51445  1.0000
  C   C220      1.0  0.03369  0.46421  0.66426  1.0000
  C   C221      1.0  0.03372  0.47013  0.63708  1.0000
  C   C222      1.0  0.08630  0.40710  0.76354  1.0000
  C   C223      1.0  0.07783  0.29231  0.87821  1.0000
  C   C224      1.0  0.06715  0.29365  0.83258  1.0000
  S   S79       1.0  0.01496  0.47397  0.59063  1.0000
  C   C225      1.0  0.18719  0.38185  0.74656  1.0000
  H   H222      1.0  0.08275  0.41531  0.74747  1.0000
  H   H223      1.0  0.29627  0.39553  0.83752  1.0000
  N   N21       1.0  0.09076  0.39132  0.75822  1.0000
  C   C226      1.0  0.17227  0.35328  0.72753  1.0000
  H   H224      1.0  0.04563  0.48083  0.62858  1.0000
  H   H225      1.0  0.05942  0.48463  0.85613  1.0000
  C   C227      1.0  0.18122  0.37176  0.72415  1.0000
  H   H226      1.0  0.16718  0.34538  0.71028  1.0000
  H   H227      1.0  0.19401  0.39626  0.74406  1.0000
  H   H228      1.0  0.10727  0.39275  0.72202  1.0000
  C   C228      1.0  0.27152  0.35050  0.55878  1.0000
  H   H229      1.0  0.06490  0.44830  0.63399  1.0000
  S   S80       1.0  0.32398  0.30541  0.67502  1.0000
  C   C229      1.0  0.04863  0.49607  0.91865  1.0000
  C   C230      1.0  0.04305  0.42636  0.61882  1.0000
  Fe  Fe43      1.0  0.31637  0.36232  0.71352  1.0000
  H   H230      1.0  0.33014  0.32981  0.62860  1.0000
  H   H231      1.0  0.21700  0.40193  0.97000  1.0000
  C   C231      1.0  0.17148  0.36028  0.53669  1.0000
  C   C232      1.0  0.01781  0.46306  0.62144  1.0000
  C   C233      1.0  0.31926  0.35880  0.53383  1.0000
  Fe  Fe44      1.0  0.00049  0.26552  0.82524  1.0000
  H   H232      1.0  0.02319  0.29628  0.98294  1.0000
  C   C234      1.0  0.00229  0.44364  0.65980  1.0000
  H   H233      1.0  0.02459  0.32394  0.89013  1.0000
  Fe  Fe45      1.0  0.32149  0.35851  0.96460  1.0000
  H   H234      1.0  0.08449  0.35278  0.51736  1.0000
  H   H235      1.0  0.07550  0.46140  0.85902  1.0000
  C   C235      1.0  0.12507  0.34670  0.50299  1.0000
  H   H236      1.0  0.00895  0.28731  0.77403  1.0000
  Fe  Fe46      1.0  0.31381  0.36620  0.65232  1.0000
  C   C236      1.0  0.32110  0.37474  0.58408  1.0000
  N   N22       1.0  0.06918  0.32822  0.49970  1.0000
  H   H237      1.0  0.06148  0.34172  0.53307  1.0000
  C   C237      1.0  0.31990  0.34734  0.78607  1.0000
  S   S81       1.0  0.01498  0.44556  0.71079  1.0000
  C   C238      1.0  0.31806  0.33925  0.81216  1.0000
  C   C239      1.0  0.22546  0.37708  0.97176  1.0000
  H   H238      1.0  0.00885  0.31556  0.71736  1.0000
  S   S82       1.0  0.09036  0.49693  0.50736  1.0000
  H   H239      1.0  0.32523  0.39993  0.56118  1.0000
  H   H240      1.0  0.00212  0.40484  0.55372  1.0000
  Fe  Fe47      1.0  0.31334  0.33017  0.67897  1.0000
  H   H241      1.0  0.31536  0.33910  0.76908  1.0000
  H   H242      1.0  0.17730  0.38430  0.51098  1.0000
  H   H243      1.0  0.08012  0.31654  0.94709  1.0000
  C   C240      1.0  0.00523  0.35521  0.55020  1.0000
  C   C241      1.0  0.18708  0.35970  0.96577  1.0000
  C   C242      1.0  0.07445  0.33933  0.52307  1.0000
  H   H244      1.0  0.01594  0.45900  0.85261  1.0000
  C   C243      1.0  0.00228  0.44957  0.63285  1.0000
  H   H245      1.0  0.18241  0.38630  0.96518  1.0000
  C   C244      1.0  0.01697  0.39316  0.96921  1.0000
  S   S83       1.0  0.00748  0.45786  0.95121  1.0000
  C   C245      1.0  0.01819  0.30674  0.71507  1.0000
  C   C246      1.0  0.03447  0.28651  0.73403  1.0000
  H   H246      1.0  0.00610  0.34143  0.54888  1.0000
  S   S84       1.0  0.32378  0.38655  0.89778  1.0000
  C   C247      1.0  0.00310  0.39108  0.55261  1.0000
  S   S85       1.0  0.32089  0.33941  0.86701  1.0000
  H   H247      1.0  0.01397  0.48678  0.71861  1.0000
  Fe  Fe48      1.0  0.32300  0.35731  0.90269  1.0000
  C   C248      1.0  0.19289  0.37855  0.96682  1.0000
  C   C249      1.0  0.04873  0.49535  0.89071  1.0000
  H   H248      1.0  0.31205  0.32478  0.81512  1.0000
  H   H249      1.0  0.17203  0.35306  0.96348  1.0000
  H   H250      1.0  0.01646  0.39146  0.94719  1.0000
  H   H251      1.0  0.02204  0.38213  0.97894  1.0000
  H   H252      1.0  0.32344  0.38584  0.51689  1.0000
  S   S86       1.0  0.32889  0.37710  0.75014  1.0000
  H   H253      1.0  0.00537  0.40922  0.48980  1.0000
  S   S87       1.0  0.05005  0.44745  0.98562  1.0000
  C   C250      1.0  0.21914  0.35824  0.97056  1.0000
  C   C251      1.0  0.32748  0.36607  0.78212  1.0000
  C   C252      1.0  0.01279  0.50149  0.65456  1.0000
  H   H254      1.0  0.24065  0.38375  0.97324  1.0000
  S   S88       1.0  0.00035  0.28108  0.50679  1.0000
  C   C253      1.0  0.32369  0.34984  0.83443  1.0000
  H   H255      1.0  0.04000  0.50204  0.87909  1.0000
  H   H256      1.0  0.04405  0.50581  0.70433  1.0000
  S   S89       1.0  0.05134  0.45270  0.48877  1.0000
  C   C254      1.0  0.33173  0.36848  0.83034  1.0000
  H   H257      1.0  0.32909  0.31347  0.50129  1.0000
  H   H258      1.0  0.13613  0.33393  0.98699  1.0000
  H   H259      1.0  0.19008  0.32394  0.98706  1.0000
  H   H260      1.0  0.05859  0.30425  0.98722  1.0000
  Fe  Fe49      1.0  0.06563  0.61814  0.24274  1.0000
  S   S90       1.0  0.03475  0.60280  0.24945  1.0000
  S   S91       1.0  0.08606  0.62377  0.27679  1.0000
  Fe  Fe50      1.0  0.06205  0.62181  0.18168  1.0000
  S   S92       1.0  0.03088  0.60667  0.18401  1.0000
  S   S93       1.0  0.07784  0.63489  0.14317  1.0000
  Fe  Fe51      1.0  0.02919  0.62321  0.21973  1.0000
  Fe  Fe52      1.0  0.03974  0.58785  0.21334  1.0000
  S   S94       1.0  0.05976  0.63976  0.21558  1.0000
  S   S95       1.0  0.07121  0.60178  0.20839  1.0000
  S   S96       1.0  0.03515  0.72641  0.12249  1.0000
  Fe  Fe53      1.0  0.07213  0.62266  0.43226  1.0000
  S   S97       1.0  0.05345  0.62246  0.39653  1.0000
  H   H261      1.0  0.17965  0.68541  0.43569  1.0000
  S   S98       1.0  0.05269  0.59987  0.03195  1.0000
  S   S99       1.0  0.10392  0.62567  0.43183  1.0000
  H   H262      1.0  0.08720  0.54836  0.24594  1.0000
  C   C255      1.0  0.14145  0.68886  0.42275  1.0000
  C   C256      1.0  0.07103  0.62470  0.11249  1.0000
  C   C257      1.0  0.05571  0.60913  0.11150  1.0000
  C   C258      1.0  0.05021  0.60165  0.08667  1.0000
  C   C259      1.0  0.06007  0.60958  0.06272  1.0000
  C   C260      1.0  0.07553  0.62502  0.06371  1.0000
  C   C261      1.0  0.08092  0.63260  0.08853  1.0000
  H   H263      1.0  0.04805  0.60287  0.12981  1.0000
  H   H264      1.0  0.03823  0.58971  0.08602  1.0000
  H   H265      1.0  0.08320  0.63124  0.04536  1.0000
  H   H266      1.0  0.09280  0.64463  0.08918  1.0000
  C   C262      1.0  0.07661  0.62223  0.31006  1.0000
  C   C263      1.0  0.05718  0.62067  0.31552  1.0000
  C   C264      1.0  0.05020  0.62034  0.34217  1.0000
  C   C265      1.0  0.06258  0.62163  0.36356  1.0000
  C   C266      1.0  0.08199  0.62305  0.35813  1.0000
  C   C267      1.0  0.08897  0.62337  0.33144  1.0000
  H   H267      1.0  0.04759  0.62011  0.29924  1.0000
  H   H268      1.0  0.03515  0.61916  0.34617  1.0000
  H   H269      1.0  0.09167  0.62412  0.37444  1.0000
  H   H270      1.0  0.10406  0.62469  0.32734  1.0000
  C   C268      1.0  0.06358  0.52454  0.25322  1.0000
  C   C269      1.0  0.01386  0.64689  0.30278  1.0000
  C   C270      1.0  0.03264  0.52732  0.23940  1.0000
  C   C271      1.0  0.04109  0.54518  0.23005  1.0000
  C   C272      1.0  0.06073  0.55277  0.23273  1.0000
  C   C273      1.0  0.07196  0.54247  0.24422  1.0000
  H   H271      1.0  0.06741  0.56644  0.22546  1.0000
  C   C274      1.0  0.07420  0.66959  0.35193  1.0000
  H   H272      1.0  0.04679  0.68317  0.33316  1.0000
  H   H273      1.0  0.08608  0.66309  0.35432  1.0000
  H   H274      1.0  0.07853  0.68307  0.36086  1.0000
  H   H275      1.0  0.06145  0.66088  0.36340  1.0000
  C   C275      1.0  0.19405  0.73626  0.45984  1.0000
  C   C276      1.0  0.06342  0.52392  0.18057  1.0000
  C   C277      1.0  0.13341  0.69178  0.44750  1.0000
  C   C278      1.0  0.05781  0.55033  0.04754  1.0000
  N   N23       1.0  0.06972  0.67154  0.32367  1.0000
  C   C279      1.0  0.07998  0.66598  0.30377  1.0000
  C   C280      1.0  0.05507  0.67888  0.31742  1.0000
  C   C281      1.0  0.07523  0.66712  0.27691  1.0000
  C   C282      1.0  0.05020  0.68058  0.29068  1.0000
  C   C283      1.0  0.06015  0.67437  0.27038  1.0000
  H   H276      1.0  0.09170  0.66026  0.30854  1.0000
  H   H277      1.0  0.08305  0.66212  0.26136  1.0000
  H   H278      1.0  0.03828  0.68604  0.28591  1.0000
  H   H279      1.0  0.05602  0.67496  0.24968  1.0000
  H   H280      1.0  0.13209  0.69495  0.01666  1.0000
  S   S100      1.0  0.07290  0.64396  0.46231  1.0000
  C   C284      1.0  0.01560  0.64763  0.15550  1.0000
  C   C285      1.0  0.17932  0.68571  0.45799  1.0000
  Fe  Fe54      1.0  0.00358  0.72562  0.11988  1.0000
  C   C286      1.0  0.07660  0.52327  0.04877  1.0000
  H   H281      1.0  0.01265  0.68769  0.45655  1.0000
  H   H282      1.0  0.16539  0.67629  0.46524  1.0000
  C   C287      1.0  0.02704  0.66835  0.44199  1.0000
  S   S101      1.0  0.07803  0.51205  0.26763  1.0000
  H   H283      1.0  0.03300  0.52979  0.06405  1.0000
  C   C288      1.0  0.03318  0.64800  0.14274  1.0000
  H   H284      1.0  0.01741  0.52141  0.23751  1.0000
  S   S102      1.0  0.02697  0.55762  0.21458  1.0000
  H   H285      1.0  0.16009  0.70116  0.38864  1.0000
  H   H286      1.0  0.07513  0.73399  0.13429  1.0000
  C   C289      1.0  0.02650  0.65492  0.42350  1.0000
  H   H287      1.0  0.11250  0.75164  0.09310  1.0000
  C   C290      1.0  0.18509  0.73895  0.48390  1.0000
  N   N24       1.0  0.07656  0.55410  0.03856  1.0000
  H   H288      1.0  0.03792  0.64824  0.42299  1.0000
  C   C291      1.0  0.10280  0.55750  0.48152  1.0000
  H   H289      1.0  0.04426  0.53124  0.31091  1.0000
  H   H290      1.0  0.14906  0.69795  0.04330  1.0000
  H   H291      1.0  0.02332  0.56388  0.30958  1.0000
  C   C292      1.0  0.05490  0.54417  0.30750  1.0000
  C   C293      1.0  0.08606  0.54091  0.03939  1.0000
  H   H292      1.0  0.07776  0.57662  0.01214  1.0000
  C   C294      1.0  0.07413  0.54518  0.31201  1.0000
  N   N25       1.0  0.04978  0.55900  0.29772  1.0000
  C   C295      1.0  0.08267  0.57668  0.29734  1.0000
  C   C296      1.0  0.06333  0.57518  0.29301  1.0000
  H   H293      1.0  0.05929  0.58697  0.28548  1.0000
  C   C297      1.0  0.08808  0.56154  0.30674  1.0000
  H   H294      1.0  0.15868  0.72984  0.02064  1.0000
  C   C298      1.0  0.15623  0.72143  0.41545  1.0000
  H   H295      1.0  0.08397  0.51268  0.04847  1.0000
  C   C299      1.0  0.03960  0.68031  0.13552  1.0000
  H   H296      1.0  0.05908  0.66482  0.12329  1.0000
  H   H297      1.0  0.04938  0.53614  0.42968  1.0000
  N   N26       1.0  0.16124  0.70540  0.00372  1.0000
  H   H298      1.0  0.10085  0.54379  0.03192  1.0000
  N   N27       1.0  0.18103  0.70409  0.46673  1.0000
  H   H299      1.0  0.12989  0.71205  0.47455  1.0000
  S   S103      1.0  0.00665  0.63823  0.22368  1.0000
  S   S104      1.0  0.00452  0.71713  0.35755  1.0000
  H   H300      1.0  0.02155  0.64250  0.31877  1.0000
  C   C300      1.0  0.05801  0.52664  0.43152  1.0000
  H   H301      1.0  0.04996  0.54280  0.16181  1.0000
  C   C301      1.0  0.08632  0.57243  0.02800  1.0000
  C   C302      1.0  0.15304  0.70361  0.40702  1.0000
  H   H302      1.0  0.04885  0.69323  0.12790  1.0000
  H   H303      1.0  0.03877  0.67204  0.45554  1.0000
  H   H304      1.0  0.08502  0.54704  0.42511  1.0000
  C   C303      1.0  0.07102  0.74646  0.13587  1.0000
  C   C304      1.0  0.19196  0.71864  0.45159  1.0000
  C   C305      1.0  0.07797  0.53272  0.42875  1.0000
  C   C306      1.0  0.00516  0.64606  0.25612  1.0000
  C   C307      1.0  0.05742  0.51925  0.05772  1.0000
  C   C308      1.0  0.13595  0.70965  0.45537  1.0000
  Fe  Fe55      1.0  0.07088  0.61111  0.99444  1.0000
  H   H305      1.0  0.14625  0.67937  0.02144  1.0000
  C   C309      1.0  0.14706  0.72443  0.43927  1.0000
  H   H306      1.0  0.07823  0.53316  0.31849  1.0000
  H   H307      1.0  0.09339  0.58949  0.29309  1.0000
  H   H308      1.0  0.05036  0.56088  0.04698  1.0000
  H   H309      1.0  0.10309  0.56240  0.30956  1.0000
  C   C310      1.0  0.01239  0.67701  0.44271  1.0000
  S   S105      1.0  0.00395  0.66866  0.33941  1.0000
  Fe  Fe56      1.0  0.10431  0.64580  0.46393  1.0000
  C   C311      1.0  0.04790  0.52927  0.17063  1.0000
  C   C312      1.0  0.04529  0.66445  0.13284  1.0000
  H   H310      1.0  0.01748  0.52167  0.16585  1.0000
  H   H311      1.0  0.14943  0.73806  0.44603  1.0000
  N   N28       1.0  0.01183  0.65033  0.40619  1.0000
  C   C313      1.0  0.02952  0.51730  0.17323  1.0000
  H   H312      1.0  0.08138  0.74498  0.07079  1.0000
  C   C314      1.0  0.04386  0.51702  0.25109  1.0000
  H   H313      1.0  0.02837  0.56510  0.27369  1.0000
  C   C315      1.0  0.02962  0.55782  0.29293  1.0000
  H   H314      1.0  0.13982  0.67517  0.41659  1.0000
  H   H315      1.0  0.02104  0.54358  0.29102  1.0000
  C   C316      1.0  0.11723  0.54857  0.48306  1.0000
  C   C317      1.0  0.01204  0.63669  0.38643  1.0000
  H   H316      1.0  0.10074  0.57335  0.01873  1.0000
  C   C318      1.0  0.01496  0.64043  0.27700  1.0000
  N   N29       1.0  0.01009  0.66323  0.15793  1.0000
  C   C319      1.0  0.00341  0.65944  0.30761  1.0000
  H   H317      1.0  0.10439  0.52522  0.43044  1.0000
  H   H318      1.0  0.13193  0.55586  0.47759  1.0000
  Fe  Fe57      1.0  0.09618  0.60392  0.46544  1.0000
  S   S106      1.0  0.10282  0.61653  0.99386  1.0000
  C   C320      1.0  0.05191  0.74651  0.13188  1.0000
  H   H319      1.0  0.07767  0.53323  0.17940  1.0000
  H   H320      1.0  0.02341  0.63112  0.27332  1.0000
  S   S107      1.0  0.17396  0.73908  0.39809  1.0000
  C   C321      1.0  0.04794  0.53285  0.05721  1.0000
  H   H321      1.0  0.02453  0.64180  0.37212  1.0000
  H   H322      1.0  0.01755  0.69183  0.15029  1.0000
  S   S108      1.0  0.06451  0.59974  0.46357  1.0000
  C   C322      1.0  0.02184  0.67944  0.14820  1.0000
  H   H323      1.0  0.03753  0.63565  0.14072  1.0000
  H   H324      1.0  0.19850  0.71676  0.43241  1.0000
  H   H325      1.0  0.08789  0.58219  0.04431  1.0000
  C   C323      1.0  0.14649  0.69389  0.02228  1.0000
  S   S109      1.0  0.10992  0.58054  0.46940  1.0000
  H   H326      1.0  0.19121  0.68069  0.46579  1.0000
  S   S110      1.0  0.12402  0.67372  0.47154  1.0000
  H   H327      1.0  0.01313  0.62392  0.39663  1.0000
  C   C324      1.0  0.16568  0.72381  0.00538  1.0000
  C   C325      1.0  0.04921  0.50829  0.43701  1.0000
  H   H328      1.0  0.20203  0.74775  0.44710  1.0000
  H   H329      1.0  0.00651  0.63480  0.16373  1.0000
  C   C326      1.0  0.08887  0.52032  0.43190  1.0000
  H   H330      1.0  0.00223  0.71259  0.48627  1.0000
  H   H331      1.0  0.05212  0.75515  0.06484  1.0000
  C   C327      1.0  0.06040  0.50675  0.19293  1.0000
  H   H332      1.0  0.18226  0.74974  0.98813  1.0000
  H   H333      1.0  0.07239  0.55431  0.48728  1.0000
  Fe  Fe58      1.0  0.06489  0.62131  0.74409  1.0000
  S   S111      1.0  0.03295  0.61162  0.74953  1.0000
  Fe  Fe59      1.0  0.06352  0.62243  0.68257  1.0000
  S   S112      1.0  0.03138  0.61283  0.68355  1.0000
  Fe  Fe60      1.0  0.03274  0.63217  0.71655  1.0000
  Fe  Fe61      1.0  0.03487  0.59328  0.71630  1.0000
  C   C328      1.0  0.04806  0.65766  0.64068  1.0000
  S   S113      1.0  0.06464  0.64337  0.71337  1.0000
  S   S114      1.0  0.06702  0.60137  0.71293  1.0000
  Fe  Fe62      1.0  0.07076  0.61738  0.93322  1.0000
  S   S115      1.0  0.05072  0.61732  0.89921  1.0000
  S   S116      1.0  0.04770  0.61756  0.52932  1.0000
  H   H334      1.0  0.07192  0.72900  0.63574  1.0000
  C   C329      1.0  0.07222  0.62702  0.61278  1.0000
  C   C330      1.0  0.05275  0.61856  0.61001  1.0000
  C   C331      1.0  0.04526  0.61616  0.58430  1.0000
  C   C332      1.0  0.05722  0.62204  0.56124  1.0000
  H   H335      1.0  0.04349  0.61364  0.62758  1.0000
  H   H336      1.0  0.03022  0.60946  0.58225  1.0000
  C   C333      1.0  0.05501  0.62010  0.81790  1.0000
  C   C334      1.0  0.04780  0.61816  0.84465  1.0000
  C   C335      1.0  0.06033  0.62081  0.86594  1.0000
  H   H337      1.0  0.04524  0.61792  0.80174  1.0000
  H   H338      1.0  0.03248  0.61437  0.84891  1.0000
  C   C336      1.0  0.02289  0.65341  0.77021  1.0000
  H   H339      1.0  0.02844  0.65319  0.81236  1.0000
  H   H340      1.0  0.03443  0.64760  0.76483  1.0000
  C   C337      1.0  0.04810  0.53004  0.76785  1.0000
  C   C338      1.0  0.05376  0.54892  0.76864  1.0000
  C   C339      1.0  0.04413  0.55941  0.75398  1.0000
  C   C340      1.0  0.02870  0.55103  0.73854  1.0000
  C   C341      1.0  0.02254  0.53209  0.73851  1.0000
  H   H341      1.0  0.04871  0.57398  0.75459  1.0000
  S   S117      1.0  0.01734  0.56420  0.71891  1.0000
  S   S118      1.0  0.03141  0.72241  0.62804  1.0000
  S   S119      1.0  0.06661  0.59248  0.96012  1.0000
  C   C342      1.0  0.03843  0.65711  0.92666  1.0000
  C   C343      1.0  0.02941  0.65917  0.64505  1.0000
  C   C344      1.0  0.06847  0.74179  0.63736  1.0000
  C   C345      1.0  0.03246  0.66052  0.95246  1.0000
  C   C346      1.0  0.05242  0.67930  0.60325  1.0000
  C   C347      1.0  0.05959  0.66774  0.61959  1.0000
  S   S120      1.0  0.07138  0.63545  0.96785  1.0000
  C   C348      1.0  0.01957  0.65671  0.79713  1.0000
  C   C349      1.0  0.03232  0.52159  0.75307  1.0000
  C   C350      1.0  0.01680  0.74849  0.74169  1.0000
  H   H342      1.0  0.04890  0.64944  0.92456  1.0000
  C   C351      1.0  0.04946  0.74255  0.63428  1.0000
  H   H343      1.0  0.01039  0.52558  0.72698  1.0000
  C   C352      1.0  0.03375  0.68064  0.60837  1.0000
  H   H344      1.0  0.06124  0.68720  0.58677  1.0000
  H   H345      1.0  0.01808  0.70523  0.75500  1.0000
  N   N30       1.0  0.02259  0.67077  0.62923  1.0000
  S   S121      1.0  0.06106  0.51742  0.78551  1.0000
  H   H346      1.0  0.02047  0.65102  0.66120  1.0000
  S   S122      1.0  0.01339  0.65071  0.71758  1.0000
  C   C353      1.0  0.01809  0.71739  0.74323  1.0000
  C   C354      1.0  0.01763  0.67271  0.90711  1.0000
  C   C355      1.0  0.05168  0.57470  0.54582  1.0000
  H   H347      1.0  0.04770  0.55969  0.54734  1.0000
  H   H348      1.0  0.04940  0.50939  0.66902  1.0000
  C   C356      1.0  0.01880  0.67020  0.95537  1.0000
  H   H349      1.0  0.02831  0.68978  0.59572  1.0000
  H   H350      1.0  0.06059  0.58320  0.83637  1.0000
  C   C357      1.0  0.07482  0.62471  0.81226  1.0000
  H   H351      1.0  0.06586  0.55542  0.78022  1.0000
  C   C358      1.0  0.01706  0.74838  0.71370  1.0000
  N   N31       1.0  0.01883  0.71755  0.71574  1.0000
  H   H352      1.0  0.03833  0.65560  0.97004  1.0000
  C   C359      1.0  0.03707  0.65914  0.87755  1.0000
  H   H353      1.0  0.00047  0.68361  0.93459  1.0000
  C   C360      1.0  0.01804  0.73268  0.70098  1.0000
  H   H354      1.0  0.06262  0.58479  0.59500  1.0000
  N   N32       1.0  0.03117  0.66337  0.90440  1.0000
  H   H355      1.0  0.04130  0.57971  0.55818  1.0000
  H   H356      1.0  0.01166  0.67752  0.88956  1.0000
  H   H357      1.0  0.03767  0.67047  0.86276  1.0000
  H   H358      1.0  0.06483  0.52161  0.50236  1.0000
  H   H359      1.0  0.02176  0.51020  0.63892  1.0000
  H   H360      1.0  0.05152  0.65669  0.87738  1.0000
  C   C361      1.0  0.01721  0.73289  0.75661  1.0000
  H   H361      1.0  0.05030  0.57929  0.52474  1.0000
  H   H362      1.0  0.05352  0.64864  0.65342  1.0000
  H   H363      1.0  0.02662  0.64679  0.87090  1.0000
  H   H364      1.0  0.05575  0.57912  0.88578  1.0000
  C   C362      1.0  0.06956  0.57950  0.87630  1.0000
  C   C363      1.0  0.07661  0.63078  0.56405  1.0000
  C   C364      1.0  0.00292  0.67204  0.63381  1.0000
  C   C365      1.0  0.01117  0.65741  0.75048  1.0000
  H   H365      1.0  0.01630  0.73273  0.77842  1.0000
  H   H366      1.0  0.07412  0.55050  0.97065  1.0000
  H   H367      1.0  0.02713  0.70444  0.68217  1.0000
  Fe  Fe63      1.0  0.06863  0.62145  0.49364  1.0000
  C   C366      1.0  0.08012  0.62579  0.86031  1.0000
  C   C367      1.0  0.00467  0.66423  0.80441  1.0000
  C   C368      1.0  0.07242  0.58189  0.84837  1.0000
  C   C369      1.0  0.03904  0.51059  0.68528  1.0000
  C   C370      1.0  0.01934  0.70108  0.70205  1.0000
  N   N33       1.0  0.07133  0.58202  0.55444  1.0000
  H   H368      1.0  0.01809  0.73269  0.67922  1.0000
  H   H369      1.0  0.02692  0.69280  0.71392  1.0000
  H   H370      1.0  0.07401  0.66645  0.61591  1.0000
  S   S123      1.0  0.08235  0.62987  0.64454  1.0000
  C   C371      1.0  0.08016  0.52487  0.98109  1.0000
  C   C372      1.0  0.07454  0.58624  0.58064  1.0000
  C   C373      1.0  0.01125  0.67624  0.93258  1.0000
  H   H371      1.0  0.00449  0.69276  0.69911  1.0000
  Fe  Fe64      1.0  0.00033  0.72231  0.62169  1.0000
  H   H372      1.0  0.00519  0.62114  0.82277  1.0000
  H   H373      1.0  0.03932  0.52504  0.68707  1.0000
  H   H374      1.0  0.01400  0.67299  0.97520  1.0000
  C   C374      1.0  0.07947  0.52914  0.49720  1.0000
  H   H375      1.0  0.06540  0.51783  0.98646  1.0000
  H   H376      1.0  0.07989  0.58700  0.79720  1.0000
  H   H377      1.0  0.02767  0.50699  0.75308  1.0000
  H   H378      1.0  0.00585  0.71692  0.98695  1.0000
  H   H379      1.0  0.00224  0.68620  0.63020  1.0000
  S   S124      1.0  0.99935  0.66594  0.83861  1.0000
  C   C375      1.0  0.10870  0.59513  0.57077  1.0000
  H   H380      1.0  0.14276  0.67073  0.92149  1.0000
  H   H381      1.0  0.08281  0.57627  0.91365  1.0000
  C   C376      1.0  0.08477  0.57813  0.89197  1.0000
  C   C377      1.0  0.11300  0.53029  0.49154  1.0000
  H   H382      1.0  0.08388  0.58046  0.51568  1.0000
  C   C378      1.0  0.08640  0.58383  0.53641  1.0000
  C   C379      1.0  0.08406  0.63328  0.58975  1.0000
  S   S125      1.0  0.08450  0.62601  0.77912  1.0000
  C   C380      1.0  0.09325  0.59304  0.58915  1.0000
  N   N34       1.0  0.09002  0.58311  0.83645  1.0000
  C   C381      1.0  0.10264  0.57932  0.87968  1.0000
  H   H383      1.0  0.11454  0.57839  0.89189  1.0000
  H   H384      1.0  0.11900  0.58288  0.84226  1.0000
  C   C382      1.0  0.09417  0.52034  0.49851  1.0000
  H   H385      1.0  0.18929  0.70277  0.94927  1.0000
  H   H386      1.0  0.12449  0.52376  0.49252  1.0000
  C   C383      1.0  0.15450  0.69930  0.91117  1.0000
  H   H387      1.0  0.16554  0.68328  0.98189  1.0000
  H   H388      1.0  0.13121  0.73480  0.86069  1.0000
  Fe  Fe65      1.0  0.10343  0.63990  0.96450  1.0000
  H   H389      1.0  0.16364  0.72506  0.77532  1.0000
  H   H390      1.0  0.12466  0.51819  0.97793  1.0000
  H   H391      1.0  0.12540  0.75397  0.53550  1.0000
  C   C384      1.0  0.12806  0.74986  0.80369  1.0000
  C   C385      1.0  0.11347  0.52506  0.97635  1.0000
  C   C386      1.0  0.10504  0.58185  0.85171  1.0000
  C   C387      1.0  0.13133  0.68704  0.94813  1.0000
  C   C388      1.0  0.09448  0.51567  0.98344  1.0000
  H   H392      1.0  0.18640  0.75258  0.49026  1.0000
  C   C389      1.0  0.18314  0.70877  0.96548  1.0000
  H   H393      1.0  0.15417  0.75143  0.85677  1.0000
  C   C390      1.0  0.18772  0.72754  0.96699  1.0000
  C   C391      1.0  0.17231  0.70658  0.49049  1.0000
  C   C392      1.0  0.15347  0.73188  0.78320  1.0000
  C   C393      1.0  0.08733  0.62769  0.83357  1.0000
  H   H394      1.0  0.16172  0.73019  0.82410  1.0000
  C   C394      1.0  0.13941  0.74729  0.84922  1.0000
  H   H395      1.0  0.14376  0.73347  0.94434  1.0000
  C   C395      1.0  0.13158  0.70489  0.95413  1.0000
  H   H396      1.0  0.11985  0.75232  0.76270  1.0000
  C   C396      1.0  0.14253  0.68433  0.92612  1.0000
  C   C397      1.0  0.17417  0.72404  0.49942  1.0000
  H   H397      1.0  0.19752  0.73617  0.95202  1.0000
  C   C398      1.0  0.15528  0.71714  0.91782  1.0000
  C   C399      1.0  0.08512  0.54344  0.97227  1.0000
  H   H398      1.0  0.11712  0.59188  0.52965  1.0000
  H   H399      1.0  0.12326  0.60052  0.57704  1.0000
  H   H400      1.0  0.14284  0.73649  0.74435  1.0000
  H   H401      1.0  0.10267  0.63139  0.82939  1.0000
  H   H402      1.0  0.08992  0.62810  0.87647  1.0000
  C   C400      1.0  0.14333  0.71985  0.93895  1.0000
  C   C401      1.0  0.10529  0.59037  0.54425  1.0000
  H   H403      1.0  0.16371  0.69703  0.89492  1.0000
  H   H404      1.0  0.08587  0.63568  0.54648  1.0000
  H   H405      1.0  0.16336  0.69505  0.50225  1.0000
  H   H406      1.0  0.09567  0.59698  0.60976  1.0000
  H   H407      1.0  0.12307  0.70719  0.97116  1.0000
  H   H408      1.0  0.16693  0.72599  0.51799  1.0000
  C   C402      1.0  0.09308  0.58592  0.80722  1.0000
  H   H409      1.0  0.10427  0.59880  0.80219  1.0000
  H   H410      1.0  0.09756  0.57447  0.79858  1.0000
  C   C403      1.0  0.14165  0.73812  0.76585  1.0000
  C   C404      1.0  0.11831  0.54325  0.96724  1.0000
  S   S126      1.0  0.10275  0.62273  0.92851  1.0000
  N   N35       1.0  0.14001  0.74404  0.82046  1.0000
  S   S127      1.0  0.09997  0.62437  0.49744  1.0000
  S   S128      1.0  0.17276  0.73546  0.90116  1.0000
  S   S129      1.0  0.12023  0.66912  0.97181  1.0000
  C   C405      1.0  0.12874  0.74703  0.77614  1.0000
  C   C406      1.0  0.15238  0.73490  0.81067  1.0000
  C   C407      1.0  0.10435  0.55270  0.96534  1.0000
  S   S130      1.0  0.11222  0.57575  0.95337  1.0000
  H   H411      1.0  0.09912  0.63997  0.59175  1.0000
  Fe  Fe66      1.0  0.09848  0.59885  0.95825  1.0000
  H   H412      1.0  0.13314  0.55010  0.96181  1.0000
  C   C408      1.0  0.08379  0.54774  0.48878  1.0000
  C   C409      1.0  0.16971  0.69782  0.98403  1.0000
  C   C410      1.0  0.17900  0.73515  0.98710  1.0000
  Fe  Fe67      1.0  0.30413  0.94865  0.18439  1.0000
  S   S131      1.0  0.31714  0.92543  0.18902  1.0000
  S   S132      1.0  0.29536  0.96119  0.22129  1.0000
  Fe  Fe68      1.0  0.30497  0.94745  0.12290  1.0000
  S   S133      1.0  0.31849  0.92441  0.12373  1.0000
  S   S134      1.0  0.29509  0.95834  0.08455  1.0000
  Fe  Fe69      1.0  0.29680  0.91266  0.15752  1.0000
  S   S135      1.0  0.27933  0.88311  0.15925  1.0000
  H   H413      1.0  0.29916  0.89585  0.07278  1.0000
  S   S136      1.0  0.28243  0.93496  0.15516  1.0000
  C   C411      1.0  0.09228  0.78725  0.21936  1.0000
  Fe  Fe70      1.0  0.17000  0.82808  0.15515  1.0000
  S   S137      1.0  0.18311  0.80479  0.15646  1.0000
  S   S138      1.0  0.18788  0.85724  0.15881  1.0000
  Fe  Fe71      1.0  0.12892  0.80233  0.15182  1.0000
  S   S139      1.0  0.13977  0.77773  0.15348  1.0000
  S   S140      1.0  0.09704  0.79966  0.14845  1.0000
  Fe  Fe72      1.0  0.15859  0.79173  0.18566  1.0000
  S   S141      1.0  0.16336  0.77706  0.22392  1.0000
  Fe  Fe73      1.0  0.16273  0.79368  0.12406  1.0000
  S   S142      1.0  0.17071  0.78022  0.08737  1.0000
  S   S143      1.0  0.14630  0.81553  0.18594  1.0000
  S   S144      1.0  0.15103  0.81786  0.12083  1.0000
  Fe  Fe74      1.0  0.16483  0.79963  0.37321  1.0000
  S   S145      1.0  0.19120  0.78972  0.37066  1.0000
  S   S146      1.0  0.15264  0.80980  0.33650  1.0000
  Fe  Fe75      1.0  0.16280  0.79648  0.43465  1.0000
  S   S147      1.0  0.18886  0.78608  0.43620  1.0000
  H   H414      1.0  0.16974  0.76590  0.27764  1.0000
  Fe  Fe76      1.0  0.20144  0.80818  0.40449  1.0000
  S   S148      1.0  0.23123  0.82743  0.40830  1.0000
  H   H415      1.0  0.20182  0.80088  0.30751  1.0000
  S   S149      1.0  0.17606  0.81937  0.40497  1.0000
  Fe  Fe77      1.0  0.29951  0.97478  0.40265  1.0000
  H   H416      1.0  0.03385  0.79334  0.19282  1.0000
  Fe  Fe78      1.0  0.27800  0.93391  0.40076  1.0000
  S   S150      1.0  0.30564  0.92609  0.39893  1.0000
  S   S151      1.0  0.24904  0.91344  0.39581  1.0000
  Fe  Fe79      1.0  0.31480  0.94633  0.43094  1.0000
  H   H417      1.0  0.03219  0.76302  0.13138  1.0000
  Fe  Fe80      1.0  0.31576  0.94978  0.36935  1.0000
  S   S152      1.0  0.33255  0.94774  0.33107  1.0000
  S   S153      1.0  0.28647  0.95291  0.43460  1.0000
  S   S154      1.0  0.28762  0.95663  0.36935  1.0000
  C   C412      1.0  0.29076  0.91277  0.28694  1.0000
  Fe  Fe81      1.0  0.17549  0.76883  0.40252  1.0000
  H   H418      1.0  0.32268  0.93917  0.06651  1.0000
  C   C413      1.0  0.26007  0.91792  0.29336  1.0000
  C   C414      1.0  0.31154  0.94291  0.00077  1.0000
  H   H419      1.0  0.24972  0.91775  0.33469  1.0000
  H   H420      1.0  0.21849  0.82307  0.30908  1.0000
  C   C415      1.0  0.26130  0.91635  0.32129  1.0000
  C   C416      1.0  0.18921  0.86729  0.45160  1.0000
  H   H421      1.0  0.18794  0.84181  0.28863  1.0000
  H   H422      1.0  0.20965  0.79928  0.26003  1.0000
  H   H423      1.0  0.06948  0.76651  0.25814  1.0000
  H   H424      1.0  0.24734  0.92055  0.28517  1.0000
  C   C417      1.0  0.23644  0.85127  0.40257  1.0000
  C   C418      1.0  0.25469  0.86225  0.40832  1.0000
  C   C419      1.0  0.25900  0.88129  0.40555  1.0000
  C   C420      1.0  0.24508  0.88956  0.39696  1.0000
  C   C421      1.0  0.22701  0.87858  0.39050  1.0000
  C   C422      1.0  0.22269  0.85956  0.39335  1.0000
  H   H425      1.0  0.26547  0.85599  0.41535  1.0000
  H   H426      1.0  0.27296  0.88953  0.41066  1.0000
  H   H427      1.0  0.21613  0.88482  0.38380  1.0000
  H   H428      1.0  0.20864  0.85135  0.38865  1.0000
  C   C423      1.0  0.15856  0.78512  0.25543  1.0000
  C   C424      1.0  0.16367  0.77728  0.27894  1.0000
  C   C425      1.0  0.16128  0.78430  0.30413  1.0000
  C   C426      1.0  0.15381  0.79924  0.30590  1.0000
  C   C427      1.0  0.14813  0.80669  0.28253  1.0000
  C   C428      1.0  0.15050  0.79967  0.25742  1.0000
  H   H429      1.0  0.14222  0.81817  0.28381  1.0000
  H   H430      1.0  0.14630  0.80571  0.23966  1.0000
  C   C429      1.0  0.15317  0.79521  0.00394  1.0000
  C   C430      1.0  0.16394  0.78269  0.00698  1.0000
  C   C431      1.0  0.16938  0.77830  0.03264  1.0000
  C   C432      1.0  0.16417  0.78646  0.05537  1.0000
  C   C433      1.0  0.15341  0.79897  0.05223  1.0000
  C   C434      1.0  0.14784  0.80325  0.02665  1.0000
  S   S155      1.0  0.29866  0.00411  0.40442  1.0000
  S   S156      1.0  0.14882  0.80383  0.47207  1.0000
  H   H431      1.0  0.14930  0.80533  0.06944  1.0000
  H   H432      1.0  0.13949  0.81292  0.02442  1.0000
  C   C435      1.0  0.07991  0.77883  0.14303  1.0000
  C   C436      1.0  0.06073  0.77879  0.13959  1.0000
  H   H433      1.0  0.26422  0.90400  0.24048  1.0000
  H   H434      1.0  0.19037  0.83352  0.20403  1.0000
  H   H435      1.0  0.18220  0.85062  0.24185  1.0000
  N   N36       1.0  0.27475  0.91621  0.27660  1.0000
  H   H436      1.0  0.05665  0.79131  0.14059  1.0000
  H   H437      1.0  0.22473  0.90667  0.10326  1.0000
  H   H438      1.0  0.20383  0.80751  0.21331  1.0000
  C   C437      1.0  0.21325  0.86392  0.16058  1.0000
  C   C438      1.0  0.22263  0.88221  0.16419  1.0000
  C   C439      1.0  0.24281  0.88824  0.16436  1.0000
  C   C440      1.0  0.25385  0.87601  0.16097  1.0000
  C   C441      1.0  0.24445  0.85766  0.15794  1.0000
  C   C442      1.0  0.22427  0.85164  0.15765  1.0000
  H   H439      1.0  0.21424  0.89182  0.16652  1.0000
  H   H440      1.0  0.24978  0.90238  0.16682  1.0000
  H   H441      1.0  0.25284  0.84807  0.15539  1.0000
  H   H442      1.0  0.21731  0.83755  0.15477  1.0000
  C   C443      1.0  0.30093  0.95131  0.05276  1.0000
  C   C444      1.0  0.31521  0.94234  0.04935  1.0000
  C   C445      1.0  0.06161  0.79138  0.20509  1.0000
  H   H443      1.0  0.08444  0.80960  0.07894  1.0000
  C   C446      1.0  0.32050  0.93818  0.02344  1.0000
  C   C447      1.0  0.29159  0.95558  0.03019  1.0000
  C   C448      1.0  0.27178  0.90948  0.09016  1.0000
  C   C449      1.0  0.18847  0.84952  0.45993  1.0000
  H   H444      1.0  0.09553  0.77762  0.20498  1.0000
  H   H445      1.0  0.28050  0.96248  0.03268  1.0000
  C   C450      1.0  0.30677  0.95845  0.25124  1.0000
  H   H446      1.0  0.05354  0.78765  0.06876  1.0000
  C   C451      1.0  0.08373  0.79545  0.07654  1.0000
  H   H447      1.0  0.17625  0.87072  0.44588  1.0000
  C   C452      1.0  0.30712  0.95962  0.29991  1.0000
  C   C453      1.0  0.29901  0.96250  0.27552  1.0000
  H   H448      1.0  0.22304  0.87394  0.10281  1.0000
  H   H449      1.0  0.27872  0.91175  0.35358  1.0000
  H   H450      1.0  0.30102  0.96283  0.31829  1.0000
  H   H451      1.0  0.28653  0.96769  0.27548  1.0000
  H   H452      1.0  0.19352  0.81914  0.31940  1.0000
  H   H453      1.0  0.09919  0.78577  0.23861  1.0000
  C   C454      1.0  0.25349  0.87876  0.09422  1.0000
  C   C455      1.0  0.29686  0.95139  0.00431  1.0000
  C   C456      1.0  0.23664  0.88404  0.09864  1.0000
  H   H454      1.0  0.19031  0.81679  0.47010  1.0000
  H   H455      1.0  0.28546  0.91951  0.08721  1.0000
  H   H456      1.0  0.28541  0.87262  0.07569  1.0000
  H   H457      1.0  0.33195  0.93171  0.02086  1.0000
  C   C457      1.0  0.06641  0.78314  0.07088  1.0000
  C   C458      1.0  0.08494  0.76252  0.14153  1.0000
  C   C459      1.0  0.32303  0.95262  0.30035  1.0000
  H   H458      1.0  0.29456  0.88420  0.10541  1.0000
  C   C460      1.0  0.32299  0.95182  0.25147  1.0000
  H   H459      1.0  0.06922  0.80031  0.18866  1.0000
  C   C461      1.0  0.06562  0.76491  0.06859  1.0000
  C   C462      1.0  0.29249  0.91122  0.31475  1.0000
  C   C463      1.0  0.27762  0.91296  0.33197  1.0000
  H   H460      1.0  0.30247  0.91154  0.27370  1.0000
  H   H461      1.0  0.30545  0.90904  0.32292  1.0000
  C   C464      1.0  0.08222  0.75923  0.07214  1.0000
  H   H462      1.0  0.16781  0.77623  0.98964  1.0000
  H   H463      1.0  0.20771  0.89425  0.44334  1.0000
  N   N37       1.0  0.09905  0.77133  0.07819  1.0000
  H   H464      1.0  0.29050  0.98958  0.32829  1.0000
  H   H465      1.0  0.17474  0.83935  0.46089  1.0000
  H   H466      1.0  0.09897  0.80122  0.21095  1.0000
  C   C465      1.0  0.22334  0.87580  0.45753  1.0000
  H   H467      1.0  0.26588  0.92798  0.24155  1.0000
  H   H468      1.0  0.28705  0.92082  0.23651  1.0000
  H   H469      1.0  0.23516  0.85414  0.46991  1.0000
  C   C466      1.0  0.31727  0.99950  0.00812  1.0000
  C   C467      1.0  0.28832  0.88573  0.08565  1.0000
  H   H470      1.0  0.09957  0.76226  0.14436  1.0000
  H   H471      1.0  0.23712  0.88589  0.45601  1.0000
  C   C468      1.0  0.04680  0.76273  0.13422  1.0000
  H   H472      1.0  0.03405  0.75993  0.26366  1.0000
  N   N38       1.0  0.19945  0.82027  0.27699  1.0000
  C   C469      1.0  0.20400  0.81081  0.25619  1.0000
  C   C470      1.0  0.19186  0.83452  0.27209  1.0000
  C   C471      1.0  0.20083  0.81544  0.22966  1.0000
  C   C472      1.0  0.18853  0.83953  0.24577  1.0000
  C   C473      1.0  0.19308  0.82992  0.22448  1.0000
  C   C474      1.0  0.20360  0.81567  0.30455  1.0000
  C   C475      1.0  0.20679  0.88049  0.45038  1.0000
  S   S157      1.0  0.14850  0.77788  0.40305  1.0000
  S   S158      1.0  0.32504  0.96392  0.15195  1.0000
  H   H473      1.0  0.16546  0.77829  0.32211  1.0000
  N   N39       1.0  0.07143  0.78390  0.22319  1.0000
  C   C476      1.0  0.27282  0.91721  0.24742  1.0000
  N   N40       1.0  0.27072  0.89145  0.08964  1.0000
  H   H474      1.0  0.25275  0.86446  0.09517  1.0000
  C   C477      1.0  0.11620  0.76501  0.08202  1.0000
  C   C478      1.0  0.10003  0.78929  0.08001  1.0000
  C   C479      1.0  0.25529  0.91526  0.09479  1.0000
  H   H475      1.0  0.25637  0.92963  0.09543  1.0000
  C   C480      1.0  0.06177  0.77258  0.24389  1.0000
  H   H476      1.0  0.11332  0.79890  0.08496  1.0000
  C   C481      1.0  0.23760  0.90242  0.09905  1.0000
  N   N41       1.0  0.20487  0.84497  0.46634  1.0000
  H   H477      1.0  0.17764  0.76856  0.03495  1.0000
  C   C482      1.0  0.03170  0.77622  0.22855  1.0000
  H   H478      1.0  0.21575  0.82189  0.46526  1.0000
  C   C483      1.0  0.22214  0.85784  0.46533  1.0000
  C   C484      1.0  0.04162  0.78758  0.20740  1.0000
  H   H479      1.0  0.12680  0.77444  0.09412  1.0000
  C   C485      1.0  0.32534  0.99502  0.03166  1.0000
  H   H480      1.0  0.01623  0.77325  0.23057  1.0000
  S   S159      1.0  0.32824  0.96912  0.40101  1.0000
  H   H481      1.0  0.32017  0.99803  0.05117  1.0000
  C   C486      1.0  0.04177  0.76871  0.24704  1.0000
  H   H482      1.0  0.32936  0.94903  0.23279  1.0000
  C   C487      1.0  0.20400  0.82639  0.47530  1.0000
  H   H483      1.0  0.12320  0.76396  0.06223  1.0000
  H   H484      1.0  0.20308  0.82489  0.99598  1.0000
  H   H485      1.0  0.31491  0.00080  0.29092  1.0000
  H   H486      1.0  0.30766  0.96342  0.48333  1.0000
  C   C488      1.0  0.29556  0.00392  0.32300  1.0000
  C   C489      1.0  0.33110  0.94893  0.27598  1.0000
  S   S160      1.0  0.33091  0.93989  0.46666  1.0000
  H   H487      1.0  0.32894  0.00363  0.36492  1.0000
  H   H488      1.0  0.30596  0.00627  0.00962  1.0000
  Fe  Fe82      1.0  0.30337  0.94544  0.68184  1.0000
  S   S161      1.0  0.31530  0.92160  0.68784  1.0000
  S   S162      1.0  0.29149  0.95697  0.71729  1.0000
  Fe  Fe83      1.0  0.30863  0.94594  0.62059  1.0000
  S   S163      1.0  0.32090  0.92218  0.62253  1.0000
  S   S164      1.0  0.30385  0.95963  0.58149  1.0000
  Fe  Fe84      1.0  0.29699  0.91021  0.65343  1.0000
  S   S165      1.0  0.27877  0.88100  0.65205  1.0000
  H   H489      1.0  0.20265  0.89299  0.94225  1.0000
  S   S166      1.0  0.28373  0.93324  0.64937  1.0000
  N   N42       1.0  0.32319  0.99498  0.98362  1.0000
  Fe  Fe85      1.0  0.16955  0.82473  0.65378  1.0000
  S   S167      1.0  0.18383  0.80228  0.65359  1.0000
  S   S168      1.0  0.18700  0.85418  0.65644  1.0000
  Fe  Fe86      1.0  0.12888  0.79751  0.65333  1.0000
  S   S169      1.0  0.14105  0.77362  0.65358  1.0000
  S   S170      1.0  0.09676  0.79444  0.65081  1.0000
  Fe  Fe87      1.0  0.16077  0.78841  0.68439  1.0000
  S   S171      1.0  0.16974  0.77572  0.72181  1.0000
  Fe  Fe88      1.0  0.16256  0.79028  0.62278  1.0000
  S   S172      1.0  0.17031  0.77719  0.58556  1.0000
  S   S173      1.0  0.14732  0.81144  0.68620  1.0000
  S   S174      1.0  0.14947  0.81362  0.62102  1.0000
  Fe  Fe89      1.0  0.16182  0.79411  0.87382  1.0000
  S   S175      1.0  0.18892  0.78544  0.87219  1.0000
  S   S176      1.0  0.14695  0.79923  0.83623  1.0000
  Fe  Fe90      1.0  0.16072  0.79358  0.93540  1.0000
  S   S177      1.0  0.18750  0.78434  0.93746  1.0000
  N   N43       1.0  0.10555  0.79034  0.56856  1.0000
  Fe  Fe91      1.0  0.19867  0.80566  0.90412  1.0000
  S   S178      1.0  0.22774  0.82645  0.90656  1.0000
  H   H490      1.0  0.20696  0.80558  0.70866  1.0000
  S   S179      1.0  0.17238  0.81552  0.90359  1.0000
  Fe  Fe92      1.0  0.29259  0.97438  0.90008  1.0000
  H   H491      1.0  0.11363  0.78051  0.60568  1.0000
  Fe  Fe93      1.0  0.27000  0.93348  0.89872  1.0000
  S   S180      1.0  0.29718  0.92497  0.89908  1.0000
  S   S181      1.0  0.24156  0.91224  0.89337  1.0000
  Fe  Fe94      1.0  0.30581  0.94549  0.93078  1.0000
  S   S182      1.0  0.14620  0.80119  0.97214  1.0000
  Fe  Fe95      1.0  0.30847  0.94816  0.86894  1.0000
  H   H492      1.0  0.26936  0.91630  0.84578  1.0000
  S   S183      1.0  0.27798  0.95303  0.93205  1.0000
  S   S184      1.0  0.28089  0.95590  0.86704  1.0000
  H   H493      1.0  0.26868  0.93421  0.53966  1.0000
  H   H494      1.0  0.29828  0.98830  0.82470  1.0000
  C   C490      1.0  0.32415  0.94605  0.49860  1.0000
  H   H495      1.0  0.24395  0.93344  0.57565  1.0000
  H   H496      1.0  0.21284  0.82133  0.96323  1.0000
  C   C491      1.0  0.27714  0.90742  0.83597  1.0000
  C   C492      1.0  0.10478  0.78858  0.54135  1.0000
  H   H497      1.0  0.24906  0.91833  0.75752  1.0000
  H   H498      1.0  0.17572  0.78118  0.81888  1.0000
  H   H499      1.0  0.32686  0.94848  0.73206  1.0000
  H   H500      1.0  0.29745  0.89222  0.54407  1.0000
  H   H501      1.0  0.26381  0.94262  0.59667  1.0000
  H   H502      1.0  0.17176  0.86868  0.94446  1.0000
  C   C493      1.0  0.23168  0.85023  0.90092  1.0000
  C   C494      1.0  0.24966  0.86190  0.90627  1.0000
  C   C495      1.0  0.25309  0.88087  0.90340  1.0000
  C   C496      1.0  0.23856  0.88843  0.89500  1.0000
  C   C497      1.0  0.22074  0.87676  0.88897  1.0000
  C   C498      1.0  0.21728  0.85779  0.89202  1.0000
  H   H503      1.0  0.26094  0.85624  0.91309  1.0000
  H   H504      1.0  0.26685  0.88959  0.90827  1.0000
  H   H505      1.0  0.20939  0.88242  0.88242  1.0000
  H   H506      1.0  0.20342  0.84906  0.88761  1.0000
  C   C499      1.0  0.16372  0.78284  0.75335  1.0000
  C   C500      1.0  0.17319  0.77907  0.77607  1.0000
  C   C501      1.0  0.16840  0.78424  0.80157  1.0000
  C   C502      1.0  0.15392  0.79303  0.80456  1.0000
  C   C503      1.0  0.14441  0.79672  0.78185  1.0000
  C   C504      1.0  0.14933  0.79171  0.75632  1.0000
  H   H507      1.0  0.13310  0.80341  0.78401  1.0000
  H   H508      1.0  0.14165  0.79435  0.73911  1.0000
  C   C505      1.0  0.15645  0.79718  0.50298  1.0000
  C   C506      1.0  0.16381  0.78215  0.50540  1.0000
  C   C507      1.0  0.16856  0.77643  0.53077  1.0000
  C   C508      1.0  0.16605  0.78575  0.55373  1.0000
  C   C509      1.0  0.15925  0.80109  0.55102  1.0000
  C   C510      1.0  0.15435  0.80671  0.52579  1.0000
  C   C511      1.0  0.28318  0.91327  0.53847  1.0000
  C   C512      1.0  0.25402  0.92990  0.58987  1.0000
  H   H509      1.0  0.15756  0.80855  0.56834  1.0000
  H   H510      1.0  0.14873  0.81839  0.52401  1.0000
  C   C513      1.0  0.07886  0.77412  0.64484  1.0000
  C   C514      1.0  0.05983  0.77483  0.64189  1.0000
  C   C515      1.0  0.21840  0.85734  0.96418  1.0000
  S   S185      1.0  0.32027  0.93952  0.96839  1.0000
  C   C516      1.0  0.27018  0.90563  0.59155  1.0000
  Fe  Fe96      1.0  0.17426  0.76530  0.90553  1.0000
  H   H511      1.0  0.05636  0.78761  0.64360  1.0000
  S   S186      1.0  0.32673  0.96097  0.65267  1.0000
  S   S187      1.0  0.29292  0.00419  0.90030  1.0000
  C   C517      1.0  0.21254  0.86136  0.65546  1.0000
  C   C518      1.0  0.22189  0.87966  0.65915  1.0000
  C   C519      1.0  0.24211  0.88586  0.65848  1.0000
  C   C520      1.0  0.25324  0.87381  0.65400  1.0000
  C   C521      1.0  0.24388  0.85551  0.65050  1.0000
  C   C522      1.0  0.22368  0.84931  0.65123  1.0000
  H   H512      1.0  0.21343  0.88909  0.66255  1.0000
  H   H513      1.0  0.24903  0.89995  0.66151  1.0000
  H   H514      1.0  0.25231  0.84607  0.64697  1.0000
  H   H515      1.0  0.21678  0.83524  0.64815  1.0000
  C   C523      1.0  0.31264  0.95474  0.54998  1.0000
  N   N44       1.0  0.20144  0.84405  0.96507  1.0000
  H   H516      1.0  0.18423  0.77206  0.77395  1.0000
  H   H517      1.0  0.09555  0.81423  0.56663  1.0000
  H   H518      1.0  0.10821  0.81135  0.59606  1.0000
  C   C524      1.0  0.30671  0.96204  0.52664  1.0000
  H   H519      1.0  0.11177  0.77445  0.50736  1.0000
  C   C525      1.0  0.27180  0.92304  0.55084  1.0000
  C   C526      1.0  0.28167  0.89569  0.57993  1.0000
  H   H520      1.0  0.29753  0.97101  0.52830  1.0000
  C   C527      1.0  0.30163  0.95471  0.74839  1.0000
  C   C528      1.0  0.20217  0.87931  0.94924  1.0000
  H   H521      1.0  0.28864  0.91676  0.51788  1.0000
  C   C529      1.0  0.31593  0.94935  0.79910  1.0000
  C   C530      1.0  0.29870  0.95412  0.79715  1.0000
  C   C531      1.0  0.29169  0.95699  0.77194  1.0000
  H   H522      1.0  0.29211  0.91152  0.84281  1.0000
  N   N45       1.0  0.26531  0.91904  0.57699  1.0000
  H   H523      1.0  0.29057  0.95541  0.81490  1.0000
  H   H524      1.0  0.27825  0.96052  0.77067  1.0000
  S   S188      1.0  0.14674  0.77330  0.90574  1.0000
  H   H525      1.0  0.09902  0.79753  0.52887  1.0000
  H   H526      1.0  0.18747  0.81574  0.96968  1.0000
  C   C532      1.0  0.30349  0.00271  0.81994  1.0000
  H   H527      1.0  0.26535  0.90265  0.61238  1.0000
  H   H528      1.0  0.23166  0.85408  0.96882  1.0000
  H   H529      1.0  0.20515  0.82548  0.49744  1.0000
  H   H530      1.0  0.23255  0.88561  0.95506  1.0000
  H   H531      1.0  0.03070  0.76003  0.63434  1.0000
  C   C533      1.0  0.28823  0.89958  0.55321  1.0000
  C   C534      1.0  0.11943  0.76390  0.54484  1.0000
  H   H532      1.0  0.24535  0.92247  0.60758  1.0000
  H   H533      1.0  0.28562  0.88522  0.59183  1.0000
  C   C535      1.0  0.21900  0.87517  0.95646  1.0000
  C   C536      1.0  0.12002  0.76571  0.57258  1.0000
  N   N46       1.0  0.19885  0.82213  0.73773  1.0000
  C   C537      1.0  0.19513  0.82290  0.76469  1.0000
  C   C538      1.0  0.19129  0.83175  0.71956  1.0000
  C   C539      1.0  0.18277  0.83279  0.77397  1.0000
  C   C540      1.0  0.17900  0.84189  0.72812  1.0000
  C   C541      1.0  0.17455  0.84222  0.75549  1.0000
  C   C542      1.0  0.21162  0.81153  0.72819  1.0000
  H   H534      1.0  0.20125  0.81541  0.77916  1.0000
  H   H535      1.0  0.19458  0.83144  0.69826  1.0000
  H   H536      1.0  0.17919  0.83272  0.79532  1.0000
  H   H537      1.0  0.17283  0.84926  0.71347  1.0000
  H   H538      1.0  0.16468  0.84969  0.76236  1.0000
  H   H539      1.0  0.22655  0.82028  0.72560  1.0000
  H   H540      1.0  0.21113  0.79990  0.74236  1.0000
  N   N47       1.0  0.27683  0.90919  0.80662  1.0000
  C   C543      1.0  0.26149  0.91307  0.79488  1.0000
  C   C544      1.0  0.29155  0.90629  0.79112  1.0000
  C   C545      1.0  0.26089  0.91465  0.76686  1.0000
  C   C546      1.0  0.29133  0.90763  0.76306  1.0000
  C   C547      1.0  0.27594  0.91193  0.75091  1.0000
  H   H541      1.0  0.27593  0.91364  0.72917  1.0000
  H   H542      1.0  0.24978  0.91527  0.80720  1.0000
  H   H543      1.0  0.30382  0.90344  0.80043  1.0000
  S   S189      1.0  0.32495  0.94548  0.83062  1.0000
  C   C548      1.0  0.09797  0.80400  0.58141  1.0000
  C   C549      1.0  0.11177  0.77539  0.52906  1.0000
  C   C550      1.0  0.32469  0.94331  0.54759  1.0000
  H   H544      1.0  0.11844  0.75734  0.81140  1.0000
  C   C551      1.0  0.11294  0.77906  0.58416  1.0000
  S   S190      1.0  0.32075  0.96766  0.90059  1.0000
  C   C552      1.0  0.31234  0.95765  0.50109  1.0000
  H   H545      1.0  0.27027  0.89320  0.84306  1.0000
  C   C553      1.0  0.31898  0.95008  0.75016  1.0000
  H   H546      1.0  0.17377  0.76454  0.53278  1.0000
  C   C554      1.0  0.18492  0.86567  0.95026  1.0000
  H   H547      1.0  0.08418  0.79734  0.59250  1.0000
  C   C555      1.0  0.18478  0.84802  0.95849  1.0000
  C   C556      1.0  0.20122  0.82561  0.97398  1.0000
  H   H548      1.0  0.17129  0.83750  0.95929  1.0000
  H   H549      1.0  0.30330  0.90590  0.75080  1.0000
  H   H550      1.0  0.32335  0.00004  0.94107  1.0000
  C   C557      1.0  0.32615  0.94750  0.77549  1.0000
  H   H551      1.0  0.32951  0.00481  0.87310  1.0000
  H   H552      1.0  0.33176  0.98695  0.81362  1.0000
  C   C558      1.0  0.31388  0.99901  0.95937  1.0000
  H   H553      1.0  0.32560  0.99050  0.77933  1.0000
  H   H554      1.0  0.32932  0.93757  0.56541  1.0000
  C   C559      1.0  0.33187  0.99740  0.79751  1.0000
  H   H555      1.0  0.13273  0.75843  0.85337  1.0000
  H   H556      1.0  0.30047  0.98816  0.95678  1.0000
  C   C560      1.0  0.04522  0.75917  0.63663  1.0000
  C   C561      1.0  0.33050  0.93907  0.52195  1.0000
  C   C562      1.0  0.08311  0.75748  0.64257  1.0000
  H   H557      1.0  0.12648  0.75723  0.58496  1.0000
  H   H558      1.0  0.01564  0.76044  0.75190  1.0000
  H   H559      1.0  0.01623  0.76028  0.70192  1.0000
  H   H560      1.0  0.16518  0.77459  0.48792  1.0000
  H   H561      1.0  0.09762  0.75663  0.64500  1.0000
  H   H562      1.0  0.28988  0.95515  0.98709  1.0000
  S   S191      1.0  0.38131  0.24290  0.29442  1.0000
  S   S192      1.0  0.40934  0.14462  0.33697  1.0000
  S   S193      1.0  0.42286  0.12431  0.40484  1.0000
  S   S194      1.0  0.42789  0.12594  0.27240  1.0000
  Fe  Fe97      1.0  0.41050  0.11664  0.06016  1.0000
  S   S195      1.0  0.44160  0.13177  0.05534  1.0000
  H   H563      1.0  0.43775  0.23026  0.34927  1.0000
  Fe  Fe98      1.0  0.41319  0.10924  0.12111  1.0000
  S   S196      1.0  0.44440  0.12384  0.12007  1.0000
  Fe  Fe99      1.0  0.37735  0.13787  0.33588  1.0000
  Fe  Fe100     1.0  0.43615  0.14450  0.09357  1.0000
  S   S197      1.0  0.44720  0.17432  0.10017  1.0000
  Fe  Fe101     1.0  0.44605  0.10927  0.08216  1.0000
  S   S198      1.0  0.46825  0.09394  0.07645  1.0000
  S   S199      1.0  0.40471  0.13072  0.09695  1.0000
  S   S200      1.0  0.41520  0.09317  0.08475  1.0000
  S   S201      1.0  0.39429  0.22287  0.06196  1.0000
  C   C563      1.0  0.39217  0.16400  0.00837  1.0000
  H   H564      1.0  0.40367  0.19060  0.37931  1.0000
  Fe  Fe102     1.0  0.40938  0.25259  0.06029  1.0000
  C   C564      1.0  0.65677  0.06295  0.12278  1.0000
  S   S202      1.0  0.48704  0.04416  0.40917  1.0000
  H   H565      1.0  0.36747  0.23051  0.10790  1.0000
  S   S203      1.0  0.47434  0.02934  0.22512  1.0000
  C   C565      1.0  0.40604  0.10452  0.19118  1.0000
  C   C566      1.0  0.39287  0.14300  0.19812  1.0000
  H   H566      1.0  0.59741  0.03224  0.16947  1.0000
  Fe  Fe103     1.0  0.62782  0.01497  0.99994  1.0000
  H   H567      1.0  0.38543  0.13788  0.15703  1.0000
  Fe  Fe104     1.0  0.63642  0.04825  0.28617  1.0000
  S   S204      1.0  0.64607  0.07860  0.28550  1.0000
  H   H568      1.0  0.39302  0.15788  0.98865  1.0000
  C   C567      1.0  0.34776  0.24396  0.12577  1.0000
  S   S205      1.0  0.65091  0.07763  0.21996  1.0000
  Fe  Fe105     1.0  0.65512  0.04242  0.03200  1.0000
  S   S206      1.0  0.39675  0.09735  0.15981  1.0000
  Fe  Fe106     1.0  0.62690  0.07670  0.25019  1.0000
  S   S207      1.0  0.60567  0.09330  0.24500  1.0000
  S   S208      1.0  0.61602  0.04668  0.25267  1.0000
  S   S209      1.0  0.51997  0.07056  0.20485  1.0000
  C   C568      1.0  0.58176  0.08557  0.23443  1.0000
  C   C569      1.0  0.57185  0.06718  0.23299  1.0000
  C   C570      1.0  0.55267  0.06214  0.22455  1.0000
  C   C571      1.0  0.54353  0.07548  0.21709  1.0000
  C   C572      1.0  0.55359  0.09371  0.21855  1.0000
  C   C573      1.0  0.57242  0.09868  0.22727  1.0000
  H   H569      1.0  0.57885  0.05687  0.23842  1.0000
  H   H570      1.0  0.54509  0.04800  0.22358  1.0000
  H   H571      1.0  0.54675  0.10414  0.21294  1.0000
  H   H572      1.0  0.57984  0.11289  0.22836  1.0000
  C   C574      1.0  0.54586  0.02236  0.02112  1.0000
  C   C575      1.0  0.40610  0.07785  0.43014  1.0000
  Fe  Fe107     1.0  0.50104  0.04233  0.19976  1.0000
  H   H573      1.0  0.61653  0.05852  0.19048  1.0000
  S   S210      1.0  0.64617  0.01213  0.03454  1.0000
  C   C576      1.0  0.65220  0.05131  0.10141  1.0000
  C   C577      1.0  0.45127  0.09960  0.33311  1.0000
  H   H574      1.0  0.42688  0.07830  0.46007  1.0000
  N   N48       1.0  0.59067  0.05762  0.17078  1.0000
  C   C578      1.0  0.35886  0.23996  0.10470  1.0000
  N   N49       1.0  0.39979  0.07860  0.47767  1.0000
  C   C579      1.0  0.64229  0.03825  0.15513  1.0000
  S   S211      1.0  0.65057  0.06193  0.43807  1.0000
  H   H575      1.0  0.42257  0.15357  0.02233  1.0000
  H   H576      1.0  0.43438  0.22004  0.01960  1.0000
  S   S212      1.0  0.40441  0.10108  0.34025  1.0000
  C   C580      1.0  0.39409  0.09973  0.21446  1.0000
  H   H577      1.0  0.35577  0.21305  0.37343  1.0000
  C   C581      1.0  0.55868  0.05767  0.15946  1.0000
  H   H578      1.0  0.47587  0.06867  0.20902  1.0000
  C   C582      1.0  0.40817  0.20956  0.07580  1.0000
  C   C583      1.0  0.42637  0.21748  0.08527  1.0000
  C   C584      1.0  0.43806  0.20653  0.09355  1.0000
  C   C585      1.0  0.43166  0.18768  0.09213  1.0000
  C   C586      1.0  0.41326  0.17984  0.08330  1.0000
  C   C587      1.0  0.40146  0.19071  0.07549  1.0000
  H   H579      1.0  0.43158  0.23203  0.08593  1.0000
  H   H580      1.0  0.45225  0.21274  0.10047  1.0000
  H   H581      1.0  0.40824  0.16546  0.08161  1.0000
  H   H582      1.0  0.38739  0.18452  0.06819  1.0000
  C   C588      1.0  0.47215  0.08959  0.04266  1.0000
  C   C589      1.0  0.46140  0.09475  0.02256  1.0000
  C   C590      1.0  0.46378  0.10970  0.40439  1.0000
  Fe  Fe108     1.0  0.46559  0.01701  0.41243  1.0000
  C   C591      1.0  0.48872  0.07640  0.00907  1.0000
  C   C592      1.0  0.48584  0.08043  0.03588  1.0000
  H   H583      1.0  0.45065  0.10162  0.02762  1.0000
  Fe  Fe109     1.0  0.40380  0.12251  0.36934  1.0000
  C   C593      1.0  0.58799  0.06268  0.31018  1.0000
  H   H584      1.0  0.49429  0.07651  0.05134  1.0000
  C   C594      1.0  0.41949  0.11676  0.24163  1.0000
  H   H585      1.0  0.34673  0.21570  0.30636  1.0000
  H   H586      1.0  0.46285  0.06105  0.35235  1.0000
  C   C595      1.0  0.43923  0.17140  0.22246  1.0000
  C   C596      1.0  0.42493  0.11506  0.19334  1.0000
  C   C597      1.0  0.43166  0.12104  0.21850  1.0000
  H   H587      1.0  0.56852  0.03690  0.32177  1.0000
  H   H588      1.0  0.43435  0.11872  0.17570  1.0000
  H   H589      1.0  0.44624  0.12933  0.21994  1.0000
  C   C598      1.0  0.41311  0.12436  0.43771  1.0000
  C   C599      1.0  0.42488  0.12444  0.45956  1.0000
  C   C600      1.0  0.42749  0.16508  0.17712  1.0000
  S   S213      1.0  0.37173  0.11683  0.37050  1.0000
  C   C601      1.0  0.38630  0.12281  0.46905  1.0000
  C   C602      1.0  0.39383  0.12374  0.44253  1.0000
  H   H590      1.0  0.43983  0.12501  0.45596  1.0000
  H   H591      1.0  0.43928  0.16252  0.24060  1.0000
  S   S214      1.0  0.49231  0.04004  0.47416  1.0000
  H   H592      1.0  0.38464  0.12376  0.42587  1.0000
  C   C603      1.0  0.37723  0.21941  0.30298  1.0000
  C   C604      1.0  0.35823  0.20927  0.30830  1.0000
  C   C605      1.0  0.35390  0.19099  0.31688  1.0000
  C   C606      1.0  0.36840  0.18224  0.31983  1.0000
  C   C607      1.0  0.38753  0.19209  0.31363  1.0000
  C   C608      1.0  0.39195  0.21072  0.30545  1.0000
  N   N50       1.0  0.46073  0.10048  0.37898  1.0000
  H   H593      1.0  0.49943  0.06950  0.00393  1.0000
  H   H594      1.0  0.39888  0.18553  0.31585  1.0000
  H   H595      1.0  0.40668  0.21832  0.30115  1.0000
  C   C609      1.0  0.62308  0.03074  0.37930  1.0000
  H   H596      1.0  0.54775  0.06486  0.15736  1.0000
  H   H597      1.0  0.57381  0.02045  0.36424  1.0000
  S   S215      1.0  0.62515  0.01506  0.47556  1.0000
  C   C610      1.0  0.56758  0.03549  0.45372  1.0000
  C   C611      1.0  0.37455  0.07781  0.44709  1.0000
  H   H598      1.0  0.38884  0.00842  0.17604  1.0000
  H   H599      1.0  0.58365  0.06244  0.28952  1.0000
  C   C612      1.0  0.47814  0.08178  0.98893  1.0000
  C   C613      1.0  0.65102  0.06350  0.38310  1.0000
  H   H600      1.0  0.38235  0.07769  0.40498  1.0000
  S   S216      1.0  0.51291  0.01843  0.20172  1.0000
  H   H601      1.0  0.45681  0.00983  0.27682  1.0000
  C   C614      1.0  0.63183  0.04039  0.35575  1.0000
  C   C615      1.0  0.45430  0.10835  0.35741  1.0000
  H   H602      1.0  0.63904  0.02395  0.09076  1.0000
  N   N51       1.0  0.58507  0.04860  0.35453  1.0000
  C   C616      1.0  0.46366  0.08367  0.37735  1.0000
  C   C617      1.0  0.57953  0.04831  0.32850  1.0000
  C   C618      1.0  0.42529  0.16816  0.02117  1.0000
  H   H603      1.0  0.58870  0.05419  0.01198  1.0000
  H   H604      1.0  0.65576  0.06554  0.16574  1.0000
  H   H605      1.0  0.46030  0.20625  0.03294  1.0000
  N   N52       1.0  0.41099  0.17581  0.01439  1.0000
  H   H606      1.0  0.45157  0.10362  0.41883  1.0000
  H   H607      1.0  0.34766  0.23767  0.14562  1.0000
  C   C619      1.0  0.50571  0.01851  0.07653  1.0000
  H   H608      1.0  0.60883  0.08858  0.30451  1.0000
  H   H609      1.0  0.45377  0.17441  0.21257  1.0000
  C   C620      1.0  0.55914  0.03846  0.01186  1.0000
  C   C621      1.0  0.45395  0.03358  0.10129  1.0000
  N   N53       1.0  0.41045  0.21890  0.36896  1.0000
  C   C622      1.0  0.40346  0.23357  0.36444  1.0000
  C   C623      1.0  0.39823  0.20231  0.37605  1.0000
  C   C624      1.0  0.38373  0.23174  0.36624  1.0000
  C   C625      1.0  0.37841  0.20001  0.37812  1.0000
  C   C626      1.0  0.37114  0.21482  0.37302  1.0000
  H   H610      1.0  0.56486  0.01547  0.15641  1.0000
  H   H611      1.0  0.44924  0.02387  0.01234  1.0000
  H   H612      1.0  0.35985  0.07784  0.44361  1.0000
  H   H613      1.0  0.58372  0.03353  0.39190  1.0000
  H   H614      1.0  0.45621  0.04323  0.11706  1.0000
  C   C627      1.0  0.64256  0.05368  0.40667  1.0000
  S   S217      1.0  0.62544  0.03117  0.32438  1.0000
  S   S218      1.0  0.53585  0.03818  0.42784  1.0000
  C   C628      1.0  0.45724  0.03402  0.02615  1.0000
  H   H615      1.0  0.43795  0.22755  0.38520  1.0000
  Fe  Fe110     1.0  0.46075  0.01879  0.18683  1.0000
  S   S219      1.0  0.63593  0.02950  0.18845  1.0000
  H   H616      1.0  0.65267  0.06435  0.33973  1.0000
  H   H617      1.0  0.41607  0.15847  0.13819  1.0000
  C   C629      1.0  0.46921  0.07215  0.19113  1.0000
  H   H618      1.0  0.59267  0.03384  0.47452  1.0000
  H   H619      1.0  0.46052  0.05401  0.06937  1.0000
  H   H620      1.0  0.37957  0.13406  0.20658  1.0000
  C   C630      1.0  0.47190  0.08753  0.14762  1.0000
  H   H621      1.0  0.37824  0.24325  0.36142  1.0000
  Fe  Fe111     1.0  0.50409  0.03132  0.43644  1.0000
  S   S220      1.0  0.44999  0.02402  0.44857  1.0000
  Fe  Fe112     1.0  0.47300  0.05005  0.44708  1.0000
  H   H622      1.0  0.46488  0.12437  0.40164  1.0000
  C   C631      1.0  0.60779  0.07755  0.34516  1.0000
  H   H623      1.0  0.45435  0.17284  0.03421  1.0000
  Fe  Fe113     1.0  0.49646  0.01039  0.16437  1.0000
  C   C632      1.0  0.59892  0.06304  0.36303  1.0000
  C   C633      1.0  0.38717  0.07771  0.42541  1.0000
  Fe  Fe114     1.0  0.64101  0.04741  0.22436  1.0000
  C   C634      1.0  0.54753  0.03033  0.45394  1.0000
  S   S221      1.0  0.46557  0.07638  0.45190  1.0000
  S   S222      1.0  0.35791  0.06665  0.33487  1.0000
  C   C635      1.0  0.45407  0.00974  0.32005  1.0000
  Fe  Fe115     1.0  0.40663  0.12247  0.30776  1.0000
  C   C636      1.0  0.64575  0.05686  0.35772  1.0000
  C   C637      1.0  0.63766  0.02661  0.13376  1.0000
  S   S223      1.0  0.36148  0.15970  0.33393  1.0000
  S   S224      1.0  0.39025  0.11469  0.02602  1.0000
  H   H624      1.0  0.38096  0.17141  0.00801  1.0000
  H   H625      1.0  0.60966  0.07915  0.19055  1.0000
  H   H626      1.0  0.44094  0.17374  0.16854  1.0000
  C   C638      1.0  0.45437  0.08251  0.33122  1.0000
  C   C639      1.0  0.40072  0.10594  0.23957  1.0000
  S   S225      1.0  0.48594  0.03516  0.16125  1.0000
  N   N54       1.0  0.44105  0.07016  0.16580  1.0000
  H   H627      1.0  0.39128  0.10237  0.25728  1.0000
  Fe  Fe116     1.0  0.37256  0.09662  0.33905  1.0000
  S   S226      1.0  0.42997  0.01831  0.17899  1.0000
  C   C640      1.0  0.34271  0.03165  0.35358  1.0000
  S   S227      1.0  0.43661  0.25483  0.30063  1.0000
  H   H628      1.0  0.61925  0.07233  0.15984  1.0000
  H   H629      1.0  0.49589  0.08820  0.17256  1.0000
  H   H630      1.0  0.41509  0.06901  0.14536  1.0000
  C   C641      1.0  0.44666  0.19775  0.02687  1.0000
  H   H631      1.0  0.44553  0.08430  0.12750  1.0000
  H   H632      1.0  0.48054  0.09606  0.13149  1.0000
  C   C642      1.0  0.58655  0.03946  0.16671  1.0000
  H   H633      1.0  0.33912  0.18360  0.32156  1.0000
  C   C643      1.0  0.48049  0.08315  0.17063  1.0000
  H   H634      1.0  0.44069  0.05685  0.20414  1.0000
  H   H635      1.0  0.36870  0.18664  0.38238  1.0000
  C   C644      1.0  0.42025  0.06325  0.16352  1.0000
  C   C645      1.0  0.55425  0.03912  0.15567  1.0000
  H   H636      1.0  0.57571  0.04414  0.43745  1.0000
  S   S228      1.0  0.37485  0.11701  0.30444  1.0000
  H   H637      1.0  0.37950  0.09147  0.21301  1.0000
  C   C646      1.0  0.44939  0.06563  0.18831  1.0000
  C   C647      1.0  0.39616  0.14515  0.17033  1.0000
  H   H638      1.0  0.40467  0.14984  0.23658  1.0000
  H   H639      1.0  0.41262  0.06699  0.18118  1.0000
  C   C648      1.0  0.60997  0.06743  0.17820  1.0000
  H   H640      1.0  0.37129  0.12208  0.47262  1.0000
  C   C649      1.0  0.41345  0.15646  0.15974  1.0000
  S   S229      1.0  0.65952  0.05994  0.06826  1.0000
  C   C650      1.0  0.45205  0.08085  0.14550  1.0000
  H   H641      1.0  0.60341  0.06327  0.38362  1.0000
  H   H642      1.0  0.61231  0.01797  0.37792  1.0000
  H   H643      1.0  0.41614  0.04829  0.16242  1.0000
  H   H644      1.0  0.58035  0.08117  0.17029  1.0000
  H   H645      1.0  0.50375  0.02823  0.03566  1.0000
  C   C651      1.0  0.62841  0.03736  0.40468  1.0000
  N   N55       1.0  0.42438  0.16242  0.20437  1.0000
  C   C652      1.0  0.40717  0.15190  0.21496  1.0000
  C   C653      1.0  0.44330  0.17898  0.02765  1.0000
  C   C654      1.0  0.57808  0.04208  0.01971  1.0000
  C   C655      1.0  0.65190  0.05646  0.14952  1.0000
  H   H646      1.0  0.43473  0.20815  0.36433  1.0000
  C   C656      1.0  0.57713  0.06679  0.16687  1.0000
  Fe  Fe117     1.0  0.47013  0.01340  0.47392  1.0000
  H   H647      1.0  0.43656  0.18425  0.22885  1.0000
  C   C657      1.0  0.43120  0.22121  0.36692  1.0000
  H   H648      1.0  0.53995  0.03187  0.15017  1.0000
  H   H649      1.0  0.56102  0.03504  0.37982  1.0000
  C   C658      1.0  0.34359  0.04986  0.35772  1.0000
  H   H650      1.0  0.41608  0.07801  0.41343  1.0000
  C   C659      1.0  0.41215  0.07816  0.45656  1.0000
  C   C660      1.0  0.44880  0.01505  0.10784  1.0000
  H   H651      1.0  0.61904  0.08879  0.35183  1.0000
  H   H652      1.0  0.53513  0.06329  0.47148  1.0000
  H   H653      1.0  0.46846  0.07730  0.39457  1.0000
  C   C661      1.0  0.35901  0.24829  0.07938  1.0000
  H   H654      1.0  0.55492  0.04772  0.99793  1.0000
  C   C662      1.0  0.33691  0.25627  0.12109  1.0000
  H   H655      1.0  0.45189  0.07552  0.31256  1.0000
  Fe  Fe118     1.0  0.64199  0.04416  0.47609  1.0000
  C   C663      1.0  0.60217  0.07739  0.31862  1.0000
  H   H656      1.0  0.46071  0.10836  0.47569  1.0000
  H   H657      1.0  0.52153  0.01533  0.47549  1.0000
  S   S230      1.0  0.66031  0.04545  0.25821  1.0000
  N   N56       1.0  0.45358  0.02745  0.05430  1.0000
  C   C664      1.0  0.45636  0.03958  0.07426  1.0000
  H   H658      1.0  0.45136  0.12143  0.35893  1.0000
  H   H659      1.0  0.35182  0.02837  0.33805  1.0000
  C   C665      1.0  0.46053  0.07442  0.35349  1.0000
  C   C666      1.0  0.43213  0.20548  0.01934  1.0000
  C   C667      1.0  0.56824  0.02992  0.15924  1.0000
  C   C668      1.0  0.46455  0.09104  0.99570  1.0000
  H   H660      1.0  0.53135  0.01935  0.01419  1.0000
  C   C669      1.0  0.53704  0.01938  0.47526  1.0000
  H   H661      1.0  0.41311  0.24672  0.35883  1.0000
  C   C670      1.0  0.41427  0.19424  0.01305  1.0000
  H   H662      1.0  0.44630  0.10596  0.31595  1.0000
  H   H663      1.0  0.44711  0.01022  0.12870  1.0000
  H   H664      1.0  0.47722  0.10836  0.41337  1.0000
  C   C671      1.0  0.57543  0.03369  0.37355  1.0000
  H   H665      1.0  0.63028  0.01248  0.13792  1.0000
  C   C672      1.0  0.64261  0.03308  0.10700  1.0000
  H   H666      1.0  0.62159  0.02979  0.42263  1.0000
  H   H667      1.0  0.38747  0.15283  0.02404  1.0000
  H   H668      1.0  0.51527  0.03111  0.08235  1.0000
  S   S231      1.0  0.63522  0.04536  0.99942  1.0000
  H   H669      1.0  0.40286  0.20039  0.00833  1.0000
  C   C673      1.0  0.56981  0.01377  0.04570  1.0000
  H   H670      1.0  0.36752  0.24515  0.06291  1.0000
  H   H671      1.0  0.59826  0.03217  0.04251  1.0000
  H   H672      1.0  0.44271  0.01644  0.31995  1.0000
  C   C674      1.0  0.57718  0.02968  0.47475  1.0000
  C   C675      1.0  0.58344  0.02976  0.03692  1.0000
  H   H673      1.0  0.66431  0.07705  0.11863  1.0000
  C   C676      1.0  0.39879  0.11980  0.99230  1.0000
  H   H674      1.0  0.47278  0.03675  0.02077  1.0000
  H   H675      1.0  0.42882  0.12589  0.00047  1.0000
  C   C677      1.0  0.46469  0.08214  0.48562  1.0000
  C   C678      1.0  0.49944  0.01681  0.04994  1.0000
  H   H676      1.0  0.45282  0.04668  0.02260  1.0000
  H   H677      1.0  0.44587  0.25424  0.42690  1.0000
  C   C679      1.0  0.38113  0.07823  0.47326  1.0000
  N   N57       1.0  0.55136  0.01016  0.03753  1.0000
  C   C680      1.0  0.41734  0.12345  0.48606  1.0000
  C   C681      1.0  0.44849  0.00925  0.06058  1.0000
  C   C682      1.0  0.66344  0.01811  0.37776  1.0000
  S   S232      1.0  0.44881  0.00813  0.37511  1.0000
  H   H678      1.0  0.66194  0.07618  0.38449  1.0000
  H   H679      1.0  0.52110  0.07682  0.48618  1.0000
  N   N58       1.0  0.66584  0.01849  0.40488  1.0000
  S   S233      1.0  0.37347  0.24461  0.81826  1.0000
  S   S234      1.0  0.39865  0.15000  0.83940  1.0000
  S   S235      1.0  0.41970  0.13513  0.90453  1.0000
  S   S236      1.0  0.41408  0.14039  0.76943  1.0000
  Fe  Fe119     1.0  0.40676  0.12228  0.55947  1.0000
  S   S237      1.0  0.43788  0.13694  0.55400  1.0000
  Fe  Fe120     1.0  0.39924  0.12843  0.87053  1.0000
  Fe  Fe121     1.0  0.41008  0.11481  0.62024  1.0000
  S   S238      1.0  0.44146  0.12896  0.61874  1.0000
  C   C683      1.0  0.40248  0.16752  0.65056  1.0000
  Fe  Fe122     1.0  0.43331  0.14982  0.59236  1.0000
  S   S239      1.0  0.44560  0.17985  0.59600  1.0000
  Fe  Fe123     1.0  0.44239  0.11446  0.58061  1.0000
  S   S240      1.0  0.46306  0.09792  0.57294  1.0000
  S   S241      1.0  0.40166  0.13656  0.59652  1.0000
  S   S242      1.0  0.41146  0.09875  0.58365  1.0000
  S   S243      1.0  0.39013  0.22532  0.55621  1.0000
  C   C684      1.0  0.37133  0.19306  0.76498  1.0000
  H   H680      1.0  0.41711  0.04762  0.87479  1.0000
  C   C685      1.0  0.65574  0.06081  0.62774  1.0000
  S   S244      1.0  0.38771  0.12024  0.52386  1.0000
  S   S245      1.0  0.50546  0.04845  0.90948  1.0000
  C   C686      1.0  0.40624  0.20316  0.50204  1.0000
  N   N59       1.0  0.38329  0.18200  0.76635  1.0000
  S   S246      1.0  0.46715  0.01512  0.87319  1.0000
  H   H681      1.0  0.59439  0.04305  0.92786  1.0000
  C   C687      1.0  0.56008  0.02958  0.80295  1.0000
  H   H682      1.0  0.53549  0.02694  0.76317  1.0000
  Fe  Fe124     1.0  0.63356  0.05108  0.78795  1.0000
  H   H683      1.0  0.36931  0.22052  0.75916  1.0000
  S   S247      1.0  0.64300  0.08137  0.78561  1.0000
  Fe  Fe125     1.0  0.64667  0.04206  0.53723  1.0000
  H   H684      1.0  0.41413  0.24453  0.86561  1.0000
  C   C688      1.0  0.54672  0.04343  0.54401  1.0000
  H   H685      1.0  0.45779  0.08626  0.91753  1.0000
  C   C689      1.0  0.39275  0.18654  0.49948  1.0000
  Fe  Fe126     1.0  0.62195  0.07868  0.75258  1.0000
  S   S248      1.0  0.59956  0.09418  0.75285  1.0000
  S   S249      1.0  0.61133  0.04870  0.75696  1.0000
  S   S250      1.0  0.51861  0.07159  0.69814  1.0000
  C   C690      1.0  0.57733  0.08680  0.73712  1.0000
  C   C691      1.0  0.56595  0.09885  0.73523  1.0000
  C   C692      1.0  0.54816  0.09390  0.72322  1.0000
  C   C693      1.0  0.54118  0.07665  0.71329  1.0000
  C   C694      1.0  0.55242  0.06434  0.71528  1.0000
  C   C695      1.0  0.57056  0.06945  0.72703  1.0000
  H   H686      1.0  0.57101  0.11225  0.74288  1.0000
  H   H687      1.0  0.53972  0.10354  0.72170  1.0000
  H   H688      1.0  0.54730  0.05104  0.70745  1.0000
  H   H689      1.0  0.57924  0.06003  0.72831  1.0000
  C   C696      1.0  0.59006  0.07376  0.87403  1.0000
  C   C697      1.0  0.56604  0.02733  0.94124  1.0000
  S   S251      1.0  0.35998  0.06797  0.84420  1.0000
  C   C698      1.0  0.59196  0.05107  0.66382  1.0000
  N   N60       1.0  0.40535  0.21822  0.88470  1.0000
  C   C699      1.0  0.46921  0.08942  0.64330  1.0000
  H   H690      1.0  0.44932  0.17671  0.53562  1.0000
  C   C700      1.0  0.65453  0.05611  0.85419  1.0000
  S   S252      1.0  0.64421  0.07898  0.72001  1.0000
  H   H691      1.0  0.60531  0.08728  0.81289  1.0000
  H   H692      1.0  0.43176  0.17319  0.66199  1.0000
  C   C701      1.0  0.59554  0.02303  0.95841  1.0000
  C   C702      1.0  0.64972  0.04976  0.60611  1.0000
  N   N61       1.0  0.54251  0.03307  0.80358  1.0000
  H   H693      1.0  0.39970  0.15297  0.65393  1.0000
  Fe  Fe127     1.0  0.49224  0.05262  0.94907  1.0000
  Fe  Fe128     1.0  0.48406  0.02131  0.91102  1.0000
  N   N62       1.0  0.60361  0.07698  0.85336  1.0000
  H   H694      1.0  0.66037  0.06206  0.83470  1.0000
  C   C703      1.0  0.45212  0.05452  0.89392  1.0000
  C   C704      1.0  0.40568  0.21313  0.56803  1.0000
  C   C705      1.0  0.42389  0.22182  0.57680  1.0000
  C   C706      1.0  0.43627  0.21157  0.58506  1.0000
  C   C707      1.0  0.43040  0.19265  0.58466  1.0000
  C   C708      1.0  0.41231  0.18411  0.57554  1.0000
  C   C709      1.0  0.39988  0.19426  0.56767  1.0000
  H   H695      1.0  0.42843  0.23639  0.57733  1.0000
  H   H696      1.0  0.45035  0.21832  0.59183  1.0000
  H   H697      1.0  0.40791  0.16970  0.57405  1.0000
  H   H698      1.0  0.38586  0.18749  0.56072  1.0000
  C   C710      1.0  0.46352  0.09192  0.53932  1.0000
  C   C711      1.0  0.46125  0.10379  0.51853  1.0000
  S   S253      1.0  0.48165  0.07712  0.95522  1.0000
  C   C712      1.0  0.38550  0.11881  0.97212  1.0000
  C   C713      1.0  0.46649  0.07010  0.50644  1.0000
  C   C714      1.0  0.46622  0.07510  0.53323  1.0000
  H   H699      1.0  0.45948  0.11690  0.52306  1.0000
  H   H700      1.0  0.61588  0.02498  0.88332  1.0000
  C   C715      1.0  0.40637  0.07862  0.50521  1.0000
  H   H701      1.0  0.46772  0.06578  0.54928  1.0000
  C   C716      1.0  0.40834  0.12947  0.73890  1.0000
  H   H702      1.0  0.57489  0.06961  0.87014  1.0000
  C   C717      1.0  0.43101  0.09234  0.91158  1.0000
  C   C718      1.0  0.37543  0.16256  0.77259  1.0000
  C   C719      1.0  0.41463  0.12882  0.69053  1.0000
  C   C720      1.0  0.41873  0.13718  0.71516  1.0000
  C   C721      1.0  0.44927  0.08259  0.64268  1.0000
  H   H703      1.0  0.42292  0.13472  0.67249  1.0000
  H   H704      1.0  0.43017  0.14954  0.71590  1.0000
  C   C722      1.0  0.41132  0.12914  0.93817  1.0000
  C   C723      1.0  0.39172  0.12337  0.94516  1.0000
  S   S254      1.0  0.50274  0.00703  0.93324  1.0000
  H   H705      1.0  0.43506  0.21649  0.51197  1.0000
  H   H706      1.0  0.42588  0.21303  0.75192  1.0000
  C   C724      1.0  0.42463  0.13020  0.95835  1.0000
  H   H707      1.0  0.50500  0.06354  0.52633  1.0000
  Fe  Fe129     1.0  0.39747  0.12917  0.80848  1.0000
  C   C725      1.0  0.56804  0.02706  0.64312  1.0000
  H   H708      1.0  0.43984  0.13458  0.95312  1.0000
  C   C726      1.0  0.36823  0.22084  0.82495  1.0000
  C   C727      1.0  0.34911  0.21137  0.83100  1.0000
  H   H709      1.0  0.45850  0.18799  0.50353  1.0000
  C   C728      1.0  0.35757  0.18280  0.83572  1.0000
  C   C729      1.0  0.37684  0.19214  0.82960  1.0000
  C   C730      1.0  0.38218  0.21115  0.82439  1.0000
  H   H710      1.0  0.45581  0.20071  0.53268  1.0000
  C   C731      1.0  0.34386  0.19260  0.83637  1.0000
  H   H711      1.0  0.38762  0.18478  0.82899  1.0000
  H   H712      1.0  0.39701  0.21818  0.81974  1.0000
  C   C732      1.0  0.40263  0.18889  0.76138  1.0000
  H   H713      1.0  0.36085  0.15938  0.78247  1.0000
  C   C733      1.0  0.62867  0.08358  0.88504  1.0000
  H   H714      1.0  0.62056  0.01326  0.64125  1.0000
  C   C734      1.0  0.41842  0.06362  0.66178  1.0000
  C   C735      1.0  0.61499  0.08040  0.90618  1.0000
  S   S255      1.0  0.39468  0.10163  0.65894  1.0000
  Fe  Fe130     1.0  0.52328  0.03471  0.93393  1.0000
  H   H715      1.0  0.44099  0.05491  0.69802  1.0000
  H   H716      1.0  0.43595  0.22670  0.88184  1.0000
  N   N63       1.0  0.53264  0.06093  0.51404  1.0000
  H   H717      1.0  0.44577  0.22271  0.64512  1.0000
  H   H718      1.0  0.63232  0.02388  0.59472  1.0000
  H   H719      1.0  0.47627  0.06704  0.70032  1.0000
  H   H720      1.0  0.37509  0.20618  0.88856  1.0000
  H   H721      1.0  0.43943  0.19555  0.88790  1.0000
  H   H722      1.0  0.47071  0.01510  0.77517  1.0000
  C   C736      1.0  0.44934  0.18833  0.52166  1.0000
  H   H723      1.0  0.35604  0.18766  0.76932  1.0000
  C   C737      1.0  0.42105  0.06012  0.88533  1.0000
  C   C738      1.0  0.53309  0.03363  0.82764  1.0000
  Fe  Fe131     1.0  0.63474  0.04880  0.72630  1.0000
  C   C739      1.0  0.51571  0.04778  0.55528  1.0000
  C   C740      1.0  0.56845  0.02611  0.82680  1.0000
  C   C741      1.0  0.64902  0.05484  0.65414  1.0000
  S   S256      1.0  0.51248  0.04188  0.97372  1.0000
  H   H724      1.0  0.61097  0.02705  0.95864  1.0000
  H   H725      1.0  0.44547  0.21053  0.67683  1.0000
  C   C742      1.0  0.58507  0.00880  0.97554  1.0000
  S   S257      1.0  0.64988  0.01376  0.96791  1.0000
  H   H726      1.0  0.40212  0.21570  0.49958  1.0000
  H   H727      1.0  0.52999  0.03242  0.58023  1.0000
  C   C743      1.0  0.53422  0.03691  0.77830  1.0000
  C   C744      1.0  0.37873  0.21165  0.75916  1.0000
  S   S258      1.0  0.48270  0.03371  0.65753  1.0000
  H   H728      1.0  0.56769  0.02936  0.78390  1.0000
  C   C745      1.0  0.40897  0.18321  0.89184  1.0000
  C   C746      1.0  0.39797  0.12248  0.49091  1.0000
  N   N64       1.0  0.43858  0.06558  0.89656  1.0000
  C   C747      1.0  0.38928  0.20399  0.88876  1.0000
  C   C748      1.0  0.63969  0.04063  0.90472  1.0000
  C   C749      1.0  0.40358  0.23674  0.88125  1.0000
  S   S259      1.0  0.55444  0.04023  0.92158  1.0000
  H   H729      1.0  0.60177  0.06315  0.81705  1.0000
  H   H730      1.0  0.37488  0.15488  0.75402  1.0000
  H   H731      1.0  0.55959  0.02479  0.66191  1.0000
  Fe  Fe132     1.0  0.61040  0.02091  0.51311  1.0000
  H   H732      1.0  0.45045  0.00792  0.56932  1.0000
  H   H733      1.0  0.41364  0.04885  0.66709  1.0000
  H   H734      1.0  0.37433  0.16601  0.63635  1.0000
  H   H735      1.0  0.50306  0.04519  0.56866  1.0000
  H   H736      1.0  0.41301  0.06577  0.64164  1.0000
  S   S260      1.0  0.47778  0.02925  0.72260  1.0000
  H   H737      1.0  0.40440  0.23329  0.75030  1.0000
  S   S261      1.0  0.36731  0.11814  0.87637  1.0000
  H   H738      1.0  0.37832  0.09253  0.71250  1.0000
  C   C750      1.0  0.44884  0.06468  0.68263  1.0000
  S   S262      1.0  0.57877  0.01226  0.52301  1.0000
  H   H739      1.0  0.41206  0.18002  0.76231  1.0000
  H   H740      1.0  0.42647  0.12300  0.50263  1.0000
  H   H741      1.0  0.39409  0.06633  0.87816  1.0000
  S   S263      1.0  0.62540  0.05053  0.51160  1.0000
  C   C751      1.0  0.40006  0.11267  0.68945  1.0000
  Fe  Fe133     1.0  0.50125  0.04294  0.69252  1.0000
  H   H742      1.0  0.38462  0.15770  0.78682  1.0000
  C   C752      1.0  0.56124  0.01630  0.62150  1.0000
  Fe  Fe134     1.0  0.36945  0.09906  0.84367  1.0000
  S   S264      1.0  0.40179  0.10872  0.83931  1.0000
  C   C753      1.0  0.39844  0.21885  0.75444  1.0000
  C   C754      1.0  0.39369  0.11339  0.73781  1.0000
  Fe  Fe135     1.0  0.36699  0.13868  0.84279  1.0000
  C   C755      1.0  0.41681  0.17137  0.51080  1.0000
  S   S265      1.0  0.36546  0.11853  0.81049  1.0000
  H   H743      1.0  0.41310  0.21916  0.63748  1.0000
  H   H744      1.0  0.63345  0.08391  0.84234  1.0000
  C   C756      1.0  0.47675  0.01137  0.79325  1.0000
  C   C757      1.0  0.44374  0.08161  0.90921  1.0000
  C   C758      1.0  0.62270  0.08176  0.85861  1.0000
  H   H745      1.0  0.38118  0.19938  0.62816  1.0000
  H   H746      1.0  0.45460  0.20314  0.64616  1.0000
  C   C759      1.0  0.54103  0.03020  0.85187  1.0000
  H   H747      1.0  0.40633  0.24376  0.90043  1.0000
  H   H748      1.0  0.41176  0.07099  0.67639  1.0000
  H   H749      1.0  0.47700  0.09902  0.62766  1.0000
  C   C760      1.0  0.34332  0.03293  0.86235  1.0000
  S   S266      1.0  0.34945  0.15909  0.84284  1.0000
  C   C761      1.0  0.44343  0.20902  0.65496  1.0000
  C   C762      1.0  0.41016  0.20467  0.64154  1.0000
  H   H750      1.0  0.40305  0.09505  0.90222  1.0000
  C   C763      1.0  0.38961  0.10502  0.71317  1.0000
  H   H751      1.0  0.38130  0.12255  0.92992  1.0000
  C   C764      1.0  0.51688  0.05806  0.53122  1.0000
  C   C765      1.0  0.39201  0.19354  0.63633  1.0000
  H   H752      1.0  0.53339  0.03036  0.87092  1.0000
  H   H753      1.0  0.45951  0.02332  0.81901  1.0000
  N   N65       1.0  0.42425  0.19732  0.65037  1.0000
  H   H754      1.0  0.43210  0.24374  0.67747  1.0000
  N   N66       1.0  0.43938  0.07027  0.66209  1.0000
  C   C766      1.0  0.47898  0.08377  0.66412  1.0000
  C   C767      1.0  0.39083  0.18626  0.89207  1.0000
  C   C768      1.0  0.42320  0.21537  0.88472  1.0000
  S   S267      1.0  0.62326  0.03624  0.82783  1.0000
  S   S268      1.0  0.65592  0.04760  0.75796  1.0000
  C   C769      1.0  0.46875  0.07140  0.68401  1.0000
  H   H755      1.0  0.58478  0.07304  0.91700  1.0000
  C   C770      1.0  0.38821  0.17484  0.64079  1.0000
  C   C771      1.0  0.42054  0.17903  0.65525  1.0000
  H   H756      1.0  0.38562  0.10732  0.75597  1.0000
  H   H757      1.0  0.49446  0.08892  0.66489  1.0000
  H   H758      1.0  0.42159  0.08659  0.50606  1.0000
  C   C772      1.0  0.58609  0.03213  0.94104  1.0000
  C   C773      1.0  0.40797  0.07059  0.88720  1.0000
  H   H759      1.0  0.58223  0.07304  0.82352  1.0000
  C   C774      1.0  0.59556  0.07565  0.90067  1.0000
  H   H760      1.0  0.34112  0.03355  0.78995  1.0000
  C   C775      1.0  0.65721  0.05393  0.90281  1.0000
  C   C776      1.0  0.41051  0.20743  0.75546  1.0000
  H   H761      1.0  0.51921  0.03649  0.82824  1.0000
  H   H762      1.0  0.59136  0.04216  0.68210  1.0000
  H   H763      1.0  0.40502  0.06455  0.51278  1.0000
  C   C777      1.0  0.63686  0.04294  0.85624  1.0000
  S   S269      1.0  0.62688  0.03003  0.69183  1.0000
  H   H764      1.0  0.35533  0.02998  0.85183  1.0000
  H   H765      1.0  0.43519  0.10501  0.92168  1.0000
  S   S270      1.0  0.63066  0.01274  0.54077  1.0000
  H   H766      1.0  0.55967  0.05560  0.50618  1.0000
  C   C778      1.0  0.53082  0.04055  0.56175  1.0000
  H   H767      1.0  0.37802  0.17493  0.89422  1.0000
  H   H768      1.0  0.45881  0.05631  0.87331  1.0000
  H   H769      1.0  0.46375  0.05823  0.90843  1.0000
  H   H770      1.0  0.60912  0.05371  0.61478  1.0000
  H   H771      1.0  0.41039  0.16951  0.89429  1.0000
  H   H772      1.0  0.44181  0.08716  0.62648  1.0000
  C   C779      1.0  0.42527  0.19783  0.88820  1.0000
  C   C780      1.0  0.62953  0.03519  0.88156  1.0000
  H   H773      1.0  0.44476  0.03993  0.89805  1.0000
  C   C781      1.0  0.59560  0.04325  0.61682  1.0000
  C   C782      1.0  0.34230  0.05095  0.86303  1.0000
  C   C783      1.0  0.41300  0.08675  0.90060  1.0000
  S   S271      1.0  0.42720  0.25029  0.80533  1.0000
  H   H774      1.0  0.59788  0.03479  0.57614  1.0000
  C   C784      1.0  0.57207  0.01902  0.59733  1.0000
  H   H775      1.0  0.42073  0.15884  0.51425  1.0000
  C   C785      1.0  0.63707  0.03256  0.61111  1.0000
  S   S272      1.0  0.46939  0.02645  0.94926  1.0000
  C   C786      1.0  0.39806  0.17053  0.50373  1.0000
  C   C787      1.0  0.63628  0.03770  0.65913  1.0000
  H   H776      1.0  0.54169  0.05079  0.77026  1.0000
  H   H777      1.0  0.60720  0.05909  0.66076  1.0000
  H   H778      1.0  0.46893  0.00819  0.61042  1.0000
  C   C788      1.0  0.63042  0.02654  0.63753  1.0000
  H   H779      1.0  0.65382  0.06347  0.67061  1.0000
  N   N67       1.0  0.58515  0.04015  0.64071  1.0000
  C   C789      1.0  0.58932  0.03263  0.59486  1.0000
  C   C790      1.0  0.46201  0.09897  0.49170  1.0000
  C   C791      1.0  0.54740  0.05371  0.52011  1.0000
  C   C792      1.0  0.55550  0.01272  0.95781  1.0000
  H   H780      1.0  0.58227  0.02309  0.82621  1.0000
  H   H781      1.0  0.51867  0.03590  0.78096  1.0000
  H   H782      1.0  0.46788  0.05685  0.50203  1.0000
  H   H783      1.0  0.37030  0.11449  0.97738  1.0000
  C   C793      1.0  0.47732  0.01069  0.84227  1.0000
  H   H784      1.0  0.55829  0.03739  0.54835  1.0000
  H   H785      1.0  0.54002  0.00875  0.95783  1.0000
  C   C794      1.0  0.55882  0.02641  0.85140  1.0000
  H   H786      1.0  0.45632  0.09523  0.98019  1.0000
  C   C795      1.0  0.59787  0.07496  0.82542  1.0000
  H   H787      1.0  0.63392  0.03457  0.92409  1.0000
  H   H788      1.0  0.39797  0.08502  0.51892  1.0000
  N   N68       1.0  0.42982  0.18772  0.51396  1.0000
  C   C796      1.0  0.56674  0.01870  0.49606  1.0000
  S   S273      1.0  0.51530  0.02049  0.69198  1.0000
  H   H789      1.0  0.38914  0.23694  0.87450  1.0000
  H   H790      1.0  0.58303  0.06052  0.66755  1.0000
  Fe  Fe136     1.0  0.40152  0.25556  0.55590  1.0000
  H   H791      1.0  0.38767  0.15749  0.50201  1.0000
  Fe  Fe137     1.0  0.46090  0.01675  0.68771  1.0000
  C   C797      1.0  0.42485  0.20351  0.50925  1.0000
  H   H792      1.0  0.64382  0.08712  0.88913  1.0000
  H   H793      1.0  0.56714  0.01054  0.58054  1.0000
  C   C798      1.0  0.47028  0.01592  0.81826  1.0000
  Fe  Fe138     1.0  0.49042  0.01524  0.97161  1.0000
  H   H794      1.0  0.33818  0.21859  0.83156  1.0000
  H   H795      1.0  0.37813  0.18609  0.49468  1.0000
  Fe  Fe139     1.0  0.65886  0.04396  0.96987  1.0000
  S   S274      1.0  0.42892  0.01421  0.68719  1.0000
  H   H796      1.0  0.56509  0.02365  0.87009  1.0000
  H   H797      1.0  0.61946  0.08139  0.92679  1.0000
  S   S275      1.0  0.65855  0.05778  0.57328  1.0000
  C   C799      1.0  0.54666  0.01351  0.49630  1.0000
  H   H798      1.0  0.45883  0.25349  0.92397  1.0000
  Fe  Fe140     1.0  0.64732  0.01016  0.50307  1.0000
  Fe  Fe141     1.0  0.49536  0.01014  0.65868  1.0000
  C   C800      1.0  0.53394  0.07171  0.48883  1.0000
  Fe  Fe142     1.0  0.66424  0.07808  0.75366  1.0000
  C   C801      1.0  0.66467  0.06161  0.87746  1.0000
  H   H799      1.0  0.54678  0.08353  0.48837  1.0000
  S   S276      1.0  0.44143  0.25595  0.73059  1.0000
  H   H800      1.0  0.66563  0.07409  0.62410  1.0000
  S   S277      1.0  0.66519  0.03894  0.50165  1.0000
  C   C802      1.0  0.41841  0.12536  0.98526  1.0000
  H   H801      1.0  0.37134  0.07868  0.48999  1.0000
  Fe  Fe143     1.0  0.44326  0.27687  0.33034  1.0000
  S   S278      1.0  0.41612  0.28506  0.32485  1.0000
  H   H802      1.0  0.38889  0.45004  0.00182  1.0000
  Fe  Fe144     1.0  0.45028  0.27631  0.26892  1.0000
  S   S279      1.0  0.42332  0.28385  0.26023  1.0000
  H   H803      1.0  0.49382  0.28512  0.14222  1.0000
  Fe  Fe145     1.0  0.43295  0.30428  0.29180  1.0000
  S   S280      1.0  0.43141  0.33321  0.28302  1.0000
  H   H804      1.0  0.37293  0.38907  0.06721  1.0000
  S   S281      1.0  0.46059  0.29746  0.29935  1.0000
  H   H805      1.0  0.37587  0.31880  0.42509  1.0000
  Fe  Fe146     1.0  0.43949  0.28266  0.08277  1.0000
  S   S282      1.0  0.40906  0.26921  0.09637  1.0000
  S   S283      1.0  0.46390  0.29080  0.11108  1.0000
  Fe  Fe147     1.0  0.43003  0.28447  0.02276  1.0000
  S   S284      1.0  0.39894  0.27102  0.03229  1.0000
  H   H806      1.0  0.42400  0.42628  0.15581  1.0000
  Fe  Fe148     1.0  0.40163  0.28898  0.06722  1.0000
  S   S285      1.0  0.37980  0.30481  0.07251  1.0000
  C   C803      1.0  0.36565  0.31765  0.44188  1.0000
  S   S286      1.0  0.43208  0.30384  0.05616  1.0000
  N   N69       1.0  0.36794  0.35424  0.02585  1.0000
  C   C804      1.0  0.43119  0.49079  0.45175  1.0000
  C   C805      1.0  0.54493  0.47772  0.16147  1.0000
  C   C806      1.0  0.38814  0.30835  0.47134  1.0000
  H   H807      1.0  0.38675  0.29386  0.46778  1.0000
  S   S287      1.0  0.37352  0.41633  0.42189  1.0000
  S   S288      1.0  0.34593  0.36746  0.43572  1.0000
  Fe  Fe149     1.0  0.50501  0.43043  0.25276  1.0000
  S   S289      1.0  0.47773  0.43889  0.25391  1.0000
  S   S290      1.0  0.50495  0.40081  0.25912  1.0000
  Fe  Fe150     1.0  0.53016  0.47048  0.24633  1.0000
  S   S291      1.0  0.50423  0.48100  0.24779  1.0000
  S   S292      1.0  0.56030  0.48963  0.23945  1.0000
  Fe  Fe151     1.0  0.49329  0.46010  0.28136  1.0000
  S   S293      1.0  0.47789  0.46581  0.31888  1.0000
  Fe  Fe152     1.0  0.49187  0.45868  0.22017  1.0000
  S   S294      1.0  0.47758  0.46596  0.18335  1.0000
  S   S295      1.0  0.52009  0.45081  0.28184  1.0000
  S   S296      1.0  0.51832  0.44894  0.21699  1.0000
  Fe  Fe153     1.0  0.49412  0.45682  0.03078  1.0000
  S   S297      1.0  0.50062  0.44292  0.06884  1.0000
  H   H808      1.0  0.35677  0.32809  0.04497  1.0000
  S   S298      1.0  0.50316  0.44308  0.43230  1.0000
  H   H809      1.0  0.53223  0.49326  0.20032  1.0000
  C   C807      1.0  0.37295  0.39146  0.02392  1.0000
  H   H810      1.0  0.45855  0.41849  0.06742  1.0000
  C   C808      1.0  0.44239  0.32318  0.20666  1.0000
  C   C809      1.0  0.48481  0.45989  0.15180  1.0000
  C   C810      1.0  0.49432  0.44638  0.14942  1.0000
  C   C811      1.0  0.49908  0.44128  0.12386  1.0000
  C   C812      1.0  0.49451  0.44974  0.10056  1.0000
  C   C813      1.0  0.48502  0.46328  0.10303  1.0000
  C   C814      1.0  0.48012  0.46827  0.12855  1.0000
  H   H811      1.0  0.49766  0.43957  0.16722  1.0000
  H   H812      1.0  0.50633  0.43072  0.12213  1.0000
  H   H813      1.0  0.48126  0.46979  0.08538  1.0000
  H   H814      1.0  0.44317  0.43878  0.04181  1.0000
  C   C815      1.0  0.48629  0.46119  0.35046  1.0000
  C   C816      1.0  0.50233  0.45451  0.35270  1.0000
  C   C817      1.0  0.50776  0.44955  0.37801  1.0000
  C   C818      1.0  0.49722  0.45131  0.40130  1.0000
  C   C819      1.0  0.48142  0.45842  0.39923  1.0000
  C   C820      1.0  0.47603  0.46339  0.37383  1.0000
  H   H815      1.0  0.51044  0.45288  0.33501  1.0000
  H   H816      1.0  0.52000  0.44410  0.37953  1.0000
  H   H817      1.0  0.47307  0.45957  0.41707  1.0000
  H   H818      1.0  0.46375  0.46869  0.37213  1.0000
  C   C821      1.0  0.38881  0.42577  0.44767  1.0000
  C   C822      1.0  0.40873  0.42918  0.44323  1.0000
  C   C823      1.0  0.42155  0.43923  0.46126  1.0000
  C   C824      1.0  0.39462  0.44235  0.98753  1.0000
  C   C825      1.0  0.37226  0.38206  0.04858  1.0000
  H   H819      1.0  0.46314  0.32409  0.14430  1.0000
  H   H820      1.0  0.41430  0.42439  0.42536  1.0000
  H   H821      1.0  0.43688  0.44193  0.45745  1.0000
  S   S299      1.0  0.47384  0.44205  0.00067  1.0000
  H   H822      1.0  0.34484  0.32569  0.41746  1.0000
  H   H823      1.0  0.54621  0.46395  0.09739  1.0000
  Fe  Fe154     1.0  0.46243  0.46636  0.99981  1.0000
  S   S300      1.0  0.33454  0.30113  0.18335  1.0000
  H   H824      1.0  0.37964  0.33169  0.02714  1.0000
  H   H825      1.0  0.36834  0.35198  0.25515  1.0000
  C   C826      1.0  0.44217  0.43801  0.06358  1.0000
  C   C827      1.0  0.44914  0.42567  0.10607  1.0000
  C   C828      1.0  0.52844  0.49872  0.18096  1.0000
  C   C829      1.0  0.40086  0.45775  0.39210  1.0000
  H   H826      1.0  0.34934  0.38929  0.30199  1.0000
  C   C830      1.0  0.36969  0.30528  0.10484  1.0000
  C   C831      1.0  0.37187  0.29346  0.12575  1.0000
  C   C832      1.0  0.36143  0.29247  0.15027  1.0000
  S   S301      1.0  0.43004  0.46180  0.00333  1.0000
  H   H827      1.0  0.37448  0.40592  0.02314  1.0000
  H   H828      1.0  0.38101  0.28462  0.12275  1.0000
  H   H829      1.0  0.36270  0.28297  0.16619  1.0000
  C   C833      1.0  0.45203  0.35194  0.27688  1.0000
  C   C834      1.0  0.47069  0.35003  0.27795  1.0000
  C   C835      1.0  0.48665  0.36507  0.27229  1.0000
  C   C836      1.0  0.48424  0.38227  0.26576  1.0000
  C   C837      1.0  0.46561  0.38424  0.26495  1.0000
  C   C838      1.0  0.44962  0.36915  0.27041  1.0000
  H   H830      1.0  0.47288  0.33700  0.28324  1.0000
  H   H831      1.0  0.50098  0.36339  0.27312  1.0000
  H   H832      1.0  0.46346  0.39732  0.25983  1.0000
  H   H833      1.0  0.43530  0.37082  0.26949  1.0000
  C   C839      1.0  0.44319  0.27666  0.40149  1.0000
  C   C840      1.0  0.42086  0.46348  0.39055  1.0000
  C   C841      1.0  0.43825  0.27453  0.45047  1.0000
  C   C842      1.0  0.43492  0.29166  0.45003  1.0000
  C   C843      1.0  0.43525  0.30100  0.42518  1.0000
  C   C844      1.0  0.43912  0.29345  0.40099  1.0000
  H   H834      1.0  0.43645  0.27429  0.20390  1.0000
  Fe  Fe155     1.0  0.50352  0.49259  0.99861  1.0000
  H   H835      1.0  0.43290  0.31433  0.42465  1.0000
  H   H836      1.0  0.43971  0.30096  0.38206  1.0000
  C   C845      1.0  0.46665  0.27600  0.20061  1.0000
  C   C846      1.0  0.54306  0.47133  0.11438  1.0000
  C   C847      1.0  0.48116  0.28249  0.15545  1.0000
  C   C848      1.0  0.46363  0.28312  0.14504  1.0000
  C   C849      1.0  0.44732  0.27978  0.16251  1.0000
  C   C850      1.0  0.44890  0.27647  0.19040  1.0000
  H   H837      1.0  0.43998  0.44889  0.15697  1.0000
  S   S302      1.0  0.44997  0.26750  0.37178  1.0000
  H   H838      1.0  0.43376  0.28046  0.15472  1.0000
  C   C851      1.0  0.37130  0.38209  0.00024  1.0000
  N   N70       1.0  0.49345  0.40687  0.34055  1.0000
  C   C852      1.0  0.48159  0.41259  0.32357  1.0000
  C   C853      1.0  0.48971  0.40569  0.36775  1.0000
  C   C854      1.0  0.46569  0.41767  0.33370  1.0000
  C   C855      1.0  0.47391  0.41064  0.37858  1.0000
  C   C856      1.0  0.46188  0.41672  0.36140  1.0000
  C   C857      1.0  0.51000  0.40165  0.32925  1.0000
  H   H839      1.0  0.48458  0.41354  0.30206  1.0000
  H   H840      1.0  0.49918  0.40136  0.38134  1.0000
  H   H841      1.0  0.45676  0.42285  0.32017  1.0000
  H   H842      1.0  0.47147  0.41041  0.40022  1.0000
  H   H843      1.0  0.44995  0.42115  0.36957  1.0000
  H   H844      1.0  0.50504  0.38855  0.31934  1.0000
  H   H845      1.0  0.51798  0.41203  0.31390  1.0000
  H   H846      1.0  0.52023  0.40031  0.34482  1.0000
  H   H847      1.0  0.42628  0.45789  0.06611  1.0000
  H   H848      1.0  0.37961  0.28018  0.25190  1.0000
  C   C858      1.0  0.43157  0.44770  0.10545  1.0000
  H   H849      1.0  0.52658  0.48559  0.09140  1.0000
  H   H850      1.0  0.42418  0.45613  0.11603  1.0000
  H   H851      1.0  0.49015  0.32161  0.17181  1.0000
  H   H852      1.0  0.47263  0.47864  0.13025  1.0000
  S   S303      1.0  0.48220  0.47918  0.46762  1.0000
  H   H853      1.0  0.42905  0.32356  0.21680  1.0000
  C   C859      1.0  0.45054  0.42643  0.07796  1.0000
  C   C860      1.0  0.43264  0.44874  0.07732  1.0000
  H   H854      1.0  0.37642  0.28061  0.28786  1.0000
  S   S304      1.0  0.48155  0.48041  0.03182  1.0000
  S   S305      1.0  0.34257  0.35219  0.18131  1.0000
  C   C861      1.0  0.43821  0.43524  0.14889  1.0000
  H   H855      1.0  0.39313  0.47760  0.44948  1.0000
  C   C862      1.0  0.34206  0.37511  0.30596  1.0000
  H   H856      1.0  0.34380  0.37679  0.34895  1.0000
  N   N71       1.0  0.47474  0.32092  0.20921  1.0000
  C   C863      1.0  0.45788  0.32156  0.22169  1.0000
  C   C864      1.0  0.34762  0.31589  0.13347  1.0000
  C   C865      1.0  0.54966  0.46845  0.13973  1.0000
  C   C866      1.0  0.48258  0.27867  0.18285  1.0000
  C   C867      1.0  0.49094  0.31963  0.22535  1.0000
  H   H857      1.0  0.45624  0.32062  0.24340  1.0000
  S   S306      1.0  0.51703  0.46956  0.99918  1.0000
  N   N72       1.0  0.43989  0.43636  0.11944  1.0000
  H   H858      1.0  0.48586  0.31225  0.24494  1.0000
  H   H859      1.0  0.49966  0.31174  0.21508  1.0000
  H   H860      1.0  0.50005  0.33338  0.22910  1.0000
  N   N73       1.0  0.36967  0.30215  0.26518  1.0000
  C   C868      1.0  0.38184  0.31536  0.27883  1.0000
  C   C869      1.0  0.35737  0.30654  0.24752  1.0000
  C   C870      1.0  0.38156  0.33345  0.27547  1.0000
  C   C871      1.0  0.35668  0.32449  0.24373  1.0000
  C   C872      1.0  0.36879  0.33801  0.25790  1.0000
  C   C873      1.0  0.37046  0.28331  0.26833  1.0000
  H   H861      1.0  0.39195  0.31200  0.29236  1.0000
  H   H862      1.0  0.34801  0.29616  0.23617  1.0000
  C   C874      1.0  0.36545  0.33464  0.02681  1.0000
  H   H863      1.0  0.36645  0.43005  0.47392  1.0000
  S   S307      1.0  0.44049  0.26455  0.04824  1.0000
  C   C875      1.0  0.44259  0.26717  0.42630  1.0000
  C   C876      1.0  0.33492  0.32004  0.45890  1.0000
  H   H864      1.0  0.49629  0.27821  0.19042  1.0000
  H   H865      1.0  0.33821  0.32451  0.13620  1.0000
  H   H866      1.0  0.35753  0.32828  0.00933  1.0000
  N   N74       1.0  0.42066  0.47925  0.43135  1.0000
  H   H867      1.0  0.43823  0.26731  0.46949  1.0000
  Fe  Fe156     1.0  0.41022  0.26368  0.29412  1.0000
  S   S308      1.0  0.47029  0.27279  0.23522  1.0000
  C   C877      1.0  0.43060  0.47435  0.41044  1.0000
  H   H868      1.0  0.44965  0.42994  0.15773  1.0000
  C   C878      1.0  0.40103  0.47393  0.43277  1.0000
  C   C879      1.0  0.46163  0.32380  0.16609  1.0000
  C   C880      1.0  0.47685  0.32227  0.18178  1.0000
  H   H869      1.0  0.35604  0.32590  0.09298  1.0000
  H   H870      1.0  0.43227  0.32503  0.16667  1.0000
  H   H871      1.0  0.54960  0.50025  0.99642  1.0000
  C   C881      1.0  0.38176  0.43228  0.47057  1.0000
  Fe  Fe157     1.0  0.34435  0.39601  0.42870  1.0000
  C   C882      1.0  0.39085  0.46311  0.41319  1.0000
  H   H872      1.0  0.45603  0.41689  0.11706  1.0000
  C   C883      1.0  0.36892  0.36339  0.00159  1.0000
  C   C884      1.0  0.34833  0.26080  0.07553  1.0000
  H   H873      1.0  0.42235  0.48982  0.47068  1.0000
  H   H874      1.0  0.51270  0.49706  0.18214  1.0000
  C   C885      1.0  0.34814  0.32150  0.43741  1.0000
  H   H875      1.0  0.55023  0.47550  0.18111  1.0000
  C   C886      1.0  0.44427  0.32416  0.17865  1.0000
  H   H876      1.0  0.44402  0.48638  0.45731  1.0000
  C   C887      1.0  0.35781  0.31670  0.10895  1.0000
  H   H877      1.0  0.44616  0.47866  0.40930  1.0000
  H   H878      1.0  0.42873  0.45933  0.37422  1.0000
  H   H879      1.0  0.36894  0.35607  0.06843  1.0000
  C   C888      1.0  0.34906  0.30350  0.15394  1.0000
  H   H880      1.0  0.34689  0.32788  0.22972  1.0000
  H   H881      1.0  0.35590  0.27377  0.26788  1.0000
  C   C889      1.0  0.41452  0.44635  0.48357  1.0000
  C   C890      1.0  0.36984  0.36334  0.04917  1.0000
  C   C891      1.0  0.33580  0.36399  0.28447  1.0000
  H   H882      1.0  0.37532  0.45822  0.41494  1.0000
  H   H883      1.0  0.39985  0.31676  0.45772  1.0000
  H   H884      1.0  0.39308  0.44879  0.37740  1.0000
  N   N75       1.0  0.53358  0.48922  0.15810  1.0000
  H   H885      1.0  0.55825  0.45900  0.14259  1.0000
  H   H886      1.0  0.34901  0.26761  0.05593  1.0000
  H   H887      1.0  0.39134  0.34387  0.28627  1.0000
  H   H888      1.0  0.43577  0.50511  0.44408  1.0000
  Fe  Fe158     1.0  0.49438  0.45524  0.46952  1.0000
  C   C892      1.0  0.53199  0.48348  0.11101  1.0000
  S   S309      1.0  0.33931  0.37372  0.25142  1.0000
  S   S310      1.0  0.43145  0.30243  0.47991  1.0000
  N   N76       1.0  0.36988  0.31261  0.46707  1.0000
  H   H889      1.0  0.51814  0.50130  0.13064  1.0000
  C   C893      1.0  0.33878  0.36809  0.33261  1.0000
  C   C894      1.0  0.52725  0.49229  0.13325  1.0000
  N   N77       1.0  0.33753  0.26470  0.09629  1.0000
  H   H890      1.0  0.37694  0.38607  0.48072  1.0000
  C   C895      1.0  0.33923  0.31457  0.48440  1.0000
  H   H891      1.0  0.33351  0.28859  0.07717  1.0000
  Fe  Fe159     1.0  0.44253  0.27285  0.83067  1.0000
  S   S311      1.0  0.41779  0.28485  0.83485  1.0000
  H   H892      1.0  0.35996  0.30634  0.50793  1.0000
  Fe  Fe160     1.0  0.43735  0.26933  0.76937  1.0000
  S   S312      1.0  0.41227  0.28118  0.77101  1.0000
  C   C896      1.0  0.52691  0.49498  0.56498  1.0000
  Fe  Fe161     1.0  0.43068  0.30162  0.79744  1.0000
  S   S313      1.0  0.43222  0.33179  0.79596  1.0000
  H   H893      1.0  0.44935  0.29434  0.71609  1.0000
  S   S314      1.0  0.45640  0.29057  0.79427  1.0000
  C   C897      1.0  0.47625  0.40960  0.69670  1.0000
  Fe  Fe162     1.0  0.42630  0.28721  0.58281  1.0000
  Fe  Fe163     1.0  0.40311  0.26294  0.80808  1.0000
  S   S315      1.0  0.44328  0.29891  0.61856  1.0000
  Fe  Fe164     1.0  0.42159  0.28856  0.52094  1.0000
  S   S316      1.0  0.39084  0.27246  0.52558  1.0000
  C   C898      1.0  0.40182  0.46035  0.91392  1.0000
  Fe  Fe165     1.0  0.38855  0.28975  0.56011  1.0000
  S   S317      1.0  0.36678  0.30581  0.56250  1.0000
  H   H894      1.0  0.45645  0.46773  0.91723  1.0000
  S   S318      1.0  0.41862  0.30699  0.55388  1.0000
  C   C899      1.0  0.53186  0.48468  0.60890  1.0000
  H   H895      1.0  0.38905  0.44826  0.50545  1.0000
  H   H896      1.0  0.57114  0.48468  0.83574  1.0000
  H   H897      1.0  0.52966  0.49539  0.54347  1.0000
  H   H898      1.0  0.40058  0.34837  0.79582  1.0000
  S   S319      1.0  0.37501  0.41023  0.92552  1.0000
  S   S320      1.0  0.34551  0.36195  0.93360  1.0000
  Fe  Fe166     1.0  0.50544  0.42840  0.75699  1.0000
  S   S321      1.0  0.47848  0.43732  0.75515  1.0000
  S   S322      1.0  0.50420  0.39827  0.75910  1.0000
  Fe  Fe167     1.0  0.53130  0.46831  0.75074  1.0000
  S   S323      1.0  0.50571  0.47918  0.74834  1.0000
  S   S324      1.0  0.56142  0.48779  0.75072  1.0000
  Fe  Fe168     1.0  0.49324  0.45908  0.78228  1.0000
  S   S325      1.0  0.48000  0.46903  0.81817  1.0000
  Fe  Fe169     1.0  0.49410  0.45628  0.72132  1.0000
  S   S326      1.0  0.47875  0.46034  0.68371  1.0000
  S   S327      1.0  0.51944  0.44915  0.78637  1.0000
  S   S328      1.0  0.52047  0.44635  0.72147  1.0000
  Fe  Fe170     1.0  0.49426  0.45391  0.53107  1.0000
  S   S329      1.0  0.50480  0.44193  0.56777  1.0000
  H   H899      1.0  0.52111  0.48048  0.82047  1.0000
  S   S330      1.0  0.50197  0.44377  0.93227  1.0000
  H   H900      1.0  0.40481  0.47944  0.94530  1.0000
  C   C900      1.0  0.38825  0.41039  0.56697  1.0000
  H   H901      1.0  0.56060  0.47444  0.80575  1.0000
  H   H902      1.0  0.36732  0.35615  0.98316  1.0000
  C   C901      1.0  0.48633  0.45523  0.65165  1.0000
  C   C902      1.0  0.50175  0.44768  0.64817  1.0000
  C   C903      1.0  0.50692  0.44318  0.62243  1.0000
  C   C904      1.0  0.49720  0.44683  0.59988  1.0000
  C   C905      1.0  0.48203  0.45468  0.60329  1.0000
  C   C906      1.0  0.47652  0.45871  0.62912  1.0000
  H   H903      1.0  0.50970  0.44532  0.66523  1.0000
  H   H904      1.0  0.51873  0.43718  0.61986  1.0000
  H   H905      1.0  0.47432  0.45738  0.58611  1.0000
  H   H906      1.0  0.46458  0.46456  0.63165  1.0000
  C   C907      1.0  0.48716  0.46239  0.84941  1.0000
  C   C908      1.0  0.49250  0.44629  0.85272  1.0000
  C   C909      1.0  0.49733  0.44085  0.87817  1.0000
  C   C910      1.0  0.49701  0.45154  0.90033  1.0000
  C   C911      1.0  0.49237  0.46797  0.89669  1.0000
  C   C912      1.0  0.48721  0.47327  0.87139  1.0000
  H   H907      1.0  0.49240  0.43775  0.83589  1.0000
  H   H908      1.0  0.50106  0.42818  0.88078  1.0000
  H   H909      1.0  0.49282  0.47664  0.91333  1.0000
  H   H910      1.0  0.48335  0.48588  0.86882  1.0000
  C   C913      1.0  0.38945  0.42146  0.95115  1.0000
  C   C914      1.0  0.40930  0.42337  0.94943  1.0000
  C   C915      1.0  0.33642  0.31895  0.62416  1.0000
  H   H911      1.0  0.38950  0.31504  0.80118  1.0000
  H   H912      1.0  0.45147  0.36100  0.72370  1.0000
  H   H913      1.0  0.51619  0.49297  0.64147  1.0000
  H   H914      1.0  0.41515  0.41639  0.93424  1.0000
  S   S331      1.0  0.39585  0.27111  0.59112  1.0000
  Fe  Fe171     1.0  0.46230  0.46388  0.50128  1.0000
  C   C916      1.0  0.50575  0.40121  0.68524  1.0000
  S   S332      1.0  0.51658  0.46707  0.49908  1.0000
  C   C917      1.0  0.36798  0.34429  0.84763  1.0000
  C   C918      1.0  0.44114  0.46574  0.91594  1.0000
  N   N78       1.0  0.37948  0.38877  0.52301  1.0000
  C   C919      1.0  0.43197  0.47539  0.93262  1.0000
  H   H915      1.0  0.35930  0.32935  0.69546  1.0000
  C   C920      1.0  0.37336  0.39443  0.56912  1.0000
  S   S333      1.0  0.43825  0.29682  0.98035  1.0000
  C   C921      1.0  0.39906  0.41516  0.54287  1.0000
  H   H916      1.0  0.43248  0.26019  0.63336  1.0000
  C   C922      1.0  0.35446  0.30506  0.59359  1.0000
  C   C923      1.0  0.35345  0.29118  0.61299  1.0000
  C   C924      1.0  0.34374  0.29111  0.63785  1.0000
  C   C925      1.0  0.47976  0.32078  0.93291  1.0000
  H   H917      1.0  0.36481  0.39056  0.58778  1.0000
  H   H918      1.0  0.35993  0.28039  0.60872  1.0000
  H   H919      1.0  0.35942  0.36954  0.50080  1.0000
  C   C926      1.0  0.45259  0.35008  0.78624  1.0000
  C   C927      1.0  0.46983  0.34726  0.77653  1.0000
  C   C928      1.0  0.48555  0.36216  0.76882  1.0000
  C   C929      1.0  0.48426  0.38006  0.77057  1.0000
  C   C930      1.0  0.46701  0.38287  0.78033  1.0000
  C   C931      1.0  0.45130  0.36797  0.78810  1.0000
  H   H920      1.0  0.47108  0.33362  0.77476  1.0000
  H   H921      1.0  0.49879  0.35980  0.76126  1.0000
  H   H922      1.0  0.46576  0.39653  0.78180  1.0000
  H   H923      1.0  0.43808  0.37037  0.79563  1.0000
  C   C932      1.0  0.44751  0.27205  0.90044  1.0000
  C   C933      1.0  0.43861  0.28606  0.90159  1.0000
  C   C934      1.0  0.43478  0.29272  0.92644  1.0000
  C   C935      1.0  0.43944  0.28525  0.95056  1.0000
  H   H924      1.0  0.43116  0.43001  0.87742  1.0000
  N   N79       1.0  0.43084  0.45351  0.89896  1.0000
  H   H925      1.0  0.43572  0.29259  0.88334  1.0000
  H   H926      1.0  0.42877  0.30417  0.92697  1.0000
  C   C936      1.0  0.43586  0.25835  0.67634  1.0000
  H   H927      1.0  0.48481  0.36895  0.70505  1.0000
  C   C937      1.0  0.44069  0.26792  0.69981  1.0000
  C   C938      1.0  0.44550  0.28683  0.69820  1.0000
  C   C939      1.0  0.44622  0.29610  0.67316  1.0000
  C   C940      1.0  0.44163  0.28658  0.64963  1.0000
  H   H928      1.0  0.35796  0.37106  0.54887  1.0000
  C   C941      1.0  0.44760  0.27069  0.94960  1.0000
  C   C942      1.0  0.47700  0.37918  0.70488  1.0000
  H   H929      1.0  0.45055  0.31074  0.67196  1.0000
  H   H930      1.0  0.53843  0.47684  0.62220  1.0000
  C   C943      1.0  0.37475  0.37752  0.49968  1.0000
  H   H931      1.0  0.46632  0.32576  0.82867  1.0000
  H   H932      1.0  0.56280  0.48388  0.56824  1.0000
  H   H933      1.0  0.34932  0.29068  0.82428  1.0000
  H   H934      1.0  0.34661  0.32966  0.58427  1.0000
  H   H935      1.0  0.39287  0.31102  0.49220  1.0000
  H   H936      1.0  0.51537  0.40641  0.70182  1.0000
  H   H937      1.0  0.38662  0.36729  0.82566  1.0000
  H   H938      1.0  0.35828  0.30664  0.70553  1.0000
  H   H939      1.0  0.39146  0.41901  0.58397  1.0000
  H   H940      1.0  0.50823  0.50610  0.80788  1.0000
  C   C944      1.0  0.44831  0.38792  0.71673  1.0000
  H   H941      1.0  0.54896  0.49753  0.49437  1.0000
  H   H942      1.0  0.48330  0.42341  0.69001  1.0000
  C   C945      1.0  0.51064  0.50380  0.60297  1.0000
  H   H943      1.0  0.43385  0.38469  0.72554  1.0000
  C   C946      1.0  0.51939  0.49388  0.61994  1.0000
  C   C947      1.0  0.45813  0.37461  0.71553  1.0000
  H   H944      1.0  0.50963  0.38929  0.67722  1.0000
  H   H945      1.0  0.34285  0.28030  0.65275  1.0000
  S   S334      1.0  0.47339  0.43928  0.50141  1.0000
  H   H946      1.0  0.48841  0.30078  0.89408  1.0000
  C   C948      1.0  0.54790  0.47500  0.57032  1.0000
  C   C949      1.0  0.45176  0.26422  0.92459  1.0000
  C   C950      1.0  0.41146  0.45095  0.89747  1.0000
  C   C951      1.0  0.38963  0.34202  0.81112  1.0000
  Fe  Fe172     1.0  0.34487  0.39105  0.93099  1.0000
  S   S335      1.0  0.48270  0.48150  0.96650  1.0000
  C   C952      1.0  0.55767  0.48061  0.82472  1.0000
  S   S336      1.0  0.48179  0.47751  0.53324  1.0000
  C   C953      1.0  0.38191  0.35263  0.82794  1.0000
  H   H947      1.0  0.38390  0.36804  0.49869  1.0000
  C   C954      1.0  0.41217  0.47257  0.93169  1.0000
  H   H948      1.0  0.54319  0.47002  0.55026  1.0000
  H   H949      1.0  0.43710  0.43669  0.96416  1.0000
  S   S337      1.0  0.43015  0.46042  0.50529  1.0000
  N   N80       1.0  0.47594  0.32204  0.90427  1.0000
  C   C955      1.0  0.48168  0.31097  0.88680  1.0000
  C   C956      1.0  0.46728  0.33474  0.89501  1.0000
  C   C957      1.0  0.47825  0.31208  0.85940  1.0000
  C   C958      1.0  0.46369  0.33626  0.86769  1.0000
  C   C959      1.0  0.46916  0.32479  0.84984  1.0000
  S   S338      1.0  0.45497  0.26518  0.86924  1.0000
  C   C960      1.0  0.44071  0.44350  0.88166  1.0000
  H   H950      1.0  0.46298  0.34368  0.90882  1.0000
  H   H951      1.0  0.48232  0.30288  0.84580  1.0000
  H   H952      1.0  0.45669  0.34622  0.86032  1.0000
  Fe  Fe173     1.0  0.49519  0.45776  0.96900  1.0000
  H   H953      1.0  0.45010  0.41616  0.70833  1.0000
  N   N81       1.0  0.48573  0.39646  0.69535  1.0000
  C   C961      1.0  0.38208  0.43061  0.97082  1.0000
  N   N82       1.0  0.37895  0.31782  0.67409  1.0000
  C   C962      1.0  0.38034  0.32962  0.65241  1.0000
  C   C963      1.0  0.38786  0.30424  0.67324  1.0000
  C   C964      1.0  0.39088  0.32795  0.62910  1.0000
  C   C965      1.0  0.39841  0.30214  0.65022  1.0000
  C   C966      1.0  0.40002  0.31415  0.62812  1.0000
  C   C967      1.0  0.36832  0.31987  0.69873  1.0000
  H   H954      1.0  0.37288  0.34011  0.65277  1.0000
  H   H955      1.0  0.38674  0.29484  0.69035  1.0000
  H   H956      1.0  0.39153  0.33692  0.61159  1.0000
  H   H957      1.0  0.40524  0.29122  0.64939  1.0000
  H   H958      1.0  0.40819  0.31264  0.61018  1.0000
  H   H959      1.0  0.37840  0.32497  0.71478  1.0000
  H   H960      1.0  0.41080  0.42748  0.54099  1.0000
  Fe  Fe174     1.0  0.50316  0.49004  0.49957  1.0000
  N   N83       1.0  0.36955  0.31506  0.83365  1.0000
  C   C968      1.0  0.36170  0.32537  0.84998  1.0000
  C   C969      1.0  0.38328  0.32314  0.81428  1.0000
  H   H961      1.0  0.36177  0.35242  0.86072  1.0000
  H   H962      1.0  0.58434  0.50547  0.49577  1.0000
  C   C970      1.0  0.43605  0.26763  0.65137  1.0000
  C   C971      1.0  0.36244  0.29526  0.83598  1.0000
  H   H963      1.0  0.40319  0.44109  0.88431  1.0000
  N   N84       1.0  0.53507  0.48494  0.58167  1.0000
  H   H964      1.0  0.35038  0.31906  0.86484  1.0000
  S   S339      1.0  0.43273  0.27046  0.54916  1.0000
  C   C972      1.0  0.39450  0.40407  0.52099  1.0000
  H   H965      1.0  0.45166  0.26510  0.96802  1.0000
  H   H966      1.0  0.37334  0.28861  0.82838  1.0000
  H   H967      1.0  0.33659  0.37673  0.84716  1.0000
  C   C973      1.0  0.36936  0.38357  0.54692  1.0000
  H   H968      1.0  0.49380  0.33026  0.93708  1.0000
  C   C974      1.0  0.45739  0.40554  0.70719  1.0000
  C   C975      1.0  0.42180  0.43491  0.96635  1.0000
  H   H969      1.0  0.50831  0.41173  0.66863  1.0000
  H   H970      1.0  0.46831  0.32401  0.94561  1.0000
  H   H971      1.0  0.44006  0.48448  0.94693  1.0000
  H   H972      1.0  0.47985  0.30679  0.93934  1.0000
  H   H973      1.0  0.38633  0.45760  0.91359  1.0000
  H   H974      1.0  0.37153  0.38916  0.98097  1.0000
  H   H975      1.0  0.45343  0.44105  0.89148  1.0000
  H   H976      1.0  0.35891  0.29047  0.85731  1.0000
  H   H977      1.0  0.44559  0.45133  0.86235  1.0000
  C   C976      1.0  0.35681  0.31074  0.48810  1.0000
  S   S340      1.0  0.33461  0.35748  0.67869  1.0000
  C   C977      1.0  0.34583  0.31888  0.59918  1.0000
  H   H978      1.0  0.36686  0.42946  0.97212  1.0000
  H   H979      1.0  0.54749  0.46271  0.58306  1.0000
  C   C978      1.0  0.33523  0.30501  0.64344  1.0000
  H   H980      1.0  0.40292  0.40791  0.50228  1.0000
  N   N85       1.0  0.55026  0.49620  0.81848  1.0000
  C   C979      1.0  0.39459  0.44274  0.48825  1.0000
  H   H981      1.0  0.33968  0.39102  0.80138  1.0000
  C   C980      1.0  0.53094  0.49376  0.81669  1.0000
  C   C981      1.0  0.51461  0.50458  0.57531  1.0000
  H   H982      1.0  0.54715  0.47014  0.83753  1.0000
  C   C982      1.0  0.41456  0.44491  0.98490  1.0000
  C   C983      1.0  0.33363  0.37654  0.80430  1.0000
  Fe  Fe175     1.0  0.61153  0.59531  0.24127  1.0000
  S   S341      1.0  0.63743  0.58491  0.24298  1.0000
  S   S342      1.0  0.58160  0.57611  0.23867  1.0000
  Fe  Fe176     1.0  0.63664  0.63541  0.24046  1.0000
  S   S343      1.0  0.65898  0.59644  0.31158  1.0000
  S   S344      1.0  0.63656  0.66493  0.23370  1.0000
  Fe  Fe177     1.0  0.65072  0.60712  0.21210  1.0000
  C   C984      1.0  0.55719  0.51406  0.99992  1.0000
  Fe  Fe178     1.0  0.64734  0.60595  0.27363  1.0000
  H   H983      1.0  0.59421  0.59337  0.44011  1.0000
  S   S345      1.0  0.62407  0.61629  0.20852  1.0000
  S   S346      1.0  0.62064  0.61551  0.27346  1.0000
  C   C985      1.0  0.60209  0.56830  0.43719  1.0000
  C   C986      1.0  0.57424  0.55257  0.30335  1.0000
  C   C987      1.0  0.58907  0.57871  0.44025  1.0000
  Fe  Fe179     1.0  0.64247  0.60760  0.02727  1.0000
  S   S347      1.0  0.63624  0.62214  0.06352  1.0000
  Fe  Fe180     1.0  0.64181  0.60234  0.46705  1.0000
  S   S348      1.0  0.63389  0.61465  0.42855  1.0000
  S   S349      1.0  0.65396  0.58333  0.03115  1.0000
  H   H984      1.0  0.55932  0.57797  0.44674  1.0000
  H   H985      1.0  0.60460  0.52581  0.44592  1.0000
  C   C988      1.0  0.56592  0.51368  0.23860  1.0000
  H   H986      1.0  0.62560  0.62600  0.37600  1.0000
  H   H987      1.0  0.57163  0.52659  0.44154  1.0000
  H   H988      1.0  0.55952  0.55303  0.30104  1.0000
  H   H989      1.0  0.61210  0.53707  0.41317  1.0000
  C   C989      1.0  0.57755  0.54997  0.00791  1.0000
  H   H990      1.0  0.53677  0.51528  0.24285  1.0000
  C   C990      1.0  0.60843  0.57923  0.08598  1.0000
  C   C991      1.0  0.57897  0.53617  0.30195  1.0000
  C   C992      1.0  0.63236  0.55150  0.30791  1.0000
  C   C993      1.0  0.58764  0.53694  0.00469  1.0000
  S   S350      1.0  0.66274  0.62155  0.99343  1.0000
  H   H991      1.0  0.58656  0.58987  0.12254  1.0000
  H   H992      1.0  0.59846  0.56656  0.07941  1.0000
  N   N86       1.0  0.61222  0.55168  0.30660  1.0000
  H   H993      1.0  0.61881  0.58028  0.31016  1.0000
  C   C994      1.0  0.65324  0.69911  0.21205  1.0000
  C   C995      1.0  0.60767  0.56780  0.30805  1.0000
  H   H994      1.0  0.58521  0.58141  0.30647  1.0000
  H   H995      1.0  0.63369  0.56700  0.11363  1.0000
  H   H996      1.0  0.63594  0.56491  0.16304  1.0000
  H   H997      1.0  0.63880  0.69898  0.20691  1.0000
  H   H998      1.0  0.58496  0.50874  0.99865  1.0000
  H   H999      1.0  0.60329  0.59100  0.07921  1.0000
  C   C996      1.0  0.64573  0.69947  0.28026  1.0000
  C   C997      1.0  0.65164  0.60144  0.34394  1.0000
  S   S351      1.0  0.61907  0.59490  0.99974  1.0000
  H   H1000     1.0  0.61573  0.72127  0.25166  1.0000
  C   C998      1.0  0.64073  0.60911  0.39624  1.0000
  C   C999      1.0  0.63448  0.61683  0.37348  1.0000
  C   C1000     1.0  0.63986  0.61299  0.34743  1.0000
  H   H1001     1.0  0.65663  0.74991  0.10096  1.0000
  C   C1001     1.0  0.65775  0.59358  0.36670  1.0000
  C   C1002     1.0  0.62348  0.57132  0.12637  1.0000
  H   H1002     1.0  0.63517  0.61925  0.33012  1.0000
  C   C1003     1.0  0.62892  0.70202  0.26996  1.0000
  C   C1004     1.0  0.58865  0.56851  0.30635  1.0000
  C   C1005     1.0  0.59803  0.58286  0.15936  1.0000
  C   C1006     1.0  0.64595  0.61739  0.09394  1.0000
  C   C1007     1.0  0.63955  0.62342  0.11771  1.0000
  C   C1008     1.0  0.64629  0.61918  0.14247  1.0000
  S   S352      1.0  0.52190  0.52181  0.99905  1.0000
  N   N87       1.0  0.59582  0.54981  0.43803  1.0000
  H   H1003     1.0  0.62936  0.63145  0.11699  1.0000
  H   H1004     1.0  0.64176  0.62451  0.16033  1.0000
  H   H1005     1.0  0.64074  0.55910  0.29011  1.0000
  C   C1009     1.0  0.58524  0.52388  0.23591  1.0000
  C   C1010     1.0  0.59031  0.54297  0.23563  1.0000
  C   C1011     1.0  0.57606  0.55212  0.23776  1.0000
  C   C1012     1.0  0.55674  0.54193  0.24005  1.0000
  C   C1013     1.0  0.55169  0.52285  0.24066  1.0000
  C   C1014     1.0  0.65951  0.60742  0.09503  1.0000
  H   H1006     1.0  0.60524  0.55056  0.23392  1.0000
  H   H1007     1.0  0.54559  0.54884  0.24176  1.0000
  C   C1015     1.0  0.60968  0.53914  0.43476  1.0000
  C   C1016     1.0  0.62473  0.56995  0.15429  1.0000
  C   C1017     1.0  0.64540  0.73342  0.25988  1.0000
  N   N88       1.0  0.60996  0.57849  0.11525  1.0000
  H   H1008     1.0  0.65984  0.73736  0.05650  1.0000
  H   H1009     1.0  0.58524  0.56386  0.01089  1.0000
  S   S353      1.0  0.65341  0.57819  0.46752  1.0000
  H   H1010     1.0  0.56793  0.52378  0.29869  1.0000
  H   H1011     1.0  0.58808  0.58747  0.17222  1.0000
  C   C1018     1.0  0.56321  0.55123  0.44389  1.0000
  H   H1012     1.0  0.61268  0.57478  0.19250  1.0000
  C   C1019     1.0  0.55736  0.54504  0.00705  1.0000
  C   C1020     1.0  0.65663  0.68357  0.22426  1.0000
  C   C1021     1.0  0.57664  0.54125  0.44082  1.0000
  C   C1022     1.0  0.66223  0.71402  0.27979  1.0000
  C   C1023     1.0  0.59727  0.58417  0.13134  1.0000
  Fe  Fe181     1.0  0.63187  0.57149  0.00119  1.0000
  C   C1024     1.0  0.54708  0.52710  0.00270  1.0000
  H   H1013     1.0  0.63869  0.55821  0.32620  1.0000
  H   H1014     1.0  0.60175  0.52324  0.30142  1.0000
  C   C1025     1.0  0.65924  0.60862  0.14380  1.0000
  S   S354      1.0  0.61305  0.54255  0.00396  1.0000
  H   H1015     1.0  0.62359  0.54602  0.44345  1.0000
  C   C1026     1.0  0.61185  0.57569  0.17082  1.0000
  C   C1027     1.0  0.59818  0.53599  0.30339  1.0000
  H   H1016     1.0  0.64614  0.68609  0.28748  1.0000
  S   S355      1.0  0.66390  0.62703  0.24273  1.0000
  H   H1017     1.0  0.62265  0.58107  0.07556  1.0000
  C   C1028     1.0  0.56953  0.57008  0.44382  1.0000
  H   H1018     1.0  0.54807  0.54433  0.44718  1.0000
  C   C1029     1.0  0.65226  0.59733  0.39275  1.0000
  H   H1019     1.0  0.59637  0.51695  0.23424  1.0000
  H   H1020     1.0  0.61629  0.69062  0.26920  1.0000
  C   C1030     1.0  0.62867  0.71913  0.25985  1.0000
  C   C1031     1.0  0.57732  0.51895  0.00105  1.0000
  H   H1021     1.0  0.63410  0.53757  0.30848  1.0000
  H   H1022     1.0  0.61725  0.57514  0.43445  1.0000
  H   H1023     1.0  0.54970  0.55524  0.00926  1.0000
  H   H1024     1.0  0.53616  0.51333  0.17897  1.0000
  H   H1025     1.0  0.65720  0.59130  0.41005  1.0000
  N   N89       1.0  0.66196  0.73066  0.26935  1.0000
  H   H1026     1.0  0.66159  0.67107  0.13740  1.0000
  H   H1027     1.0  0.64514  0.74668  0.25191  1.0000
  H   H1028     1.0  0.66524  0.72661  0.19719  1.0000
  H   H1029     1.0  0.66505  0.60322  0.07678  1.0000
  Fe  Fe182     1.0  0.61121  0.59484  0.74483  1.0000
  S   S356      1.0  0.63798  0.58571  0.74673  1.0000
  S   S357      1.0  0.58188  0.57440  0.74140  1.0000
  Fe  Fe183     1.0  0.63488  0.63560  0.74128  1.0000
  C   C1032     1.0  0.65385  0.68374  0.72530  1.0000
  S   S358      1.0  0.63489  0.66540  0.73912  1.0000
  Fe  Fe184     1.0  0.64959  0.60712  0.71412  1.0000
  H   H1030     1.0  0.55687  0.58164  0.94536  1.0000
  Fe  Fe185     1.0  0.64779  0.60801  0.77546  1.0000
  C   C1033     1.0  0.65804  0.60441  0.59710  1.0000
  S   S359      1.0  0.62235  0.61531  0.71062  1.0000
  S   S360      1.0  0.62029  0.61618  0.77561  1.0000
  C   C1034     1.0  0.56273  0.51290  0.81297  1.0000
  C   C1035     1.0  0.54692  0.52419  0.50323  1.0000
  H   H1031     1.0  0.58558  0.56019  0.51263  1.0000
  Fe  Fe186     1.0  0.64165  0.60350  0.52867  1.0000
  S   S361      1.0  0.63466  0.61817  0.56445  1.0000
  Fe  Fe187     1.0  0.64082  0.60603  0.96599  1.0000
  S   S362      1.0  0.63156  0.61807  0.92823  1.0000
  S   S363      1.0  0.65302  0.57917  0.53315  1.0000
  S   S364      1.0  0.65248  0.58185  0.96580  1.0000
  H   H1032     1.0  0.57809  0.51468  0.81305  1.0000
  C   C1036     1.0  0.65912  0.68960  0.85061  1.0000
  H   H1033     1.0  0.53074  0.53673  0.79825  1.0000
  C   C1037     1.0  0.65767  0.60676  0.64571  1.0000
  C   C1038     1.0  0.57420  0.54481  0.94140  1.0000
  H   H1034     1.0  0.55002  0.55209  0.51200  1.0000
  H   H1035     1.0  0.66277  0.71833  0.84860  1.0000
  C   C1039     1.0  0.65173  0.70138  0.72605  1.0000
  C   C1040     1.0  0.57690  0.51569  0.49942  1.0000
  H   H1036     1.0  0.61837  0.72765  0.64263  1.0000
  C   C1041     1.0  0.65751  0.70579  0.83837  1.0000
  C   C1042     1.0  0.64801  0.72284  0.80104  1.0000
  H   H1037     1.0  0.63966  0.66120  0.80180  1.0000
  C   C1043     1.0  0.55588  0.52780  0.80619  1.0000
  C   C1044     1.0  0.64309  0.69003  0.80090  1.0000
  N   N90       1.0  0.64934  0.70580  0.81397  1.0000
  H   H1038     1.0  0.54563  0.54797  0.94733  1.0000
  C   C1045     1.0  0.63264  0.73471  0.65002  1.0000
  H   H1039     1.0  0.60976  0.54032  0.91421  1.0000
  N   N91       1.0  0.59338  0.55334  0.93840  1.0000
  H   H1040     1.0  0.56582  0.54095  0.80126  1.0000
  C   C1046     1.0  0.58663  0.58229  0.93923  1.0000
  H   H1041     1.0  0.63864  0.70347  0.73463  1.0000
  C   C1047     1.0  0.59964  0.57184  0.93678  1.0000
  H   H1042     1.0  0.63167  0.73922  0.59690  1.0000
  H   H1043     1.0  0.63444  0.72771  0.66928  1.0000
  H   H1044     1.0  0.65762  0.74028  0.56298  1.0000
  H   H1045     1.0  0.62486  0.62999  0.87507  1.0000
  C   C1048     1.0  0.58748  0.53344  0.50410  1.0000
  C   C1049     1.0  0.63986  0.61342  0.89630  1.0000
  C   C1050     1.0  0.63427  0.62126  0.87315  1.0000
  C   C1051     1.0  0.64082  0.61787  0.84748  1.0000
  C   C1052     1.0  0.60724  0.54263  0.93569  1.0000
  H   H1046     1.0  0.63412  0.72096  0.79113  1.0000
  H   H1047     1.0  0.64888  0.73352  0.81586  1.0000
  H   H1048     1.0  0.63657  0.62409  0.82979  1.0000
  H   H1049     1.0  0.53855  0.51306  0.73752  1.0000
  S   S365      1.0  0.66281  0.62840  0.74288  1.0000
  C   C1053     1.0  0.55747  0.54187  0.50847  1.0000
  C   C1054     1.0  0.64483  0.61470  0.59513  1.0000
  C   C1055     1.0  0.63885  0.62177  0.61834  1.0000
  C   C1056     1.0  0.64527  0.61784  0.64352  1.0000
  C   C1057     1.0  0.57766  0.54651  0.50878  1.0000
  S   S366      1.0  0.61916  0.59108  0.49964  1.0000
  H   H1050     1.0  0.62888  0.62999  0.61692  1.0000
  H   H1051     1.0  0.64064  0.62349  0.66111  1.0000
  H   H1052     1.0  0.61480  0.57864  0.93386  1.0000
  C   C1058     1.0  0.58590  0.52225  0.75034  1.0000
  C   C1059     1.0  0.59075  0.54136  0.74867  1.0000
  C   C1060     1.0  0.57678  0.55033  0.74291  1.0000
  C   C1061     1.0  0.55798  0.53991  0.73872  1.0000
  C   C1062     1.0  0.55311  0.52081  0.74056  1.0000
  H   H1053     1.0  0.63682  0.69003  0.78144  1.0000
  H   H1054     1.0  0.60525  0.54911  0.75215  1.0000
  H   H1055     1.0  0.54703  0.54665  0.73425  1.0000
  C   C1063     1.0  0.53618  0.52541  0.80436  1.0000
  C   C1064     1.0  0.52359  0.50828  0.80962  1.0000
  H   H1056     1.0  0.65602  0.59574  0.91124  1.0000
  H   H1057     1.0  0.56919  0.53015  0.94287  1.0000
  C   C1065     1.0  0.65189  0.60204  0.89362  1.0000
  Fe  Fe188     1.0  0.63186  0.56761  0.50184  1.0000
  S   S367      1.0  0.52159  0.51911  0.50160  1.0000
  H   H1058     1.0  0.59176  0.59697  0.93846  1.0000
  C   C1066     1.0  0.56077  0.55484  0.94381  1.0000
  N   N92       1.0  0.61287  0.57049  0.66230  1.0000
  C   C1067     1.0  0.62104  0.56770  0.63829  1.0000
  C   C1068     1.0  0.59951  0.58015  0.66311  1.0000
  C   C1069     1.0  0.61593  0.57470  0.61421  1.0000
  C   C1070     1.0  0.59430  0.58759  0.63943  1.0000
  C   C1071     1.0  0.60259  0.58483  0.61485  1.0000
  C   C1072     1.0  0.61830  0.56270  0.68710  1.0000
  H   H1059     1.0  0.63188  0.56033  0.63773  1.0000
  H   H1060     1.0  0.59296  0.58231  0.68216  1.0000
  H   H1061     1.0  0.62277  0.57287  0.59521  1.0000
  H   H1062     1.0  0.58408  0.59562  0.64019  1.0000
  H   H1063     1.0  0.59913  0.59093  0.59634  1.0000
  H   H1064     1.0  0.61223  0.56755  0.70519  1.0000
  H   H1065     1.0  0.61290  0.54772  0.68763  1.0000
  H   H1066     1.0  0.63417  0.56668  0.68849  1.0000
  S   S368      1.0  0.61286  0.53872  0.50275  1.0000
  C   C1073     1.0  0.56708  0.57370  0.94294  1.0000
  H   H1067     1.0  0.63283  0.74891  0.65406  1.0000
  N   N93       1.0  0.64795  0.73468  0.63011  1.0000
  H   H1068     1.0  0.59682  0.51550  0.75497  1.0000
  C   C1074     1.0  0.65306  0.60667  0.84486  1.0000
  H   H1069     1.0  0.66540  0.68964  0.87011  1.0000
  H   H1070     1.0  0.50803  0.51233  0.56180  1.0000
  H   H1071     1.0  0.65376  0.66075  0.84674  1.0000
  C   C1075     1.0  0.64513  0.73719  0.60339  1.0000
  C   C1076     1.0  0.65260  0.67342  0.83751  1.0000
  C   C1077     1.0  0.65853  0.59874  0.86801  1.0000
  H   H1072     1.0  0.62110  0.54962  0.94439  1.0000
  C   C1078     1.0  0.55676  0.51111  0.49879  1.0000
  C   C1079     1.0  0.64463  0.67363  0.81241  1.0000
  H   H1073     1.0  0.66450  0.72980  0.71714  1.0000
  C   C1080     1.0  0.56703  0.51183  0.74656  1.0000
  S   S369      1.0  0.66247  0.60281  0.81323  1.0000
  H   H1074     1.0  0.65989  0.72776  0.78566  1.0000
  H   H1075     1.0  0.60211  0.52941  0.94713  1.0000
  S   S370      1.0  0.66282  0.61762  0.49587  1.0000
  H   H1076     1.0  0.50072  0.51077  0.61122  1.0000
  H   H1077     1.0  0.66322  0.59935  0.57929  1.0000
  C   C1081     1.0  0.65980  0.73789  0.58412  1.0000
  C   C1082     1.0  0.66443  0.60044  0.62235  1.0000
  S   S371      1.0  0.66508  0.60079  0.67727  1.0000
  C   C1083     1.0  0.66531  0.73318  0.63838  1.0000
  S   S372      1.0  0.36943  0.94357  0.15620  1.0000
  C   C1084     1.0  0.46202  0.00592  0.29550  1.0000
  H   H1078     1.0  0.53285  0.99403  0.06807  1.0000
  H   H1079     1.0  0.42558  0.98882  0.42123  1.0000
  C   C1085     1.0  0.40178  0.97693  0.39668  1.0000
  H   H1080     1.0  0.45274  0.95492  0.26236  1.0000
  C   C1086     1.0  0.34524  0.98105  0.00497  1.0000
  C   C1087     1.0  0.63958  0.98935  0.38375  1.0000
  H   H1081     1.0  0.40770  0.97623  0.46408  1.0000
  S   S373      1.0  0.48454  0.98917  0.26496  1.0000
  C   C1088     1.0  0.44841  0.95269  0.24124  1.0000
  C   C1089     1.0  0.37385  0.96302  0.37058  1.0000
  H   H1082     1.0  0.54391  0.98164  0.04507  1.0000
  C   C1090     1.0  0.43229  0.97682  0.24054  1.0000
  H   H1083     1.0  0.34351  0.94365  0.27605  1.0000
  S   S374      1.0  0.47992  0.99679  0.00873  1.0000
  N   N94       1.0  0.38329  0.96630  0.39624  1.0000
  S   S375      1.0  0.47042  0.99344  0.18812  1.0000
  H   H1084     1.0  0.38559  0.94458  0.21693  1.0000
  C   C1091     1.0  0.37327  0.95944  0.41972  1.0000
  H   H1085     1.0  0.65778  0.00455  0.44302  1.0000
  H   H1086     1.0  0.40971  0.98269  0.37816  1.0000
  H   H1087     1.0  0.63546  0.78647  0.07897  1.0000
  S   S376      1.0  0.48348  0.00347  0.43786  1.0000
  C   C1092     1.0  0.65372  0.81351  0.07162  1.0000
  H   H1088     1.0  0.65950  0.78253  0.99217  1.0000
  C   C1093     1.0  0.65574  0.00440  0.42157  1.0000
  C   C1094     1.0  0.48792  0.00022  0.04187  1.0000
  C   C1095     1.0  0.50016  0.00377  0.09533  1.0000
  H   H1089     1.0  0.36661  0.97374  0.36586  1.0000
  H   H1090     1.0  0.34527  0.98162  0.04821  1.0000
  C   C1096     1.0  0.38184  0.96289  0.44446  1.0000
  H   H1091     1.0  0.46063  0.96039  0.22780  1.0000
  C   C1097     1.0  0.41487  0.94754  0.22823  1.0000
  C   C1098     1.0  0.39856  0.95361  0.22421  1.0000
  C   C1099     1.0  0.41628  0.98336  0.23659  1.0000
  C   C1100     1.0  0.39365  0.99666  0.17139  1.0000
  H   H1092     1.0  0.35852  0.95121  0.41951  1.0000
  C   C1101     1.0  0.64409  0.79620  0.06412  1.0000
  H   H1093     1.0  0.44679  0.99960  0.04480  1.0000
  N   N95       1.0  0.65879  0.80298  0.01978  1.0000
  H   H1094     1.0  0.35550  0.97307  0.00353  1.0000
  H   H1095     1.0  0.65140  0.77392  0.31702  1.0000
  H   H1096     1.0  0.38684  0.97656  0.22498  1.0000
  C   C1102     1.0  0.41333  0.99776  0.17099  1.0000
  H   H1097     1.0  0.44592  0.93808  0.23761  1.0000
  Fe  Fe189     1.0  0.48541  0.00487  0.22528  1.0000
  H   H1098     1.0  0.49344  0.98424  0.32015  1.0000
  C   C1103     1.0  0.41084  0.98053  0.42106  1.0000
  H   H1099     1.0  0.36287  0.94969  0.37124  1.0000
  H   H1100     1.0  0.44551  0.98600  0.24660  1.0000
  H   H1101     1.0  0.62911  0.97813  0.37553  1.0000
  C   C1104     1.0  0.64242  0.98967  0.41132  1.0000
  C   C1105     1.0  0.46061  0.00484  0.34470  1.0000
  C   C1106     1.0  0.65018  0.00362  0.36680  1.0000
  Fe  Fe190     1.0  0.33723  0.94003  0.15509  1.0000
  C   C1107     1.0  0.48214  0.98568  0.06084  1.0000
  H   H1102     1.0  0.52449  0.99012  0.03452  1.0000
  N   N96       1.0  0.43140  0.95909  0.23655  1.0000
  H   H1103     1.0  0.48432  0.97580  0.10134  1.0000
  H   H1104     1.0  0.47321  0.97280  0.05485  1.0000
  C   C1108     1.0  0.38599  0.96485  0.16068  1.0000
  C   C1109     1.0  0.40570  0.96611  0.15961  1.0000
  C   C1110     1.0  0.41929  0.98244  0.16480  1.0000
  C   C1111     1.0  0.40079  0.97346  0.44507  1.0000
  S   S377      1.0  0.51138  0.00435  0.12648  1.0000
  C   C1112     1.0  0.38002  0.98026  0.16641  1.0000
  H   H1105     1.0  0.41046  0.95430  0.15510  1.0000
  H   H1106     1.0  0.43433  0.98305  0.16404  1.0000
  C   C1113     1.0  0.39928  0.97161  0.22861  1.0000
  H   H1107     1.0  0.36491  0.97951  0.16741  1.0000
  C   C1114     1.0  0.47520  0.99604  0.34454  1.0000
  C   C1115     1.0  0.48824  0.98741  0.08732  1.0000
  H   H1108     1.0  0.41422  0.93357  0.22443  1.0000
  H   H1109     1.0  0.38430  0.96285  0.35386  1.0000
  H   H1110     1.0  0.37372  0.95740  0.46296  1.0000
  C   C1116     1.0  0.47610  0.99649  0.29532  1.0000
  C   C1117     1.0  0.48264  0.99161  0.31999  1.0000
  H   H1111     1.0  0.63436  0.97864  0.42478  1.0000
  S   S378      1.0  0.66042  0.78420  0.26089  1.0000
  H   H1112     1.0  0.41719  0.99755  0.23911  1.0000
  C   C1118     1.0  0.33944  0.98577  0.03000  1.0000
  S   S379      1.0  0.59692  0.99891  0.99935  1.0000
  C   C1119     1.0  0.66163  0.79742  0.99252  1.0000
  C   C1120     1.0  0.53746  0.99317  0.04679  1.0000
  C   C1121     1.0  0.64681  0.79110  0.03795  1.0000
  H   H1113     1.0  0.63994  0.77735  0.03263  1.0000
  H   H1114     1.0  0.48023  0.99199  0.36336  1.0000
  H   H1115     1.0  0.44226  0.98834  0.09231  1.0000
  H   H1116     1.0  0.57431  0.00394  0.05820  1.0000
  H   H1117     1.0  0.65244  0.81724  0.09228  1.0000
  C   C1122     1.0  0.66515  0.78395  0.31559  1.0000
  C   C1123     1.0  0.44599  0.00278  0.08740  1.0000
  H   H1118     1.0  0.64781  0.00374  0.34538  1.0000
  H   H1119     1.0  0.55692  0.99204  0.98756  1.0000
  C   C1124     1.0  0.66582  0.75828  0.08527  1.0000
  C   C1125     1.0  0.66556  0.82566  0.05278  1.0000
  S   S380      1.0  0.36984  0.93986  0.65831  1.0000
  H   H1120     1.0  0.38769  0.00272  0.68801  1.0000
  S   S381      1.0  0.65941  0.98633  0.49758  1.0000
  C   C1126     1.0  0.37956  0.97525  0.67504  1.0000
  C   C1127     1.0  0.41268  0.99361  0.67845  1.0000
  C   C1128     1.0  0.42389  0.98830  0.77791  1.0000
  H   H1121     1.0  0.47099  0.95607  0.76360  1.0000
  H   H1122     1.0  0.54772  0.00583  0.62356  1.0000
  C   C1129     1.0  0.44661  0.97099  0.78602  1.0000
  S   S382      1.0  0.49719  0.99384  0.76080  1.0000
  H   H1123     1.0  0.35908  0.94989  0.60322  1.0000
  H   H1124     1.0  0.65153  0.80146  0.97886  1.0000
  C   C1130     1.0  0.42473  0.98480  0.75069  1.0000
  H   H1125     1.0  0.45537  0.96594  0.79997  1.0000
  C   C1131     1.0  0.42271  0.97021  0.56462  1.0000
  H   H1126     1.0  0.49642  0.99658  0.85939  1.0000
  C   C1132     1.0  0.47229  0.00292  0.54267  1.0000
  S   S383      1.0  0.47279  0.99262  0.68761  1.0000
  H   H1127     1.0  0.34068  0.98108  0.96265  1.0000
  C   C1133     1.0  0.64481  0.77966  0.54414  1.0000
  H   H1128     1.0  0.43444  0.98406  0.81697  1.0000
  C   C1134     1.0  0.38599  0.96069  0.66632  1.0000
  H   H1129     1.0  0.43429  0.98048  0.66697  1.0000
  H   H1130     1.0  0.63245  0.77886  0.53208  1.0000
  H   H1131     1.0  0.65779  0.98380  0.55725  1.0000
  C   C1135     1.0  0.65850  0.78123  0.58820  1.0000
  C   C1136     1.0  0.43659  0.97436  0.74167  1.0000
  H   H1132     1.0  0.36436  0.97388  0.67748  1.0000
  C   C1137     1.0  0.39378  0.98006  0.56763  1.0000
  C   C1138     1.0  0.41233  0.98224  0.55662  1.0000
  N   N97       1.0  0.44754  0.96782  0.75923  1.0000
  H   H1133     1.0  0.38973  0.94354  0.60882  1.0000
  C   C1139     1.0  0.39593  0.95440  0.59403  1.0000
  C   C1140     1.0  0.49007  0.00118  0.79190  1.0000
  C   C1141     1.0  0.47510  0.00604  0.59120  1.0000
  H   H1134     1.0  0.41098  0.95157  0.65685  1.0000
  C   C1142     1.0  0.45964  0.95668  0.74934  1.0000
  H   H1135     1.0  0.46729  0.96266  0.73014  1.0000
  H   H1136     1.0  0.38588  0.98960  0.56158  1.0000
  C   C1143     1.0  0.40583  0.96272  0.66361  1.0000
  H   H1137     1.0  0.51503  0.99769  0.56319  1.0000
  C   C1144     1.0  0.64281  0.78004  0.57208  1.0000
  C   C1145     1.0  0.49109  0.00094  0.84101  1.0000
  H   H1138     1.0  0.43702  0.97160  0.72050  1.0000
  H   H1139     1.0  0.66412  0.98056  0.96897  1.0000
  C   C1146     1.0  0.49728  0.99607  0.81592  1.0000
  H   H1140     1.0  0.42262  0.94702  0.59028  1.0000
  S   S384      1.0  0.65426  0.78179  0.62332  1.0000
  C   C1147     1.0  0.41910  0.97910  0.66952  1.0000
  H   H1141     1.0  0.50752  0.98809  0.81519  1.0000
  C   C1148     1.0  0.66260  0.78066  0.53155  1.0000
  H   H1142     1.0  0.49672  0.99789  0.52192  1.0000
  C   C1149     1.0  0.43479  0.98126  0.79577  1.0000
  H   H1143     1.0  0.43713  0.97180  0.55628  1.0000
  H   H1144     1.0  0.62891  0.77950  0.58124  1.0000
  C   C1150     1.0  0.49072  0.00042  0.54108  1.0000
  C   C1151     1.0  0.39284  0.99161  0.68108  1.0000
  C   C1152     1.0  0.49328  0.00297  0.58975  1.0000
  C   C1153     1.0  0.41454  0.95627  0.58359  1.0000
  N   N98       1.0  0.38572  0.96610  0.58580  1.0000
  H   H1145     1.0  0.45074  0.94274  0.74623  1.0000
  H   H1146     1.0  0.66571  0.80087  0.81342  1.0000
  C   C1154     1.0  0.46462  0.00586  0.56782  1.0000
  H   H1147     1.0  0.35724  0.96913  0.58334  1.0000
  H   H1148     1.0  0.66043  0.82309  0.53928  1.0000
  Fe  Fe191     1.0  0.49105  0.00623  0.72097  1.0000
  H   H1149     1.0  0.36752  0.97209  0.61614  1.0000
  C   C1155     1.0  0.36647  0.96427  0.59763  1.0000
  S   S385      1.0  0.45762  0.00018  0.51440  1.0000
  C   C1156     1.0  0.50103  0.00019  0.56456  1.0000
  Fe  Fe192     1.0  0.33772  0.93644  0.65659  1.0000
  H   H1150     1.0  0.41877  0.99327  0.54212  1.0000
  H   H1151     1.0  0.65307  0.99632  0.58501  1.0000
  S   S386      1.0  0.66357  0.78110  0.49593  1.0000
  H   H1152     1.0  0.33967  0.93009  0.52019  1.0000
  S   S387      1.0  0.50670  0.00266  0.61889  1.0000
  C   C1157     1.0  0.33678  0.98563  0.98186  1.0000
  H   H1153     1.0  0.33954  0.94388  0.77675  1.0000
  H   H1154     1.0  0.34713  0.00469  0.79271  1.0000
  H   H1155     1.0  0.53854  0.00502  0.51277  1.0000
  H   H1156     1.0  0.41630  0.99018  0.73659  1.0000
  C   C1158     1.0  0.66461  0.99205  0.57405  1.0000
  C   C1159     1.0  0.56505  0.00327  0.97467  1.0000
  H   H1157     1.0  0.41485  0.99649  0.78512  1.0000
  H   H1158     1.0  0.66575  0.95803  0.93501  1.0000
  H   H1159     1.0  0.78701  0.08064  0.38461  1.0000
  C   C1160     1.0  0.88357  0.19433  0.13674  1.0000
  C   C1161     1.0  0.85366  0.17190  0.14002  1.0000
  C   C1162     1.0  0.84389  0.18512  0.13586  1.0000
  S   S388      1.0  0.90646  0.24902  0.07109  1.0000
  H   H1160     1.0  0.71685  0.01283  0.13723  1.0000
  S   S389      1.0  0.70142  0.08842  0.25228  1.0000
  C   C1163     1.0  0.71162  0.01530  0.11768  1.0000
  Fe  Fe193     1.0  0.81821  0.12994  0.35878  1.0000
  S   S390      1.0  0.80704  0.15429  0.36212  1.0000
  S   S391      1.0  0.82319  0.11363  0.39530  1.0000
  Fe  Fe194     1.0  0.82219  0.13475  0.29731  1.0000
  S   S392      1.0  0.81160  0.15964  0.29686  1.0000
  S   S393      1.0  0.83071  0.12285  0.25964  1.0000
  Fe  Fe195     1.0  0.83074  0.16739  0.33179  1.0000
  S   S394      1.0  0.84974  0.19564  0.33769  1.0000
  Fe  Fe196     1.0  0.78922  0.14354  0.32703  1.0000
  S   S395      1.0  0.75744  0.14195  0.32716  1.0000
  S   S396      1.0  0.84282  0.14353  0.33016  1.0000
  S   S397      1.0  0.79883  0.11821  0.32573  1.0000
  C   C1164     1.0  0.85455  0.16641  0.40176  1.0000
  C   C1165     1.0  0.89300  0.22723  0.27483  1.0000
  C   C1166     1.0  0.95545  0.24787  0.44872  1.0000
  H   H1161     1.0  0.86428  0.14226  0.40335  1.0000
  Fe  Fe197     1.0  0.95965  0.24408  0.33482  1.0000
  S   S398      1.0  0.94096  0.21498  0.33737  1.0000
  H   H1162     1.0  0.70225  0.03516  0.15482  1.0000
  H   H1163     1.0  0.67550  0.03610  0.43675  1.0000
  C   C1167     1.0  0.80011  0.02937  0.03962  1.0000
  Fe  Fe198     1.0  0.81464  0.13477  0.11037  1.0000
  S   S399      1.0  0.84053  0.12421  0.11238  1.0000
  S   S400      1.0  0.80288  0.14507  0.14732  1.0000
  Fe  Fe199     1.0  0.81387  0.13264  0.04927  1.0000
  S   S401      1.0  0.83979  0.12196  0.04737  1.0000
  S   S402      1.0  0.79999  0.14066  0.01241  1.0000
  Fe  Fe200     1.0  0.82524  0.10392  0.08322  1.0000
  S   S403      1.0  0.82467  0.07394  0.08730  1.0000
  Fe  Fe201     1.0  0.85201  0.14341  0.07676  1.0000
  S   S404      1.0  0.88251  0.16226  0.07521  1.0000
  S   S405      1.0  0.79856  0.11355  0.08325  1.0000
  S   S406      1.0  0.82693  0.15500  0.07654  1.0000
  C   C1168     1.0  0.77710  0.02458  0.12212  1.0000
  C   C1169     1.0  0.77308  0.04138  0.11785  1.0000
  C   C1170     1.0  0.78748  0.05678  0.10771  1.0000
  C   C1171     1.0  0.80609  0.05553  0.10174  1.0000
  C   C1172     1.0  0.81008  0.03877  0.10623  1.0000
  C   C1173     1.0  0.79573  0.02344  0.11625  1.0000
  H   H1164     1.0  0.75876  0.04253  0.12229  1.0000
  H   H1165     1.0  0.78414  0.06957  0.10428  1.0000
  H   H1166     1.0  0.82442  0.03766  0.10179  1.0000
  C   C1174     1.0  0.87736  0.21187  0.27439  1.0000
  C   C1175     1.0  0.90028  0.22490  0.07130  1.0000
  C   C1176     1.0  0.88120  0.21525  0.06702  1.0000
  C   C1177     1.0  0.87554  0.19613  0.06790  1.0000
  C   C1178     1.0  0.88896  0.18638  0.07279  1.0000
  C   C1179     1.0  0.90810  0.19604  0.07662  1.0000
  C   C1180     1.0  0.91371  0.21514  0.07611  1.0000
  H   H1167     1.0  0.87066  0.22261  0.06330  1.0000
  H   H1168     1.0  0.86077  0.18896  0.06488  1.0000
  H   H1169     1.0  0.91864  0.18868  0.08040  1.0000
  H   H1170     1.0  0.92840  0.22227  0.07966  1.0000
  H   H1171     1.0  0.88255  0.22192  0.12914  1.0000
  N   N99       1.0  0.91135  0.22559  0.27434  1.0000
  S   S407      1.0  0.67962  0.04418  0.00236  1.0000
  H   H1172     1.0  0.84545  0.15788  0.14307  1.0000
  H   H1173     1.0  0.78659  0.01096  0.17609  1.0000
  C   C1181     1.0  0.82258  0.11820  0.47633  1.0000
  C   C1182     1.0  0.96452  0.24046  0.46867  1.0000
  H   H1174     1.0  0.93828  0.23922  0.28923  1.0000
  C   C1183     1.0  0.87498  0.20046  0.33998  1.0000
  C   C1184     1.0  0.88460  0.18695  0.33854  1.0000
  C   C1185     1.0  0.90479  0.19154  0.33863  1.0000
  C   C1186     1.0  0.91556  0.20966  0.33996  1.0000
  C   C1187     1.0  0.90588  0.22307  0.34212  1.0000
  C   C1188     1.0  0.88572  0.21849  0.34220  1.0000
  H   H1175     1.0  0.87662  0.17303  0.33677  1.0000
  H   H1176     1.0  0.91212  0.18104  0.33705  1.0000
  H   H1177     1.0  0.91387  0.23701  0.34357  1.0000
  H   H1178     1.0  0.87843  0.22903  0.34352  1.0000
  C   C1189     1.0  0.81952  0.12091  0.42779  1.0000
  C   C1190     1.0  0.82539  0.11258  0.45027  1.0000
  H   H1179     1.0  0.82021  0.01798  0.18335  1.0000
  N   N100      1.0  0.75915  0.10956  0.38732  1.0000
  C   C1191     1.0  0.80760  0.14018  0.45754  1.0000
  C   C1192     1.0  0.81066  0.13476  0.43158  1.0000
  H   H1180     1.0  0.83218  0.10179  0.44755  1.0000
  H   H1181     1.0  0.89754  0.16628  0.13331  1.0000
  H   H1182     1.0  0.80064  0.15086  0.46027  1.0000
  H   H1183     1.0  0.80596  0.14122  0.41462  1.0000
  C   C1193     1.0  0.82355  0.12958  0.22832  1.0000
  C   C1194     1.0  0.81713  0.14513  0.22524  1.0000
  C   C1195     1.0  0.81097  0.14988  0.20024  1.0000
  C   C1196     1.0  0.81136  0.13919  0.17812  1.0000
  C   C1197     1.0  0.81819  0.12388  0.18100  1.0000
  C   C1198     1.0  0.82429  0.11912  0.20603  1.0000
  H   H1184     1.0  0.81710  0.15359  0.24201  1.0000
  H   H1185     1.0  0.80589  0.16185  0.19804  1.0000
  H   H1186     1.0  0.81833  0.11541  0.16416  1.0000
  H   H1187     1.0  0.82933  0.10712  0.20822  1.0000
  C   C1199     1.0  0.71598  0.10122  0.27647  1.0000
  C   C1200     1.0  0.73561  0.10202  0.27599  1.0000
  C   C1201     1.0  0.74834  0.11403  0.29205  1.0000
  C   C1202     1.0  0.74159  0.12555  0.30851  1.0000
  C   C1203     1.0  0.72186  0.12431  0.30973  1.0000
  C   C1204     1.0  0.70907  0.11214  0.29386  1.0000
  H   H1188     1.0  0.74110  0.09366  0.26257  1.0000
  H   H1189     1.0  0.76347  0.11479  0.29095  1.0000
  H   H1190     1.0  0.71651  0.13314  0.32250  1.0000
  H   H1191     1.0  0.69403  0.11177  0.29424  1.0000
  N   N101      1.0  0.87326  0.17656  0.13985  1.0000
  H   H1192     1.0  0.93174  0.22075  0.01788  1.0000
  H   H1193     1.0  0.68734  0.01889  0.47611  1.0000
  H   H1194     1.0  0.82834  0.18124  0.13539  1.0000
  H   H1195     1.0  0.68911  0.04630  0.13350  1.0000
  C   C1205     1.0  0.74723  0.10334  0.36696  1.0000
  H   H1196     1.0  0.71827  0.02338  0.45061  1.0000
  H   H1197     1.0  0.86532  0.14109  0.45296  1.0000
  H   H1198     1.0  0.84455  0.19010  0.40655  1.0000
  C   C1206     1.0  0.92323  0.25530  0.99331  1.0000
  H   H1199     1.0  0.92924  0.20765  0.27323  1.0000
  H   H1200     1.0  0.74002  0.08414  0.33574  1.0000
  H   H1201     1.0  0.79916  0.01074  0.11921  1.0000
  H   H1202     1.0  0.93478  0.24519  0.25472  1.0000
  H   H1203     1.0  0.86858  0.18276  0.27365  1.0000
  C   C1207     1.0  0.74924  0.08870  0.35232  1.0000
  C   C1208     1.0  0.92767  0.24170  0.27501  1.0000
  C   C1209     1.0  0.88325  0.16250  0.14410  1.0000
  H   H1204     1.0  0.89912  0.19804  0.13651  1.0000
  C   C1210     1.0  0.81148  0.01188  0.00542  1.0000
  H   H1205     1.0  0.88495  0.16021  0.16588  1.0000
  H   H1206     1.0  0.87519  0.14956  0.13566  1.0000
  N   N102      1.0  0.74557  0.12477  0.21600  1.0000
  C   C1211     1.0  0.73098  0.13121  0.22591  1.0000
  C   C1212     1.0  0.76382  0.13136  0.22450  1.0000
  C   C1213     1.0  0.73456  0.14487  0.24445  1.0000
  C   C1214     1.0  0.76790  0.14504  0.24300  1.0000
  C   C1215     1.0  0.75316  0.15182  0.25301  1.0000
  C   C1216     1.0  0.74128  0.10976  0.19777  1.0000
  H   H1207     1.0  0.71634  0.12528  0.22027  1.0000
  H   H1208     1.0  0.77527  0.12584  0.21733  1.0000
  H   H1209     1.0  0.72286  0.14953  0.25290  1.0000
  H   H1210     1.0  0.78226  0.14998  0.25016  1.0000
  H   H1211     1.0  0.75602  0.16192  0.26817  1.0000
  H   H1212     1.0  0.73012  0.11116  0.18368  1.0000
  H   H1213     1.0  0.75421  0.10941  0.18538  1.0000
  H   H1214     1.0  0.73588  0.09674  0.20965  1.0000
  H   H1215     1.0  0.69315  0.02347  0.04795  1.0000
  N   N103      1.0  0.80955  0.01552  0.03190  1.0000
  Fe  Fe202     1.0  0.66900  0.07595  0.25552  1.0000
  H   H1216     1.0  0.76570  0.12760  0.41976  1.0000
  C   C1217     1.0  0.69244  0.02860  0.09017  1.0000
  C   C1218     1.0  0.77553  0.08670  0.37971  1.0000
  C   C1219     1.0  0.84964  0.17824  0.44482  1.0000
  H   H1217     1.0  0.67807  0.02351  0.14632  1.0000
  C   C1220     1.0  0.69181  0.03300  0.13857  1.0000
  C   C1221     1.0  0.87427  0.20792  0.13267  1.0000
  C   C1222     1.0  0.75757  0.12571  0.40102  1.0000
  H   H1218     1.0  0.89035  0.24041  0.27639  1.0000
  H   H1219     1.0  0.78253  0.10620  0.41002  1.0000
  C   C1223     1.0  0.89938  0.19331  0.27217  1.0000
  H   H1220     1.0  0.85403  0.16703  0.38003  1.0000
  H   H1221     1.0  0.95951  0.24732  0.42767  1.0000
  H   H1222     1.0  0.68241  0.03670  0.08784  1.0000
  C   C1224     1.0  0.81681  0.00657  0.05139  1.0000
  C   C1225     1.0  0.86092  0.15199  0.44292  1.0000
  C   C1226     1.0  0.91469  0.20894  0.27288  1.0000
  N   N104      1.0  0.69908  0.02572  0.11487  1.0000
  H   H1223     1.0  0.86279  0.21309  0.27616  1.0000
  H   H1224     1.0  0.73634  0.11001  0.36155  1.0000
  H   H1225     1.0  0.69416  0.03079  0.41618  1.0000
  C   C1227     1.0  0.85430  0.20322  0.13198  1.0000
  C   C1228     1.0  0.77307  0.10135  0.39391  1.0000
  H   H1226     1.0  0.76556  0.06925  0.34721  1.0000
  C   C1229     1.0  0.84914  0.17935  0.41675  1.0000
  H   H1227     1.0  0.81100  0.04171  0.04559  1.0000
  C   C1230     1.0  0.69848  0.02115  0.06745  1.0000
  H   H1228     1.0  0.84692  0.21356  0.12819  1.0000
  C   C1231     1.0  0.71792  0.00760  0.09532  1.0000
  C   C1232     1.0  0.88061  0.19482  0.27306  1.0000
  H   H1229     1.0  0.84532  0.18829  0.45639  1.0000
  C   C1233     1.0  0.69221  0.00732  0.47097  1.0000
  N   N105      1.0  0.93455  0.24368  0.99149  1.0000
  C   C1234     1.0  0.67995  0.03367  0.41597  1.0000
  N   N106      1.0  0.85533  0.16459  0.45754  1.0000
  H   H1230     1.0  0.90206  0.18008  0.27197  1.0000
  H   H1231     1.0  0.79199  0.03328  0.02297  1.0000
  C   C1235     1.0  0.76355  0.08038  0.35871  1.0000
  H   H1232     1.0  0.76331  0.13790  0.38741  1.0000
  H   H1233     1.0  0.93668  0.24194  0.03414  1.0000
  H   H1234     1.0  0.78972  0.02426  0.05686  1.0000
  H   H1235     1.0  0.92330  0.25366  0.28198  1.0000
  H   H1236     1.0  0.74233  0.12470  0.40657  1.0000
  Fe  Fe203     1.0  0.66909  0.01397  0.00234  1.0000
  C   C1236     1.0  0.86049  0.15263  0.41485  1.0000
  C   C1237     1.0  0.81358  0.13198  0.47999  1.0000
  C   C1238     1.0  0.70974  0.00985  0.45655  1.0000
  C   C1239     1.0  0.81783  0.00836  0.20113  1.0000
  H   H1237     1.0  0.97563  0.23402  0.46325  1.0000
  H   H1238     1.0  0.68118  0.04646  0.40403  1.0000
  C   C1240     1.0  0.85630  0.16397  0.48691  1.0000
  H   H1239     1.0  0.67136  0.02930  0.36449  1.0000
  H   H1240     1.0  0.84797  0.15647  0.00502  1.0000
  H   H1241     1.0  0.95553  0.23651  0.01516  1.0000
  H   H1242     1.0  0.81517  0.00933  0.07236  1.0000
  H   H1243     1.0  0.82867  0.01430  0.21593  1.0000
  H   H1244     1.0  0.78903  0.01355  0.46147  1.0000
  C   C1241     1.0  0.93986  0.23526  0.01583  1.0000
  C   C1242     1.0  0.71126  0.01054  0.07007  1.0000
  H   H1245     1.0  0.81611  0.11155  0.99575  1.0000
  S   S408      1.0  0.97935  0.25469  0.29858  1.0000
  H   H1246     1.0  0.80544  0.01865  0.98989  1.0000
  C   C1243     1.0  0.78372  0.00658  0.19707  1.0000
  H   H1247     1.0  0.71216  0.08923  0.89618  1.0000
  H   H1248     1.0  0.86135  0.13643  0.97667  1.0000
  C   C1244     1.0  0.67983  0.01450  0.90743  1.0000
  N   N107      1.0  0.84816  0.16163  0.92754  1.0000
  H   H1249     1.0  0.94972  0.23033  0.96552  1.0000
  H   H1250     1.0  0.82717  0.11174  0.49357  1.0000
  S   S409      1.0  0.69647  0.09107  0.74905  1.0000
  H   H1251     1.0  0.85398  0.14984  0.49509  1.0000
  Fe  Fe204     1.0  0.81225  0.12877  0.85924  1.0000
  S   S410      1.0  0.80280  0.15415  0.86009  1.0000
  S   S411      1.0  0.81477  0.11277  0.89741  1.0000
  Fe  Fe205     1.0  0.81834  0.13221  0.79788  1.0000
  S   S412      1.0  0.80954  0.15810  0.79500  1.0000
  S   S413      1.0  0.82779  0.11934  0.76165  1.0000
  Fe  Fe206     1.0  0.82781  0.16567  0.83085  1.0000
  S   S414      1.0  0.84809  0.19328  0.83787  1.0000
  Fe  Fe207     1.0  0.78567  0.14348  0.82436  1.0000
  S   S415      1.0  0.75429  0.14340  0.82278  1.0000
  S   S416      1.0  0.83811  0.14071  0.83182  1.0000
  S   S417      1.0  0.79355  0.11721  0.82543  1.0000
  C   C1245     1.0  0.83013  0.03296  0.66674  1.0000
  H   H1252     1.0  0.66776  0.02025  0.90584  1.0000
  H   H1253     1.0  0.90378  0.25175  0.78634  1.0000
  C   C1246     1.0  0.85560  0.14880  0.93932  1.0000
  Fe  Fe208     1.0  0.95908  0.23997  0.82877  1.0000
  S   S418      1.0  0.93951  0.21137  0.82702  1.0000
  H   H1254     1.0  0.88841  0.13798  0.67649  1.0000
  H   H1255     1.0  0.86303  0.16961  0.88977  1.0000
  S   S419      1.0  0.91385  0.25068  0.56671  1.0000
  Fe  Fe209     1.0  0.82183  0.13363  0.61018  1.0000
  S   S420      1.0  0.84858  0.12465  0.61428  1.0000
  S   S421      1.0  0.80723  0.14269  0.64571  1.0000
  Fe  Fe210     1.0  0.82343  0.13172  0.54907  1.0000
  S   S422      1.0  0.85038  0.12259  0.54911  1.0000
  S   S423      1.0  0.80979  0.13972  0.51200  1.0000
  Fe  Fe211     1.0  0.83553  0.10398  0.58427  1.0000
  S   S424      1.0  0.83675  0.07454  0.58968  1.0000
  Fe  Fe212     1.0  0.86039  0.14419  0.57914  1.0000
  S   S425      1.0  0.89035  0.16395  0.58017  1.0000
  S   S426      1.0  0.80794  0.11200  0.58223  1.0000
  S   S427      1.0  0.83431  0.15427  0.57693  1.0000
  C   C1247     1.0  0.78740  0.02346  0.61281  1.0000
  C   C1248     1.0  0.78376  0.04055  0.61090  1.0000
  C   C1249     1.0  0.79861  0.05632  0.60371  1.0000
  C   C1250     1.0  0.81730  0.05516  0.59815  1.0000
  C   C1251     1.0  0.82086  0.03803  0.59982  1.0000
  C   C1252     1.0  0.80606  0.02231  0.60716  1.0000
  H   H1256     1.0  0.76939  0.04165  0.61517  1.0000
  H   H1257     1.0  0.79562  0.06938  0.60252  1.0000
  H   H1258     1.0  0.83524  0.03696  0.59555  1.0000
  H   H1259     1.0  0.86095  0.13968  0.92703  1.0000
  C   C1253     1.0  0.90761  0.22657  0.57084  1.0000
  C   C1254     1.0  0.88848  0.21657  0.56768  1.0000
  C   C1255     1.0  0.88293  0.19747  0.57047  1.0000
  C   C1256     1.0  0.89651  0.18806  0.57640  1.0000
  C   C1257     1.0  0.91563  0.19807  0.57952  1.0000
  C   C1258     1.0  0.92117  0.21717  0.57681  1.0000
  H   H1260     1.0  0.87785  0.22366  0.56304  1.0000
  H   H1261     1.0  0.86818  0.19006  0.56788  1.0000
  H   H1262     1.0  0.92628  0.19099  0.58409  1.0000
  H   H1263     1.0  0.93592  0.22458  0.57935  1.0000
  C   C1259     1.0  0.70727  0.02009  0.53350  1.0000
  C   C1260     1.0  0.85749  0.17660  0.63606  1.0000
  N   N108      1.0  0.67996  0.00767  0.56362  1.0000
  C   C1261     1.0  0.72310  0.08830  0.93556  1.0000
  H   H1264     1.0  0.87288  0.13983  0.72132  1.0000
  H   H1265     1.0  0.86457  0.19128  0.63725  1.0000
  C   C1262     1.0  0.94565  0.25066  0.50229  1.0000
  C   C1263     1.0  0.72498  0.09210  0.90779  1.0000
  C   C1264     1.0  0.87346  0.19790  0.83492  1.0000
  C   C1265     1.0  0.88256  0.18477  0.82744  1.0000
  C   C1266     1.0  0.90276  0.18902  0.82536  1.0000
  C   C1267     1.0  0.91410  0.20642  0.83068  1.0000
  C   C1268     1.0  0.90497  0.21950  0.83832  1.0000
  C   C1269     1.0  0.88479  0.21526  0.84037  1.0000
  H   H1266     1.0  0.87408  0.17136  0.82309  1.0000
  H   H1267     1.0  0.90964  0.17879  0.81946  1.0000
  H   H1268     1.0  0.91341  0.23284  0.84291  1.0000
  H   H1269     1.0  0.87791  0.22548  0.84631  1.0000
  C   C1270     1.0  0.81039  0.12051  0.92929  1.0000
  C   C1271     1.0  0.81531  0.11207  0.95239  1.0000
  C   C1272     1.0  0.74447  0.10314  0.86638  1.0000
  H   H1270     1.0  0.85193  0.01910  0.67343  1.0000
  C   C1273     1.0  0.79834  0.14041  0.95773  1.0000
  C   C1274     1.0  0.80183  0.13467  0.93207  1.0000
  H   H1271     1.0  0.82179  0.10100  0.95042  1.0000
  H   H1272     1.0  0.83971  0.04445  0.65560  1.0000
  H   H1273     1.0  0.79171  0.15138  0.95972  1.0000
  H   H1274     1.0  0.79769  0.14111  0.91456  1.0000
  C   C1275     1.0  0.82071  0.12490  0.72971  1.0000
  C   C1276     1.0  0.81100  0.13822  0.72626  1.0000
  C   C1277     1.0  0.80671  0.14340  0.70040  1.0000
  C   C1278     1.0  0.81205  0.13523  0.67783  1.0000
  C   C1279     1.0  0.82147  0.12168  0.68125  1.0000
  C   C1280     1.0  0.82579  0.11654  0.70714  1.0000
  H   H1275     1.0  0.80721  0.14482  0.74344  1.0000
  H   H1276     1.0  0.79953  0.15396  0.69783  1.0000
  H   H1277     1.0  0.82538  0.11510  0.66401  1.0000
  H   H1278     1.0  0.83328  0.10620  0.70967  1.0000
  C   C1281     1.0  0.71123  0.10288  0.77390  1.0000
  C   C1282     1.0  0.70497  0.11444  0.79088  1.0000
  C   C1283     1.0  0.71819  0.12637  0.80654  1.0000
  C   C1284     1.0  0.73770  0.12667  0.80558  1.0000
  C   C1285     1.0  0.74372  0.11439  0.78977  1.0000
  C   C1286     1.0  0.73058  0.10269  0.77383  1.0000
  H   H1279     1.0  0.69017  0.11490  0.79085  1.0000
  H   H1280     1.0  0.71341  0.13582  0.81875  1.0000
  H   H1281     1.0  0.75868  0.11446  0.78884  1.0000
  H   H1282     1.0  0.73557  0.09381  0.76075  1.0000
  S   S428      1.0  0.98006  0.25186  0.79436  1.0000
  C   C1287     1.0  0.84088  0.17123  0.97108  1.0000
  C   C1288     1.0  0.83694  0.01874  0.67666  1.0000
  H   H1283     1.0  0.70899  0.08266  0.94524  1.0000
  C   C1289     1.0  0.95964  0.24188  0.49565  1.0000
  H   H1284     1.0  0.86250  0.17206  0.61695  1.0000
  H   H1285     1.0  0.84171  0.17437  0.63504  1.0000
  C   C1290     1.0  0.94065  0.23945  0.96693  1.0000
  H   H1286     1.0  0.85098  0.15943  0.72610  1.0000
  N   N109      1.0  0.92330  0.24963  0.75441  1.0000
  H   H1287     1.0  0.84349  0.17590  0.68602  1.0000
  H   H1288     1.0  0.96692  0.23657  0.51138  1.0000
  N   N110      1.0  0.79841  0.01749  0.68410  1.0000
  C   C1291     1.0  0.84823  0.16339  0.89816  1.0000
  C   C1292     1.0  0.93859  0.24409  0.71332  1.0000
  H   H1289     1.0  0.73824  0.08909  0.97230  1.0000
  H   H1290     1.0  0.88146  0.15541  0.63727  1.0000
  S   S429      1.0  0.66981  0.06125  0.93187  1.0000
  H   H1291     1.0  0.77544  0.02080  0.70897  1.0000
  C   C1293     1.0  0.70845  0.01242  0.92923  1.0000
  H   H1292     1.0  0.87050  0.17223  0.49300  1.0000
  C   C1294     1.0  0.85590  0.14691  0.96733  1.0000
  H   H1293     1.0  0.99398  0.25497  0.95706  1.0000
  H   H1294     1.0  0.94202  0.25177  0.52332  1.0000
  N   N111      1.0  0.73915  0.12561  0.71456  1.0000
  C   C1295     1.0  0.75737  0.13173  0.72338  1.0000
  C   C1296     1.0  0.72493  0.13286  0.72362  1.0000
  C   C1297     1.0  0.76181  0.14572  0.74135  1.0000
  C   C1298     1.0  0.72887  0.14683  0.74165  1.0000
  C   C1299     1.0  0.74745  0.15327  0.75055  1.0000
  C   C1300     1.0  0.73450  0.11023  0.69702  1.0000
  H   H1295     1.0  0.76845  0.12550  0.71700  1.0000
  H   H1296     1.0  0.71027  0.12734  0.71777  1.0000
  H   H1297     1.0  0.77611  0.15025  0.74890  1.0000
  H   H1298     1.0  0.71743  0.15210  0.74950  1.0000
  H   H1299     1.0  0.75055  0.16356  0.76542  1.0000
  H   H1300     1.0  0.74695  0.11018  0.68344  1.0000
  H   H1301     1.0  0.73024  0.09738  0.70949  1.0000
  H   H1302     1.0  0.72236  0.11073  0.68419  1.0000
  H   H1303     1.0  0.94252  0.24756  0.69221  1.0000
  C   C1301     1.0  0.92961  0.23658  0.76767  1.0000
  H   H1304     1.0  0.71850  0.01621  0.94510  1.0000
  C   C1302     1.0  0.94045  0.22686  0.75406  1.0000
  C   C1303     1.0  0.77811  0.01678  0.68833  1.0000
  H   H1305     1.0  0.73163  0.10670  0.85873  1.0000
  H   H1306     1.0  0.83903  0.17198  0.89116  1.0000
  H   H1307     1.0  0.92641  0.23374  0.78897  1.0000
  C   C1304     1.0  0.81073  0.03218  0.67087  1.0000
  H   H1308     1.0  0.94549  0.21662  0.76492  1.0000
  C   C1305     1.0  0.73948  0.09184  0.95071  1.0000
  C   C1306     1.0  0.69679  0.03921  0.56454  1.0000
  H   H1309     1.0  0.83488  0.18291  0.93370  1.0000
  H   H1310     1.0  0.67256  0.02602  0.59046  1.0000
  H   H1311     1.0  0.74645  0.09119  0.85594  1.0000
  H   H1312     1.0  0.69811  0.05241  0.57270  1.0000
  H   H1313     1.0  0.72060  0.04870  0.53595  1.0000
  S   S430      1.0  0.98108  0.25056  0.85971  1.0000
  H   H1314     1.0  0.84481  0.16905  0.49652  1.0000
  H   H1315     1.0  0.95366  0.22347  0.71595  1.0000
  H   H1316     1.0  0.77037  0.10160  0.94950  1.0000
  C   C1307     1.0  0.68220  0.02422  0.57438  1.0000
  H   H1317     1.0  0.94105  0.24426  0.92386  1.0000
  H   H1318     1.0  0.77361  0.02587  0.67354  1.0000
  C   C1308     1.0  0.84097  0.17287  0.94301  1.0000
  C   C1309     1.0  0.84844  0.15818  0.98326  1.0000
  H   H1319     1.0  0.69142  0.03021  0.94101  1.0000
  C   C1310     1.0  0.75751  0.09890  0.93795  1.0000
  C   C1311     1.0  0.69315  0.02013  0.92712  1.0000
  H   H1320     1.0  0.80918  0.00935  0.60855  1.0000
  N   N112      1.0  0.74270  0.09940  0.89552  1.0000
  C   C1312     1.0  0.75887  0.10250  0.91013  1.0000
  H   H1321     1.0  0.71690  0.01827  0.51740  1.0000
  H   H1322     1.0  0.75693  0.11493  0.86091  1.0000
  C   C1313     1.0  0.94495  0.23066  0.72668  1.0000
  C   C1314     1.0  0.92787  0.25364  0.72765  1.0000
  C   C1315     1.0  0.81209  0.11801  0.97808  1.0000
  N   N113      1.0  0.86197  0.16656  0.65938  1.0000
  C   C1316     1.0  0.87467  0.15631  0.65671  1.0000
  C   C1317     1.0  0.85371  0.16793  0.68398  1.0000
  C   C1318     1.0  0.87878  0.14651  0.67888  1.0000
  C   C1319     1.0  0.85784  0.15864  0.70668  1.0000
  C   C1320     1.0  0.87021  0.14764  0.70399  1.0000
  H   H1323     1.0  0.84262  0.14988  0.88969  1.0000
  H   H1324     1.0  0.77295  0.10784  0.90029  1.0000
  H   H1325     1.0  0.67827  0.07185  0.87577  1.0000
  C   C1321     1.0  0.93576  0.24723  0.94332  1.0000
  C   C1322     1.0  0.70934  0.03712  0.54389  1.0000
  H   H1326     1.0  0.80555  0.04324  0.66287  1.0000
  C   C1323     1.0  0.80367  0.13227  0.98079  1.0000
  H   H1327     1.0  0.83449  0.17962  0.98339  1.0000
  H   H1328     1.0  0.91808  0.25841  0.01278  1.0000
  C   C1324     1.0  0.99796  0.28049  0.45190  1.0000
  S   S431      1.0  0.98999  0.26860  0.00919  1.0000
  H   H1329     1.0  0.95345  0.28688  0.16273  1.0000
  C   C1325     1.0  0.99622  0.32223  0.15060  1.0000
  C   C1326     1.0  0.96028  0.28334  0.18028  1.0000
  C   C1327     1.0  0.96259  0.28220  0.22910  1.0000
  S   S432      1.0  0.96337  0.29471  0.39729  1.0000
  H   H1330     1.0  0.99461  0.27847  0.40914  1.0000
  Fe  Fe213     1.0  0.96316  0.30781  0.07016  1.0000
  S   S433      1.0  0.96584  0.33825  0.06704  1.0000
  Fe  Fe214     1.0  0.97551  0.27711  0.04531  1.0000
  Fe  Fe215     1.0  0.97274  0.27925  0.10657  1.0000
  C   C1328     1.0  0.98728  0.37382  0.06090  1.0000
  S   S434      1.0  0.94976  0.28751  0.03991  1.0000
  S   S435      1.0  0.94669  0.28967  0.10464  1.0000
  C   C1329     1.0  0.97739  0.32868  0.18683  1.0000
  Fe  Fe216     1.0  0.96963  0.28049  0.36050  1.0000
  C   C1330     1.0  0.97571  0.29272  0.42667  1.0000
  H   H1331     1.0  0.99775  0.31257  0.21627  1.0000
  N   N114      1.0  0.99250  0.32272  0.17761  1.0000
  S   S436      1.0  0.98964  0.29831  0.07365  1.0000
  C   C1331     1.0  0.99175  0.28667  0.47580  1.0000
  C   C1332     1.0  0.98725  0.35564  0.05828  1.0000
  H   H1332     1.0  0.91132  0.26580  0.47544  1.0000
  H   H1333     1.0  0.97459  0.37693  0.06910  1.0000
  S   S437      1.0  0.94599  0.26691  0.33392  1.0000
  S   S438      1.0  0.95479  0.28755  0.26095  1.0000
  C   C1333     1.0  0.96808  0.37830  0.00329  1.0000
  C   C1334     1.0  0.95352  0.28622  0.20609  1.0000
  S   S439      1.0  0.98860  0.29465  0.32542  1.0000
  C   C1335     1.0  0.97625  0.27652  0.17730  1.0000
  Fe  Fe217     1.0  0.93664  0.26802  0.07454  1.0000
  C   C1336     1.0  0.98615  0.37815  0.99270  1.0000
  H   H1334     1.0  0.99077  0.36590  0.99527  1.0000
  H   H1335     1.0  0.94143  0.29188  0.20821  1.0000
  Fe  Fe218     1.0  0.96656  0.27813  0.29891  1.0000
  H   H1336     1.0  0.94828  0.39448  0.00914  1.0000
  C   C1337     1.0  0.97843  0.29685  0.47470  1.0000
  H   H1337     1.0  0.95322  0.33856  0.17614  1.0000
  C   C1338     1.0  0.97036  0.29978  0.45030  1.0000
  H   H1338     1.0  0.95965  0.30725  0.44979  1.0000
  H   H1339     1.0  0.97437  0.32895  0.20826  1.0000
  H   H1340     1.0  0.93547  0.26329  0.44043  1.0000
  C   C1339     1.0  0.97817  0.27484  0.22615  1.0000
  S   S440      1.0  0.98687  0.27501  0.14535  1.0000
  C   C1340     1.0  0.96535  0.33409  0.16878  1.0000
  H   H1341     1.0  0.98538  0.27182  0.24365  1.0000
  H   H1342     1.0  0.98764  0.32746  0.11065  1.0000
  C   C1341     1.0  0.96907  0.33367  0.14121  1.0000
  C   C1342     1.0  0.98496  0.27203  0.20035  1.0000
  C   C1343     1.0  0.98464  0.32778  0.13204  1.0000
  C   C1344     1.0  0.96214  0.39410  0.00069  1.0000
  H   H1343     1.0  0.99129  0.43720  0.16791  1.0000
  H   H1344     1.0  0.95991  0.33784  0.12687  1.0000
  H   H1345     1.0  0.99689  0.33751  0.47570  1.0000
  C   C1345     1.0  0.98997  0.28353  0.42737  1.0000
  H   H1346     1.0  0.95899  0.36634  0.01400  1.0000
  H   H1347     1.0  0.99733  0.26675  0.19823  1.0000
  N   N115      1.0  0.99604  0.38106  0.48225  1.0000
  N   N116      1.0  0.93686  0.25794  0.48259  1.0000
  H   H1348     1.0  0.99201  0.44916  0.12107  1.0000
  H   H1349     1.0  0.97108  0.29560  0.99148  1.0000
  C   C1346     1.0  0.99174  0.34891  0.48155  1.0000
  S   S441      1.0  0.96189  0.25674  0.07851  1.0000
  H   H1350     1.0  0.99671  0.49548  0.19460  1.0000
  C   C1347     1.0  0.94176  0.25684  0.45608  1.0000
  S   S442      1.0  0.98216  0.25683  0.36388  1.0000
  H   H1351     1.0  0.92272  0.27206  0.77760  1.0000
  C   C1348     1.0  0.98843  0.35853  0.56078  1.0000
  C   C1349     1.0  0.98643  0.26835  0.69836  1.0000
  C   C1350     1.0  0.96750  0.29235  0.94912  1.0000
  H   H1352     1.0  0.98168  0.46841  0.70862  1.0000
  H   H1353     1.0  0.93045  0.28268  0.48988  1.0000
  C   C1351     1.0  0.98073  0.26976  0.92947  1.0000
  S   S443      1.0  0.96263  0.28850  0.89542  1.0000
  C   C1352     1.0  0.91255  0.26008  0.76938  1.0000
  Fe  Fe219     1.0  0.96734  0.31080  0.57364  1.0000
  S   S444      1.0  0.96776  0.34067  0.57068  1.0000
  Fe  Fe220     1.0  0.98288  0.28384  0.54408  1.0000
  Fe  Fe221     1.0  0.97873  0.28121  0.60559  1.0000
  C   C1353     1.0  0.99212  0.40877  0.97695  1.0000
  S   S445      1.0  0.95576  0.29226  0.54059  1.0000
  S   S446      1.0  0.95152  0.28992  0.60556  1.0000
  C   C1354     1.0  0.96953  0.28459  0.72688  1.0000
  Fe  Fe222     1.0  0.96891  0.27453  0.85847  1.0000
  C   C1355     1.0  0.97100  0.28314  0.92657  1.0000
  C   C1356     1.0  0.97340  0.28805  0.97447  1.0000
  C   C1357     1.0  0.97098  0.28946  0.67808  1.0000
  C   C1358     1.0  0.98654  0.26539  0.95491  1.0000
  C   C1359     1.0  0.98755  0.37656  0.56208  1.0000
  S   S447      1.0  0.94610  0.26331  0.82926  1.0000
  H   H1354     1.0  0.96017  0.30285  0.94698  1.0000
  H   H1355     1.0  0.97464  0.37930  0.57021  1.0000
  C   C1360     1.0  0.96483  0.29319  0.70379  1.0000
  Fe  Fe223     1.0  0.96830  0.27580  0.79665  1.0000
  H   H1356     1.0  0.95495  0.35852  0.51641  1.0000
  H   H1357     1.0  0.96650  0.33235  0.50325  1.0000
  Fe  Fe224     1.0  0.94336  0.27028  0.57238  1.0000
  H   H1358     1.0  0.95655  0.30293  0.70576  1.0000
  C   C1361     1.0  0.98311  0.47939  0.66793  1.0000
  H   H1359     1.0  0.98984  0.43366  0.66860  1.0000
  C   C1362     1.0  0.97894  0.37826  0.49644  1.0000
  H   H1360     1.0  0.90261  0.26485  0.75627  1.0000
  C   C1363     1.0  0.98192  0.27711  0.67530  1.0000
  C   C1364     1.0  0.98266  0.27437  0.97754  1.0000
  S   S448      1.0  0.99141  0.27325  0.64371  1.0000
  H   H1361     1.0  0.96762  0.29648  0.66049  1.0000
  H   H1362     1.0  0.97394  0.38964  0.50273  1.0000
  H   H1363     1.0  0.98957  0.49180  0.62804  1.0000
  C   C1365     1.0  0.99450  0.49119  0.64832  1.0000
  S   S449      1.0  0.96169  0.28979  0.75881  1.0000
  H   H1364     1.0  0.98978  0.44429  0.62122  1.0000
  C   C1366     1.0  0.98027  0.27206  0.72402  1.0000
  H   H1365     1.0  0.96919  0.47084  0.66306  1.0000
  N   N117      1.0  0.99804  0.39338  0.98018  1.0000
  C   C1367     1.0  0.96802  0.36070  0.50400  1.0000
  S   S450      1.0  0.99500  0.30319  0.57589  1.0000
  H   H1366     1.0  0.98369  0.26268  0.91227  1.0000
  H   H1367     1.0  0.92370  0.26458  0.71740  1.0000
  H   H1368     1.0  0.98404  0.26534  0.74147  1.0000
  S   S451      1.0  0.96992  0.26073  0.57379  1.0000
  H   H1369     1.0  0.99498  0.25885  0.69638  1.0000
  H   H1370     1.0  0.91621  0.26355  0.51018  1.0000
  H   H1371     1.0  0.96978  0.42183  0.98499  1.0000
  C   C1368     1.0  0.99006  0.47808  0.69350  1.0000
  H   H1372     1.0  0.90983  0.27317  0.97166  1.0000
  S   S452      1.0  0.98941  0.29005  0.82600  1.0000
  C   C1369     1.0  0.97457  0.34597  0.49669  1.0000
  C   C1370     1.0  0.92303  0.26800  0.48987  1.0000
  H   H1373     1.0  0.97438  0.30255  0.49257  1.0000
  C   C1371     1.0  0.91835  0.26358  0.97011  1.0000
  H   H1374     1.0  0.92159  0.26622  0.92681  1.0000
  C   C1372     1.0  0.92477  0.25956  0.94499  1.0000
  C   C1373     1.0  0.97417  0.40942  0.98727  1.0000
  C   C1374     1.0  0.98156  0.72148  0.46310  1.0000
  H   H1375     1.0  0.67994  0.62980  0.43579  1.0000
  H   H1376     1.0  0.75726  0.71820  0.28659  1.0000
  S   S453      1.0  0.98339  0.71558  0.15570  1.0000
  H   H1377     1.0  0.83287  0.69169  0.39236  1.0000
  Fe  Fe225     1.0  0.96140  0.70243  0.12650  1.0000
  S   S454      1.0  0.94018  0.67516  0.13520  1.0000
  Fe  Fe226     1.0  0.78726  0.65791  0.08039  1.0000
  S   S455      1.0  0.79087  0.68788  0.07537  1.0000
  S   S456      1.0  0.75670  0.63971  0.08464  1.0000
  Fe  Fe227     1.0  0.83061  0.66361  0.08863  1.0000
  S   S457      1.0  0.83675  0.69361  0.08404  1.0000
  S   S458      1.0  0.85395  0.64987  0.09766  1.0000
  Fe  Fe228     1.0  0.81014  0.69012  0.11037  1.0000
  S   S459      1.0  0.81071  0.70881  0.14474  1.0000
  Fe  Fe229     1.0  0.81689  0.68796  0.04960  1.0000
  S   S460      1.0  0.99447  0.75094  0.11168  1.0000
  S   S461      1.0  0.80511  0.66026  0.11705  1.0000
  S   S462      1.0  0.81231  0.65785  0.05238  1.0000
  Fe  Fe230     1.0  0.79137  0.72542  0.32904  1.0000
  S   S463      1.0  0.77831  0.69543  0.33042  1.0000
  H   H1378     1.0  0.92221  0.72383  0.04354  1.0000
  Fe  Fe231     1.0  0.83192  0.72170  0.33190  1.0000
  S   S464      1.0  0.82190  0.69140  0.33351  1.0000
  S   S465      1.0  0.86271  0.73714  0.33659  1.0000
  Fe  Fe232     1.0  0.80241  0.69528  0.30092  1.0000
  S   S466      1.0  0.79773  0.67719  0.26539  1.0000
  Fe  Fe233     1.0  0.79918  0.69487  0.36277  1.0000
  S   S467      1.0  0.79154  0.67720  0.40100  1.0000
  S   S468      1.0  0.81405  0.72547  0.29730  1.0000
  S   S469      1.0  0.81048  0.72496  0.36337  1.0000
  Fe  Fe234     1.0  0.95030  0.69998  0.34823  1.0000
  S   S470      1.0  0.96379  0.72779  0.36263  1.0000
  S   S471      1.0  0.91963  0.68783  0.33790  1.0000
  S   S472      1.0  0.97159  0.70128  0.31420  1.0000
  S   S473      1.0  0.96531  0.68598  0.37709  1.0000
  C   C1375     1.0  0.88093  0.67923  0.38952  1.0000
  C   C1376     1.0  0.87700  0.69730  0.03684  1.0000
  H   H1379     1.0  0.90107  0.66649  0.05349  1.0000
  C   C1377     1.0  0.76101  0.73327  0.37824  1.0000
  C   C1378     1.0  0.75247  0.73503  0.40329  1.0000
  H   H1380     1.0  0.79511  0.67280  0.99949  1.0000
  H   H1381     1.0  0.69249  0.74106  0.26749  1.0000
  C   C1379     1.0  0.96622  0.72932  0.46437  1.0000
  H   H1382     1.0  0.76862  0.72306  0.37591  1.0000
  H   H1383     1.0  0.75363  0.72623  0.42021  1.0000
  C   C1380     1.0  0.93629  0.71508  0.20913  1.0000
  C   C1381     1.0  0.84662  0.67077  0.38523  1.0000
  C   C1382     1.0  0.87919  0.72412  0.33444  1.0000
  C   C1383     1.0  0.87394  0.70685  0.32419  1.0000
  C   C1384     1.0  0.88666  0.69598  0.32478  1.0000
  C   C1385     1.0  0.90479  0.70240  0.33537  1.0000
  C   C1386     1.0  0.91036  0.71993  0.34473  1.0000
  C   C1387     1.0  0.89758  0.73079  0.34420  1.0000
  H   H1384     1.0  0.86011  0.70187  0.31568  1.0000
  H   H1385     1.0  0.88234  0.68248  0.31731  1.0000
  H   H1386     1.0  0.92430  0.72499  0.35296  1.0000
  H   H1387     1.0  0.74031  0.74151  0.28573  1.0000
  C   C1388     1.0  0.80593  0.69990  0.17815  1.0000
  C   C1389     1.0  0.80960  0.71174  0.19938  1.0000
  C   C1390     1.0  0.80712  0.70499  0.22623  1.0000
  C   C1391     1.0  0.80067  0.68634  0.23206  1.0000
  C   C1392     1.0  0.79655  0.67454  0.21085  1.0000
  C   C1393     1.0  0.79920  0.68127  0.18402  1.0000
  H   H1388     1.0  0.81474  0.72618  0.19501  1.0000
  H   H1389     1.0  0.81027  0.71424  0.24233  1.0000
  H   H1390     1.0  0.79138  0.66010  0.21519  1.0000
  H   H1391     1.0  0.79598  0.67203  0.16794  1.0000
  C   C1394     1.0  0.71310  0.63294  0.14141  1.0000
  C   C1395     1.0  0.72211  0.64420  0.41449  1.0000
  C   C1396     1.0  0.79841  0.67343  0.45440  1.0000
  C   C1397     1.0  0.80145  0.68529  0.43166  1.0000
  C   C1398     1.0  0.81232  0.70323  0.43377  1.0000
  C   C1399     1.0  0.82021  0.70917  0.45835  1.0000
  H   H1392     1.0  0.98592  0.67863  0.42574  1.0000
  H   H1393     1.0  0.79015  0.65950  0.45296  1.0000
  H   H1394     1.0  0.81467  0.71254  0.41655  1.0000
  H   H1395     1.0  0.82868  0.72302  0.45984  1.0000
  C   C1400     1.0  0.91612  0.66956  0.12481  1.0000
  C   C1401     1.0  0.90661  0.65121  0.12331  1.0000
  C   C1402     1.0  0.88767  0.64570  0.11514  1.0000
  C   C1403     1.0  0.87762  0.65839  0.10876  1.0000
  C   C1404     1.0  0.88683  0.67690  0.11078  1.0000
  C   C1405     1.0  0.90616  0.68249  0.11851  1.0000
  H   H1396     1.0  0.91404  0.64109  0.12822  1.0000
  H   H1397     1.0  0.88078  0.63140  0.11371  1.0000
  H   H1398     1.0  0.87927  0.68688  0.10583  1.0000
  H   H1399     1.0  0.91325  0.69672  0.11983  1.0000
  H   H1400     1.0  0.88980  0.72611  0.03278  1.0000
  H   H1401     1.0  0.72026  0.63397  0.16090  1.0000
  N   N118      1.0  0.75121  0.73149  0.25092  1.0000
  S   S474      1.0  0.82652  0.70425  0.01049  1.0000
  C   C1406     1.0  0.71953  0.61305  0.01618  1.0000
  C   C1407     1.0  0.73929  0.62097  0.01129  1.0000
  C   C1408     1.0  0.75084  0.62965  0.03182  1.0000
  C   C1409     1.0  0.74274  0.63007  0.05758  1.0000
  C   C1410     1.0  0.72299  0.62213  0.06239  1.0000
  C   C1411     1.0  0.71139  0.61390  0.04173  1.0000
  H   H1402     1.0  0.67098  0.66082  0.18151  1.0000
  H   H1403     1.0  0.76604  0.63560  0.02794  1.0000
  H   H1404     1.0  0.71663  0.62212  0.08226  1.0000
  H   H1405     1.0  0.69624  0.60776  0.04579  1.0000
  H   H1406     1.0  0.86848  0.66823  0.04310  1.0000
  N   N119      1.0  0.86307  0.70102  0.39653  1.0000
  N   N120      1.0  0.71035  0.63604  0.43597  1.0000
  H   H1407     1.0  0.94230  0.69660  0.03729  1.0000
  C   C1412     1.0  0.69052  0.69996  0.22549  1.0000
  Fe  Fe235     1.0  0.67316  0.59662  0.99572  1.0000
  H   H1408     1.0  0.67632  0.59501  0.12064  1.0000
  C   C1413     1.0  0.68697  0.71567  0.21386  1.0000
  C   C1414     1.0  0.98724  0.75114  0.26784  1.0000
  C   C1415     1.0  0.97588  0.75408  0.21441  1.0000
  H   H1409     1.0  0.72460  0.63761  0.12537  1.0000
  H   H1410     1.0  0.67582  0.66286  0.09517  1.0000
  C   C1416     1.0  0.75563  0.71792  0.20932  1.0000
  H   H1411     1.0  0.69987  0.64536  0.09754  1.0000
  H   H1412     1.0  0.93493  0.73907  0.22899  1.0000
  C   C1417     1.0  0.96985  0.73236  0.01420  1.0000
  C   C1418     1.0  0.99434  0.65830  0.26107  1.0000
  H   H1413     1.0  0.74714  0.74250  0.21232  1.0000
  C   C1419     1.0  0.93566  0.69989  0.26056  1.0000
  H   H1414     1.0  0.75193  0.74082  0.01945  1.0000
  H   H1415     1.0  0.75925  0.66992  0.44786  1.0000
  H   H1416     1.0  0.93809  0.68937  0.19492  1.0000
  C   C1420     1.0  0.93526  0.72508  0.23182  1.0000
  C   C1421     1.0  0.76066  0.70399  0.22343  1.0000
  H   H1417     1.0  0.98588  0.65528  0.39294  1.0000
  C   C1422     1.0  0.67226  0.66352  0.13824  1.0000
  H   H1418     1.0  0.93912  0.70450  0.07024  1.0000
  C   C1423     1.0  0.93439  0.72833  0.28055  1.0000
  H   H1419     1.0  0.70560  0.61849  0.13874  1.0000
  C   C1424     1.0  0.66826  0.71496  0.20678  1.0000
  H   H1420     1.0  0.98286  0.64878  0.17633  1.0000
  C   C1425     1.0  0.99358  0.66508  0.28675  1.0000
  H   H1421     1.0  0.86268  0.69823  0.03248  1.0000
  C   C1426     1.0  0.89877  0.67960  0.04853  1.0000
  H   H1422     1.0  0.93518  0.69376  0.28064  1.0000
  C   C1427     1.0  0.98625  0.72609  0.01277  1.0000
  C   C1428     1.0  0.76007  0.74500  0.35653  1.0000
  H   H1423     1.0  0.98309  0.72891  0.20918  1.0000
  C   C1429     1.0  0.75654  0.71809  0.26489  1.0000
  H   H1424     1.0  0.85975  0.71951  0.42568  1.0000
  C   C1430     1.0  0.75548  0.73742  0.99932  1.0000
  H   H1425     1.0  0.73636  0.75191  0.25441  1.0000
  C   C1431     1.0  0.68033  0.65901  0.11456  1.0000
  S   S475      1.0  0.99089  0.71557  0.43239  1.0000
  H   H1426     1.0  0.86450  0.65284  0.37852  1.0000
  H   H1427     1.0  0.75541  0.71811  0.18755  1.0000
  H   H1428     1.0  0.70629  0.63374  0.47865  1.0000
  C   C1432     1.0  0.67932  0.74580  0.26921  1.0000
  H   H1429     1.0  0.76443  0.69330  0.21268  1.0000
  H   H1430     1.0  0.71785  0.64121  0.39412  1.0000
  N   N121      1.0  0.84257  0.66324  0.17677  1.0000
  C   C1433     1.0  0.84145  0.66611  0.20366  1.0000
  C   C1434     1.0  0.84725  0.67756  0.15843  1.0000
  C   C1435     1.0  0.84494  0.68370  0.21274  1.0000
  C   C1436     1.0  0.85075  0.69530  0.16678  1.0000
  C   C1437     1.0  0.84962  0.69836  0.19412  1.0000
  C   C1438     1.0  0.83940  0.64482  0.16739  1.0000
  H   H1431     1.0  0.83748  0.65481  0.21827  1.0000
  C   C1439     1.0  0.69167  0.62331  0.43168  1.0000
  H   H1432     1.0  0.84333  0.68590  0.23399  1.0000
  H   H1433     1.0  0.85363  0.70657  0.15208  1.0000
  H   H1434     1.0  0.85166  0.71203  0.20078  1.0000
  H   H1435     1.0  0.83008  0.64287  0.14981  1.0000
  H   H1436     1.0  0.85333  0.64244  0.16102  1.0000
  H   H1437     1.0  0.83220  0.63441  0.18312  1.0000
  N   N122      1.0  0.91351  0.69507  0.04922  1.0000
  H   H1438     1.0  0.77485  0.72214  0.01241  1.0000
  C   C1440     1.0  0.93281  0.69407  0.05577  1.0000
  C   C1441     1.0  0.86241  0.71920  0.40366  1.0000
  H   H1439     1.0  0.83332  0.66086  0.38108  1.0000
  H   H1440     1.0  0.93686  0.72135  0.18913  1.0000
  H   H1441     1.0  0.98332  0.66977  0.15885  1.0000
  H   H1442     1.0  0.69056  0.61867  0.41078  1.0000
  H   H1443     1.0  0.87600  0.72948  0.39735  1.0000
  C   C1442     1.0  0.93669  0.68948  0.23831  1.0000
  C   C1443     1.0  0.74551  0.66043  0.44457  1.0000
  C   C1444     1.0  0.67758  0.65782  0.16300  1.0000
  N   N123      1.0  0.93540  0.71757  0.25709  1.0000
  C   C1445     1.0  0.98781  0.73764  0.24980  1.0000
  H   H1444     1.0  0.67830  0.67218  0.24028  1.0000
  H   H1445     1.0  0.91920  0.72762  0.28589  1.0000
  C   C1446     1.0  0.98234  0.73921  0.22303  1.0000
  C   C1447     1.0  0.74678  0.74628  0.26536  1.0000
  C   C1448     1.0  0.76120  0.70407  0.25139  1.0000
  S   S476      1.0  0.96178  0.73973  0.04472  1.0000
  S   S477      1.0  0.98286  0.70886  0.09154  1.0000
  Fe  Fe236     1.0  0.97246  0.73363  0.08559  1.0000
  S   S478      1.0  0.77272  0.74446  0.32607  1.0000
  Fe  Fe237     1.0  0.98609  0.72818  0.32982  1.0000
  S   S479      1.0  0.70603  0.73599  0.20919  1.0000
  Fe  Fe238     1.0  0.98079  0.71389  0.38925  1.0000
  H   H1446     1.0  0.70493  0.70024  0.23095  1.0000
  S   S480      1.0  0.95028  0.72646  0.11980  1.0000
  C   C1449     1.0  0.69108  0.64777  0.16371  1.0000
  H   H1447     1.0  0.98545  0.67467  0.29029  1.0000
  H   H1448     1.0  0.85086  0.72329  0.39302  1.0000
  Fe  Fe239     1.0  0.97359  0.74025  0.14676  1.0000
  H   H1449     1.0  0.93269  0.68075  0.06538  1.0000
  Fe  Fe240     1.0  0.98809  0.69000  0.34437  1.0000
  C   C1450     1.0  0.88016  0.69662  0.39597  1.0000
  C   C1451     1.0  0.75101  0.73169  0.22347  1.0000
  C   C1452     1.0  0.84642  0.68829  0.39167  1.0000
  H   H1450     1.0  0.94084  0.72336  0.29823  1.0000
  C   C1453     1.0  0.93712  0.69720  0.21242  1.0000
  H   H1451     1.0  0.98670  0.66268  0.24501  1.0000
  H   H1452     1.0  0.95947  0.73182  0.44611  1.0000
  H   H1453     1.0  0.94256  0.74272  0.27650  1.0000
  C   C1454     1.0  0.86404  0.66628  0.38396  1.0000
  C   C1455     1.0  0.99177  0.66286  0.17164  1.0000
  C   C1456     1.0  0.76830  0.72696  0.99538  1.0000
  H   H1454     1.0  0.89461  0.67600  0.38813  1.0000
  H   H1455     1.0  0.89340  0.70669  0.39980  1.0000
  C   C1457     1.0  0.88027  0.68049  0.04258  1.0000
  C   C1458     1.0  0.89219  0.71296  0.03709  1.0000
  C   C1459     1.0  0.69388  0.64906  0.11603  1.0000
  C   C1460     1.0  0.91048  0.71158  0.04328  1.0000
  H   H1456     1.0  0.84799  0.67528  0.13715  1.0000
  H   H1457     1.0  0.68948  0.61106  0.44526  1.0000
  H   H1458     1.0  0.90178  0.74423  0.35192  1.0000
  H   H1459     1.0  0.67536  0.71182  0.28722  1.0000
  H   H1460     1.0  0.78635  0.73905  0.45156  1.0000
  C   C1461     1.0  0.73987  0.65648  0.41847  1.0000
  N   N124      1.0  0.69929  0.64381  0.14040  1.0000
  H   H1461     1.0  0.99315  0.72636  0.25619  1.0000
  H   H1462     1.0  0.93721  0.67556  0.24117  1.0000
  H   H1463     1.0  0.76544  0.69346  0.26250  1.0000
  S   S481      1.0  0.99737  0.75166  0.29970  1.0000
  H   H1464     1.0  0.74930  0.66284  0.40146  1.0000
  C   C1462     1.0  0.80604  0.67944  0.47909  1.0000
  C   C1463     1.0  0.67545  0.68397  0.23063  1.0000
  C   C1464     1.0  0.74298  0.74852  0.40671  1.0000
  S   S482      1.0  0.70541  0.60170  0.99038  1.0000
  C   C1465     1.0  0.81707  0.69731  0.48112  1.0000
  H   H1465     1.0  0.74574  0.62028  0.99165  1.0000
  H   H1466     1.0  0.69461  0.64280  0.18299  1.0000
  C   C1466     1.0  0.71567  0.64006  0.46162  1.0000
  S   S483      1.0  0.67787  0.75292  0.00634  1.0000
  H   H1467     1.0  0.80474  0.74815  0.41022  1.0000
  H   H1468     1.0  0.99422  0.72549  0.03061  1.0000
  H   H1469     1.0  0.66690  0.58465  0.36416  1.0000
  C   C1467     1.0  0.95975  0.73315  0.99070  1.0000
  C   C1468     1.0  0.99737  0.67201  0.42528  1.0000
  C   C1469     1.0  0.73340  0.65214  0.46634  1.0000
  H   H1470     1.0  0.94711  0.73807  0.99154  1.0000
  S   S484      1.0  0.66704  0.60230  0.17493  1.0000
  H   H1471     1.0  0.99450  0.66965  0.19101  1.0000
  H   H1472     1.0  0.77137  0.75208  0.46431  1.0000
  H   H1473     1.0  0.67943  0.75346  0.28773  1.0000
  C   C1470     1.0  0.99028  0.71851  0.48702  1.0000
  S   S485      1.0  0.73514  0.75235  0.43916  1.0000
  C   C1471     1.0  0.78575  0.75315  0.45476  1.0000
  H   H1474     1.0  0.67986  0.75517  0.25160  1.0000
  C   C1472     1.0  0.66748  0.75123  0.05989  1.0000
  H   H1475     1.0  0.99893  0.63357  0.37448  1.0000
  C   C1473     1.0  0.99737  0.65867  0.40691  1.0000
  C   C1474     1.0  0.66606  0.60297  0.11992  1.0000
  C   C1475     1.0  0.99282  0.72124  0.98795  1.0000
  H   H1476     1.0  0.73773  0.65491  0.48677  1.0000
  H   H1477     1.0  0.83179  0.64840  0.89914  1.0000
  C   C1476     1.0  0.96357  0.74461  0.71444  1.0000
  H   H1478     1.0  0.76012  0.72754  0.90537  1.0000
  S   S486      1.0  0.97814  0.70911  0.65412  1.0000
  S   S487      1.0  0.98289  0.70691  0.58896  1.0000
  Fe  Fe241     1.0  0.95942  0.69694  0.62070  1.0000
  S   S488      1.0  0.94042  0.66840  0.62267  1.0000
  Fe  Fe242     1.0  0.78877  0.65722  0.57974  1.0000
  S   S489      1.0  0.79458  0.68756  0.57782  1.0000
  S   S490      1.0  0.75742  0.64100  0.58375  1.0000
  Fe  Fe243     1.0  0.83162  0.65970  0.58410  1.0000
  S   S491      1.0  0.84012  0.68985  0.58199  1.0000
  S   S492      1.0  0.85358  0.64391  0.58887  1.0000
  Fe  Fe244     1.0  0.81494  0.68715  0.61086  1.0000
  S   S493      1.0  0.81949  0.70516  0.64661  1.0000
  Fe  Fe245     1.0  0.81898  0.68698  0.54919  1.0000
  Fe  Fe246     1.0  0.96671  0.73296  0.64645  1.0000
  S   S494      1.0  0.80759  0.65694  0.61493  1.0000
  S   S495      1.0  0.81211  0.65667  0.54915  1.0000
  Fe  Fe247     1.0  0.79026  0.72537  0.82885  1.0000
  S   S496      1.0  0.77587  0.69561  0.83104  1.0000
  C   C1477     1.0  0.98567  0.58912  0.74492  1.0000
  Fe  Fe248     1.0  0.82973  0.71940  0.83302  1.0000
  S   S497      1.0  0.81812  0.68915  0.83560  1.0000
  S   S498      1.0  0.86124  0.73316  0.83607  1.0000
  Fe  Fe249     1.0  0.79960  0.69374  0.80209  1.0000
  S   S499      1.0  0.79299  0.67580  0.76642  1.0000
  Fe  Fe250     1.0  0.79588  0.69443  0.86412  1.0000
  S   S500      1.0  0.78540  0.67780  0.90280  1.0000
  S   S501      1.0  0.81265  0.72371  0.79769  1.0000
  S   S502      1.0  0.80865  0.72439  0.86385  1.0000
  Fe  Fe251     1.0  0.94405  0.69316  0.86119  1.0000
  S   S503      1.0  0.95746  0.72214  0.87049  1.0000
  S   S504      1.0  0.91233  0.68007  0.86073  1.0000
  S   S505      1.0  0.96100  0.69377  0.82255  1.0000
  S   S506      1.0  0.96390  0.68205  0.88616  1.0000
  C   C1478     1.0  0.98397  0.72346  0.51190  1.0000
  C   C1479     1.0  0.76734  0.75443  0.85298  1.0000
  H   H1479     1.0  0.72601  0.62556  0.94701  1.0000
  C   C1480     1.0  0.89921  0.67601  0.53866  1.0000
  H   H1480     1.0  0.73507  0.63324  0.68678  1.0000
  H   H1481     1.0  0.77480  0.70317  0.74453  1.0000
  C   C1481     1.0  0.72127  0.64772  0.62737  1.0000
  C   C1482     1.0  0.88049  0.67651  0.53332  1.0000
  H   H1482     1.0  0.93346  0.67784  0.55486  1.0000
  H   H1483     1.0  0.86220  0.69374  0.52423  1.0000
  C   C1483     1.0  0.98289  0.72223  0.96437  1.0000
  C   C1484     1.0  0.89699  0.73315  0.78606  1.0000
  C   C1485     1.0  0.87532  0.71834  0.84306  1.0000
  C   C1486     1.0  0.86960  0.70035  0.83569  1.0000
  C   C1487     1.0  0.88088  0.68861  0.84166  1.0000
  C   C1488     1.0  0.89827  0.69497  0.85423  1.0000
  C   C1489     1.0  0.90421  0.71306  0.86116  1.0000
  C   C1490     1.0  0.89276  0.72474  0.85555  1.0000
  H   H1484     1.0  0.85677  0.69555  0.82471  1.0000
  H   H1485     1.0  0.87636  0.67467  0.83594  1.0000
  H   H1486     1.0  0.91743  0.71800  0.87126  1.0000
  C   C1491     1.0  0.73328  0.64306  0.64617  1.0000
  C   C1492     1.0  0.81283  0.69641  0.67982  1.0000
  C   C1493     1.0  0.80226  0.67845  0.68533  1.0000
  C   C1494     1.0  0.79662  0.67220  0.71202  1.0000
  C   C1495     1.0  0.80156  0.68380  0.73339  1.0000
  C   C1496     1.0  0.81238  0.70168  0.72785  1.0000
  C   C1497     1.0  0.81792  0.70795  0.70119  1.0000
  H   H1487     1.0  0.79816  0.66944  0.66906  1.0000
  H   H1488     1.0  0.78823  0.65835  0.71612  1.0000
  H   H1489     1.0  0.81633  0.71075  0.74405  1.0000
  H   H1490     1.0  0.82608  0.72188  0.69709  1.0000
  C   C1498     1.0  0.72343  0.64003  0.87258  1.0000
  C   C1499     1.0  0.98242  0.60618  0.74637  1.0000
  C   C1500     1.0  0.79057  0.67529  0.95699  1.0000
  C   C1501     1.0  0.79624  0.68569  0.93293  1.0000
  C   C1502     1.0  0.81065  0.70198  0.93322  1.0000
  C   C1503     1.0  0.81942  0.70776  0.95730  1.0000
  C   C1504     1.0  0.81402  0.69721  0.98125  1.0000
  H   H1491     1.0  0.77943  0.66266  0.95703  1.0000
  H   H1492     1.0  0.81530  0.71005  0.91488  1.0000
  H   H1493     1.0  0.83069  0.72031  0.95728  1.0000
  C   C1505     1.0  0.91628  0.66287  0.61302  1.0000
  C   C1506     1.0  0.90661  0.64455  0.61184  1.0000
  C   C1507     1.0  0.88748  0.63919  0.60452  1.0000
  C   C1508     1.0  0.87749  0.65201  0.59873  1.0000
  C   C1509     1.0  0.88693  0.67047  0.60022  1.0000
  C   C1510     1.0  0.90645  0.67591  0.60693  1.0000
  H   H1494     1.0  0.91400  0.63437  0.61645  1.0000
  H   H1495     1.0  0.88034  0.62491  0.60340  1.0000
  H   H1496     1.0  0.87937  0.68051  0.59570  1.0000
  H   H1497     1.0  0.91370  0.69011  0.60770  1.0000
  C   C1511     1.0  0.91011  0.70808  0.53421  1.0000
  S   S507      1.0  0.82748  0.70517  0.51153  1.0000
  Fe  Fe252     1.0  0.97580  0.72199  0.83315  1.0000
  H   H1498     1.0  0.97954  0.61321  0.72836  1.0000
  C   C1512     1.0  0.71976  0.61016  0.51861  1.0000
  C   C1513     1.0  0.73957  0.61750  0.51329  1.0000
  C   C1514     1.0  0.75130  0.62735  0.53276  1.0000
  C   C1515     1.0  0.74332  0.62958  0.55792  1.0000
  C   C1516     1.0  0.72350  0.62226  0.56311  1.0000
  C   C1517     1.0  0.71173  0.61283  0.54346  1.0000
  C   C1518     1.0  0.72605  0.63733  0.67220  1.0000
  H   H1499     1.0  0.76654  0.63281  0.52856  1.0000
  H   H1500     1.0  0.71718  0.62358  0.58257  1.0000
  H   H1501     1.0  0.69653  0.60716  0.54784  1.0000
  C   C1519     1.0  0.72530  0.62950  0.92600  1.0000
  H   H1502     1.0  0.98532  0.58270  0.72579  1.0000
  C   C1520     1.0  0.68548  0.69641  0.70332  1.0000
  H   H1503     1.0  0.88873  0.72207  0.52474  1.0000
  C   C1521     1.0  0.86123  0.70246  0.91512  1.0000
  H   H1504     1.0  0.95844  0.72893  0.94793  1.0000
  N   N125      1.0  0.71164  0.61929  0.91038  1.0000
  C   C1522     1.0  0.68329  0.71406  0.70409  1.0000
  H   H1505     1.0  0.74590  0.61545  0.49413  1.0000
  H   H1506     1.0  0.78060  0.71647  0.68636  1.0000
  H   H1507     1.0  0.75652  0.70570  0.67658  1.0000
  C   C1523     1.0  0.99129  0.58932  0.79241  1.0000
  C   C1524     1.0  0.69003  0.65037  0.61356  1.0000
  H   H1508     1.0  0.68064  0.64045  0.66549  1.0000
  C   C1525     1.0  0.71038  0.62449  0.88410  1.0000
  H   H1509     1.0  0.69188  0.74762  0.81115  1.0000
  H   H1510     1.0  0.88705  0.70546  0.77440  1.0000
  C   C1526     1.0  0.97390  0.74392  0.76869  1.0000
  C   C1527     1.0  0.96525  0.72844  0.72696  1.0000
  H   H1511     1.0  0.68682  0.63909  0.59953  1.0000
  C   C1528     1.0  0.75884  0.71907  0.76431  1.0000
  N   N126      1.0  0.75899  0.71468  0.71684  1.0000
  H   H1512     1.0  0.85392  0.68505  0.97936  1.0000
  H   H1513     1.0  0.80349  0.67018  0.49646  1.0000
  C   C1529     1.0  0.74682  0.72542  0.71354  1.0000
  C   C1530     1.0  0.89880  0.71571  0.78218  1.0000
  S   S508      1.0  0.96116  0.73883  0.54398  1.0000
  H   H1514     1.0  0.89154  0.73015  0.66227  1.0000
  C   C1531     1.0  0.96613  0.72796  0.96594  1.0000
  H   H1515     1.0  0.91690  0.69778  0.78766  1.0000
  S   S509      1.0  0.98970  0.74702  0.61536  1.0000
  H   H1516     1.0  0.67615  0.65159  0.62230  1.0000
  C   C1532     1.0  0.76647  0.70731  0.69340  1.0000
  H   H1517     1.0  0.72252  0.64400  0.85165  1.0000
  H   H1518     1.0  0.90192  0.66300  0.54306  1.0000
  C   C1533     1.0  0.91550  0.71140  0.78961  1.0000
  N   N127      1.0  0.87012  0.68528  0.65947  1.0000
  C   C1534     1.0  0.87207  0.70351  0.65915  1.0000
  C   C1535     1.0  0.88551  0.67865  0.66430  1.0000
  C   C1536     1.0  0.88995  0.71568  0.66291  1.0000
  C   C1537     1.0  0.90361  0.69044  0.66804  1.0000
  C   C1538     1.0  0.90582  0.70907  0.66729  1.0000
  C   C1539     1.0  0.85126  0.67272  0.65571  1.0000
  H   H1519     1.0  0.85978  0.70876  0.65576  1.0000
  H   H1520     1.0  0.88399  0.66419  0.66442  1.0000
  C   C1540     1.0  0.74029  0.73318  0.73567  1.0000
  H   H1521     1.0  0.91594  0.68516  0.67084  1.0000
  C   C1541     1.0  0.99011  0.58060  0.76807  1.0000
  H   H1522     1.0  0.84346  0.66861  0.67543  1.0000
  H   H1523     1.0  0.84243  0.67911  0.64287  1.0000
  H   H1524     1.0  0.85261  0.66045  0.64541  1.0000
  H   H1525     1.0  0.67441  0.59223  0.62378  1.0000
  H   H1526     1.0  0.98331  0.60538  0.83629  1.0000
  Fe  Fe253     1.0  0.67315  0.59265  0.49865  1.0000
  C   C1542     1.0  0.89157  0.70906  0.52860  1.0000
  H   H1527     1.0  0.72690  0.65185  0.60704  1.0000
  S   S510      1.0  0.95569  0.74589  0.68133  1.0000
  H   H1528     1.0  0.93952  0.70157  0.55984  1.0000
  H   H1529     1.0  0.86893  0.66406  0.53373  1.0000
  H   H1530     1.0  0.94328  0.72147  0.80606  1.0000
  C   C1543     1.0  0.98349  0.61440  0.77111  1.0000
  S   S511      1.0  0.77027  0.74298  0.82402  1.0000
  N   N128      1.0  0.70259  0.64671  0.63429  1.0000
  C   C1544     1.0  0.70705  0.63659  0.67921  1.0000
  C   C1545     1.0  0.97012  0.72802  0.75425  1.0000
  C   C1546     1.0  0.73855  0.64513  0.91513  1.0000
  C   C1547     1.0  0.82442  0.65882  0.90449  1.0000
  H   H1531     1.0  0.81902  0.66386  0.88594  1.0000
  H   H1532     1.0  0.84658  0.68953  0.88141  1.0000
  N   N129      1.0  0.83765  0.67360  0.91775  1.0000
  C   C1548     1.0  0.85275  0.68593  0.95775  1.0000
  H   H1533     1.0  0.81153  0.65253  0.91773  1.0000
  H   H1534     1.0  0.74177  0.73613  0.77858  1.0000
  H   H1535     1.0  0.91982  0.71840  0.66994  1.0000
  C   C1549     1.0  0.69798  0.60302  0.92237  1.0000
  H   H1536     1.0  0.83131  0.66051  0.95671  1.0000
  H   H1537     1.0  0.88368  0.73623  0.78118  1.0000
  H   H1538     1.0  0.98189  0.67472  0.79001  1.0000
  Fe  Fe254     1.0  0.97870  0.71115  0.89306  1.0000
  H   H1539     1.0  0.73743  0.75173  0.84677  1.0000
  H   H1540     1.0  0.92163  0.72051  0.53451  1.0000
  H   H1541     1.0  0.93978  0.75207  0.81184  1.0000
  H   H1542     1.0  0.74796  0.64347  0.64028  1.0000
  C   C1550     1.0  0.96898  0.73171  0.51313  1.0000
  S   S512      1.0  0.94651  0.71990  0.61522  1.0000
  H   H1543     1.0  0.98247  0.62608  0.81937  1.0000
  C   C1551     1.0  0.83986  0.67215  0.94483  1.0000
  N   N130      1.0  0.91365  0.69170  0.53950  1.0000
  C   C1552     1.0  0.74733  0.74362  0.97720  1.0000
  C   C1553     1.0  0.86345  0.70119  0.94275  1.0000
  C   C1554     1.0  0.68036  0.73400  0.61972  1.0000
  S   S513      1.0  0.70178  0.73277  0.68993  1.0000
  H   H1544     1.0  0.69849  0.69435  0.69444  1.0000
  H   H1545     1.0  0.99525  0.58281  0.81015  1.0000
  Fe  Fe255     1.0  0.97072  0.73073  0.58460  1.0000
  C   C1555     1.0  0.69549  0.64145  0.65993  1.0000
  C   C1556     1.0  0.87669  0.69315  0.52825  1.0000
  C   C1557     1.0  0.76506  0.71153  0.74181  1.0000
  H   H1546     1.0  0.98110  0.62771  0.77199  1.0000
  S   S514      1.0  0.99261  0.71695  0.93348  1.0000
  H   H1547     1.0  0.96242  0.71624  0.71580  1.0000
  C   C1558     1.0  0.93027  0.72462  0.80020  1.0000
  C   C1559     1.0  0.84826  0.68841  0.90286  1.0000
  H   H1548     1.0  0.69706  0.66316  0.60193  1.0000
  C   C1560     1.0  0.67755  0.73638  0.59240  1.0000
  H   H1549     1.0  0.73752  0.75199  0.97994  1.0000
  H   H1550     1.0  0.97142  0.71559  0.76385  1.0000
  H   H1551     1.0  0.67276  0.66785  0.71321  1.0000
  H   H1552     1.0  0.66779  0.58987  0.86604  1.0000
  H   H1553     1.0  0.78289  0.71488  0.96634  1.0000
  H   H1554     1.0  0.74948  0.65314  0.92749  1.0000
  C   C1561     1.0  0.96005  0.73449  0.48928  1.0000
  H   H1555     1.0  0.74795  0.66238  0.87952  1.0000
  C   C1562     1.0  0.93318  0.69110  0.54542  1.0000
  N   N131      1.0  0.76464  0.72892  0.94767  1.0000
  H   H1556     1.0  0.73058  0.74162  0.73295  1.0000
  C   C1563     1.0  0.92809  0.74194  0.80361  1.0000
  N   N132      1.0  0.98779  0.60592  0.79373  1.0000
  H   H1557     1.0  0.89734  0.73870  0.86115  1.0000
  H   H1558     1.0  0.74205  0.72810  0.69377  1.0000
  H   H1559     1.0  0.68993  0.59429  0.90696  1.0000
  N   N133      1.0  0.91138  0.74587  0.79720  1.0000
  C   C1564     1.0  0.73764  0.65034  0.88821  1.0000
  Fe  Fe256     1.0  0.98235  0.68571  0.84836  1.0000
  H   H1560     1.0  0.94241  0.69380  0.52669  1.0000
  H   H1561     1.0  0.74572  0.74418  0.93437  1.0000
  C   C1565     1.0  0.74644  0.73002  0.76120  1.0000
  H   H1562     1.0  0.87323  0.71213  0.95257  1.0000
  C   C1566     1.0  0.99675  0.66562  0.75753  1.0000
  C   C1567     1.0  0.75207  0.73920  0.95138  1.0000
  H   H1563     1.0  0.76851  0.69375  0.69850  1.0000
  H   H1564     1.0  0.78475  0.73388  0.91468  1.0000
  H   H1565     1.0  0.68917  0.73734  0.57768  1.0000
  H   H1566     1.0  0.94851  0.74096  0.48998  1.0000
  H   H1567     1.0  0.99758  0.66790  0.65486  1.0000
  H   H1568     1.0  0.99317  0.66323  0.61999  1.0000
  H   H1569     1.0  0.69930  0.61662  0.87182  1.0000
  C   C1568     1.0  0.67088  0.68133  0.71391  1.0000
  C   C1569     1.0  0.77022  0.72504  0.92046  1.0000
  C   C1570     1.0  0.77280  0.72287  0.96925  1.0000
  H   H1570     1.0  0.86937  0.71430  0.90326  1.0000
  C   C1571     1.0  0.99351  0.66906  0.78452  1.0000
  H   H1571     1.0  0.68764  0.60698  0.93622  1.0000
  S   S515      1.0  0.98203  0.74518  0.80191  1.0000
  H   H1572     1.0  0.70106  0.63172  0.69918  1.0000
  H   H1573     1.0  0.98757  0.66866  0.74235  1.0000
  H   H1574     1.0  0.99321  0.56756  0.76689  1.0000
  S   S516      1.0  0.70538  0.59759  0.49401  1.0000
  S   S517      1.0  0.99860  0.71409  0.85643  1.0000
  H   H1575     1.0  0.76376  0.71658  0.78403  1.0000
  H   H1576     1.0  0.70561  0.59472  0.93411  1.0000
  H   H1577     1.0  0.69415  0.73305  0.62658  1.0000
  C   C1572     1.0  0.66637  0.71641  0.71579  1.0000
  C   C1573     1.0  0.98978  0.61504  0.81928  1.0000
  H   H1578     1.0  0.99108  0.72136  0.52999  1.0000
  H   H1579     1.0  0.77043  0.71065  0.91942  1.0000
  C   C1574     1.0  0.79944  0.68102  0.98110  1.0000
  S   S518      1.0  0.68374  0.75325  0.86649  1.0000
  H   H1580     1.0  0.66768  0.73150  0.65955  1.0000
  S   S519      1.0  0.70620  0.75636  0.93601  1.0000
  Fe  Fe257     1.0  0.67755  0.78647  0.22147  1.0000
  H   H1581     1.0  0.83455  0.97896  0.01229  1.0000
  H   H1582     1.0  0.76024  0.89571  0.37803  1.0000
  C   C1575     1.0  0.82075  0.99889  0.99795  1.0000
  H   H1583     1.0  0.76885  0.87976  0.24503  1.0000
  Fe  Fe258     1.0  0.72766  0.81463  0.45594  1.0000
  H   H1584     1.0  0.83107  0.98578  0.06024  1.0000
  H   H1585     1.0  0.67948  0.96141  0.47849  1.0000
  C   C1576     1.0  0.68637  0.78717  0.06887  1.0000
  C   C1577     1.0  0.74616  0.92345  0.04258  1.0000
  H   H1586     1.0  0.80606  0.99701  0.25144  1.0000
  C   C1578     1.0  0.76755  0.90585  0.05613  1.0000
  H   H1587     1.0  0.83549  0.95360  0.48377  1.0000
  S   S520      1.0  0.73404  0.80188  0.41838  1.0000
  H   H1588     1.0  0.73743  0.93248  0.04740  1.0000
  Fe  Fe259     1.0  0.74616  0.97299  0.42158  1.0000
  S   S521      1.0  0.77384  0.97527  0.39834  1.0000
  H   H1589     1.0  0.69892  0.84515  0.25632  1.0000
  Fe  Fe260     1.0  0.73741  0.93211  0.42870  1.0000
  S   S522      1.0  0.76432  0.93119  0.40624  1.0000
  S   S523      1.0  0.71611  0.90720  0.44655  1.0000
  Fe  Fe261     1.0  0.77778  0.95523  0.43042  1.0000
  S   S524      1.0  0.80511  0.95798  0.45245  1.0000
  Fe  Fe262     1.0  0.75744  0.95101  0.37637  1.0000
  S   S525      1.0  0.75236  0.94499  0.33204  1.0000
  S   S526      1.0  0.75129  0.95467  0.45472  1.0000
  S   S527      1.0  0.72932  0.95032  0.39783  1.0000
  Fe  Fe263     1.0  0.71426  0.80546  0.18931  1.0000
  S   S528      1.0  0.73813  0.83197  0.18747  1.0000
  S   S529      1.0  0.70796  0.78586  0.22535  1.0000
  S   S530      1.0  0.71118  0.78263  0.16091  1.0000
  Fe  Fe264     1.0  0.76437  0.97764  0.14202  1.0000
  S   S531      1.0  0.79496  0.97678  0.14365  1.0000
  H   H1590     1.0  0.74891  0.76693  0.34281  1.0000
  Fe  Fe265     1.0  0.74989  0.93555  0.15124  1.0000
  S   S532      1.0  0.77990  0.93318  0.15255  1.0000
  S   S533      1.0  0.72573  0.90937  0.15576  1.0000
  Fe  Fe266     1.0  0.78463  0.95699  0.17906  1.0000
  S   S534      1.0  0.79949  0.95941  0.21902  1.0000
  Fe  Fe267     1.0  0.78573  0.95314  0.11702  1.0000
  S   S535      1.0  0.80003  0.94841  0.07776  1.0000
  S   S536      1.0  0.75437  0.95895  0.17881  1.0000
  S   S537      1.0  0.75542  0.95448  0.11440  1.0000
  C   C1579     1.0  0.73478  0.85301  0.17551  1.0000
  C   C1580     1.0  0.75037  0.86858  0.17483  1.0000
  C   C1581     1.0  0.74796  0.88579  0.16801  1.0000
  C   C1582     1.0  0.72988  0.88772  0.16179  1.0000
  C   C1583     1.0  0.71436  0.87209  0.16181  1.0000
  C   C1584     1.0  0.71681  0.85485  0.16845  1.0000
  H   H1591     1.0  0.76435  0.86738  0.18016  1.0000
  H   H1592     1.0  0.76005  0.89755  0.16838  1.0000
  H   H1593     1.0  0.70032  0.87333  0.15691  1.0000
  H   H1594     1.0  0.70469  0.84306  0.16843  1.0000
  C   C1585     1.0  0.76608  0.94913  0.30111  1.0000
  C   C1586     1.0  0.75641  0.94491  0.27713  1.0000
  C   C1587     1.0  0.76644  0.94783  0.25199  1.0000
  C   C1588     1.0  0.78640  0.95484  0.25046  1.0000
  C   C1589     1.0  0.79614  0.95892  0.27445  1.0000
  C   C1590     1.0  0.78604  0.95622  0.29964  1.0000
  H   H1595     1.0  0.74098  0.93939  0.27802  1.0000
  H   H1596     1.0  0.75871  0.94459  0.23383  1.0000
  H   H1597     1.0  0.81158  0.96428  0.27356  1.0000
  H   H1598     1.0  0.79371  0.95943  0.31789  1.0000
  H   H1599     1.0  0.69720  0.80984  0.26923  1.0000
  H   H1600     1.0  0.73369  0.76991  0.38702  1.0000
  C   C1591     1.0  0.78051  0.96670  0.04488  1.0000
  C   C1592     1.0  0.79142  0.95420  0.04668  1.0000
  C   C1593     1.0  0.79666  0.94699  0.02301  1.0000
  H   H1601     1.0  0.77557  0.90122  0.07160  1.0000
  H   H1602     1.0  0.75460  0.92073  0.08333  1.0000
  H   H1603     1.0  0.77655  0.97252  0.06288  1.0000
  H   H1604     1.0  0.80519  0.93741  0.02417  1.0000
  C   C1594     1.0  0.77589  0.99459  0.25038  1.0000
  C   C1595     1.0  0.73973  0.85896  0.46509  1.0000
  C   C1596     1.0  0.75240  0.87582  0.45776  1.0000
  C   C1597     1.0  0.74534  0.89089  0.45268  1.0000
  C   C1598     1.0  0.72561  0.88909  0.45495  1.0000
  C   C1599     1.0  0.71307  0.87242  0.46337  1.0000
  S   S538      1.0  0.74845  0.83987  0.46949  1.0000
  H   H1605     1.0  0.76759  0.87709  0.45521  1.0000
  H   H1606     1.0  0.75515  0.90378  0.44677  1.0000
  C   C1600     1.0  0.78278  0.78845  0.40258  1.0000
  C   C1601     1.0  0.79871  0.75959  0.40830  1.0000
  H   H1607     1.0  0.69622  0.89389  0.39507  1.0000
  C   C1602     1.0  0.67317  0.79113  0.29020  1.0000
  C   C1603     1.0  0.74982  0.75793  0.35960  1.0000
  C   C1604     1.0  0.72013  0.85741  0.46844  1.0000
  H   H1608     1.0  0.71346  0.82113  0.31082  1.0000
  C   C1605     1.0  0.78084  0.77836  0.42691  1.0000
  H   H1609     1.0  0.74252  0.85141  0.24551  1.0000
  C   C1606     1.0  0.74820  0.91860  0.01606  1.0000
  C   C1607     1.0  0.71421  0.85765  0.39630  1.0000
  C   C1608     1.0  0.68123  0.98987  0.47892  1.0000
  H   H1610     1.0  0.66818  0.78457  0.35869  1.0000
  C   C1609     1.0  0.71629  0.99493  0.44978  1.0000
  C   C1610     1.0  0.70535  0.97747  0.45771  1.0000
  C   C1611     1.0  0.78465  0.99947  0.47021  1.0000
  H   H1611     1.0  0.71032  0.96588  0.45255  1.0000
  H   H1612     1.0  0.70327  0.88124  0.22299  1.0000
  H   H1613     1.0  0.76820  0.98294  0.01828  1.0000
  C   C1612     1.0  0.76091  0.99616  0.23437  1.0000
  H   H1614     1.0  0.71039  0.84468  0.47513  1.0000
  H   H1615     1.0  0.70129  0.84681  0.40103  1.0000
  C   C1613     1.0  0.69090  0.80419  0.28862  1.0000
  C   C1614     1.0  0.72954  0.88865  0.38549  1.0000
  H   H1616     1.0  0.73244  0.83963  0.39788  1.0000
  H   H1617     1.0  0.80831  0.76545  0.36662  1.0000
  C   C1615     1.0  0.66783  0.82018  0.02669  1.0000
  C   C1616     1.0  0.74849  0.86722  0.38800  1.0000
  S   S539      1.0  0.71856  0.78838  0.48015  1.0000
  H   H1618     1.0  0.77296  0.98933  0.27104  1.0000
  H   H1619     1.0  0.72926  0.90976  0.22173  1.0000
  C   C1617     1.0  0.74738  0.88491  0.38323  1.0000
  C   C1618     1.0  0.79273  0.78380  0.38078  1.0000
  C   C1619     1.0  0.73181  0.85348  0.39443  1.0000
  N   N134      1.0  0.71329  0.87511  0.39229  1.0000
  S   S540      1.0  0.66803  0.78649  0.11863  1.0000
  H   H1620     1.0  0.72884  0.90250  0.38213  1.0000
  C   C1620     1.0  0.80091  0.76939  0.38367  1.0000
  H   H1621     1.0  0.76223  0.86413  0.38671  1.0000
  C   C1621     1.0  0.68789  0.97496  0.47237  1.0000
  N   N135      1.0  0.79833  0.00498  0.21289  1.0000
  N   N136      1.0  0.75939  0.90738  0.00986  1.0000
  N   N137      1.0  0.72132  0.86471  0.23478  1.0000
  C   C1622     1.0  0.73944  0.86425  0.24106  1.0000
  C   C1623     1.0  0.71753  0.88086  0.22846  1.0000
  C   C1624     1.0  0.75441  0.88023  0.24075  1.0000
  C   C1625     1.0  0.73216  0.89708  0.22786  1.0000
  C   C1626     1.0  0.75071  0.89674  0.23407  1.0000
  C   C1627     1.0  0.70575  0.84787  0.23580  1.0000
  H   H1622     1.0  0.69471  0.84858  0.22111  1.0000
  Fe  Fe268     1.0  0.72155  0.77545  0.44099  1.0000
  Fe  Fe269     1.0  0.68925  0.78756  0.46654  1.0000
  H   H1623     1.0  0.68570  0.87345  0.37779  1.0000
  C   C1628     1.0  0.79149  0.95253  0.99773  1.0000
  H   H1624     1.0  0.96978  0.77866  0.22645  1.0000
  Fe  Fe270     1.0  0.70367  0.80028  0.40798  1.0000
  C   C1629     1.0  0.77578  0.97259  0.01956  1.0000
  S   S541      1.0  0.75864  0.00534  0.13486  1.0000
  C   C1630     1.0  0.67823  0.76215  0.03862  1.0000
  S   S542      1.0  0.69813  0.81476  0.44451  1.0000
  Fe  Fe271     1.0  0.70038  0.76312  0.19678  1.0000
  C   C1631     1.0  0.69204  0.80351  0.33765  1.0000
  S   S543      1.0  0.68408  0.80734  0.18721  1.0000
  H   H1625     1.0  0.76871  0.99493  0.47204  1.0000
  H   H1626     1.0  0.77601  0.79939  0.40042  1.0000
  H   H1627     1.0  0.76225  0.90919  0.23317  1.0000
  C   C1632     1.0  0.75581  0.91690  0.06272  1.0000
  H   H1628     1.0  0.71123  0.83620  0.23032  1.0000
  H   H1629     1.0  0.77859  0.89281  0.02443  1.0000
  Fe  Fe272     1.0  0.68077  0.78419  0.15938  1.0000
  C   C1633     1.0  0.69465  0.87908  0.39479  1.0000
  C   C1634     1.0  0.67467  0.78992  0.33924  1.0000
  C   C1635     1.0  0.70010  0.81055  0.31223  1.0000
  C   C1636     1.0  0.79462  0.99905  0.23922  1.0000
  C   C1637     1.0  0.76924  0.90123  0.02941  1.0000
  H   H1630     1.0  0.81976  0.99638  0.47861  1.0000
  H   H1631     1.0  0.78920  0.99045  0.45593  1.0000
  H   H1632     1.0  0.78059  0.91517  0.48425  1.0000
  N   N138      1.0  0.78840  0.76388  0.42932  1.0000
  H   H1633     1.0  0.75330  0.00335  0.19475  1.0000
  H   H1634     1.0  0.72786  0.99935  0.09760  1.0000
  S   S544      1.0  0.66978  0.76355  0.19344  1.0000
  H   H1635     1.0  0.69323  0.80127  0.07201  1.0000
  H   H1636     1.0  0.98052  0.77651  0.27275  1.0000
  S   S545      1.0  0.73825  0.99851  0.43164  1.0000
  C   C1638     1.0  0.97481  0.76717  0.23280  1.0000
  C   C1639     1.0  0.76483  0.00229  0.20757  1.0000
  H   H1637     1.0  0.79373  0.79105  0.36148  1.0000
  H   H1638     1.0  0.69646  0.78867  0.02724  1.0000
  S   S546      1.0  0.69141  0.77275  0.42854  1.0000
  S   S547      1.0  0.70312  0.81362  0.36662  1.0000
  H   H1639     1.0  0.69783  0.87104  0.46564  1.0000
  C   C1640     1.0  0.98073  0.76588  0.25914  1.0000
  C   C1641     1.0  0.82800  0.98957  0.01772  1.0000
  C   C1642     1.0  0.68804  0.78010  0.04336  1.0000
  H   H1640     1.0  0.68715  0.87309  0.41409  1.0000
  C   C1643     1.0  0.82605  0.99341  0.04464  1.0000
  H   H1641     1.0  0.67716  0.82960  0.01208  1.0000
  H   H1642     1.0  0.77249  0.78165  0.44348  1.0000
  H   H1643     1.0  0.74628  0.99234  0.24262  1.0000
  C   C1644     1.0  0.74126  0.75968  0.38467  1.0000
  C   C1645     1.0  0.78142  0.96570  0.99584  1.0000
  H   H1644     1.0  0.74090  0.92397  0.00045  1.0000
  C   C1646     1.0  0.67505  0.77634  0.08991  1.0000
  H   H1645     1.0  0.71585  0.00452  0.05255  1.0000
  S   S548      1.0  0.69278  0.00022  0.00470  1.0000
  H   H1646     1.0  0.79700  0.75953  0.46874  1.0000
  H   H1647     1.0  0.76017  0.75720  0.26777  1.0000
  H   H1648     1.0  0.67323  0.83909  0.05853  1.0000
  H   H1649     1.0  0.72201  0.98348  0.98959  1.0000
  H   H1650     1.0  0.82025  0.99538  0.19479  1.0000
  S   S549      1.0  0.96816  0.75672  0.18149  1.0000
  H   H1651     1.0  0.72738  0.93098  0.78954  1.0000
  C   C1647     1.0  0.76146  0.90267  0.98188  1.0000
  H   H1652     1.0  0.70957  0.84056  0.84107  1.0000
  H   H1653     1.0  0.73271  0.76798  0.88719  1.0000
  C   C1648     1.0  0.82037  0.99649  0.52166  1.0000
  Fe  Fe273     1.0  0.69660  0.80311  0.93530  1.0000
  C   C1649     1.0  0.76988  0.90874  0.57386  1.0000
  S   S550      1.0  0.68965  0.82978  0.93660  1.0000
  Fe  Fe274     1.0  0.72750  0.78354  0.93335  1.0000
  H   H1654     1.0  0.68866  0.78263  0.58822  1.0000
  C   C1650     1.0  0.81179  0.99736  0.49705  1.0000
  H   H1655     1.0  0.75961  0.83675  0.88241  1.0000
  H   H1656     1.0  0.96545  0.77268  0.71992  1.0000
  S   S551      1.0  0.71289  0.79513  0.90118  1.0000
  S   S552      1.0  0.71369  0.79448  0.96743  1.0000
  Fe  Fe275     1.0  0.72695  0.94256  0.91007  1.0000
  S   S553      1.0  0.74858  0.96894  0.90036  1.0000
  S   S554      1.0  0.69644  0.94325  0.91760  1.0000
  Fe  Fe276     1.0  0.75705  0.92194  0.90674  1.0000
  S   S555      1.0  0.78109  0.94703  0.89653  1.0000
  S   S556      1.0  0.76347  0.89507  0.91302  1.0000
  Fe  Fe277     1.0  0.76690  0.95892  0.92956  1.0000
  S   S557      1.0  0.77908  0.97622  0.96439  1.0000
  Fe  Fe278     1.0  0.76012  0.95423  0.86820  1.0000
  S   S558      1.0  0.76113  0.96631  0.82531  1.0000
  S   S559      1.0  0.74432  0.93342  0.94112  1.0000
  S   S560      1.0  0.73710  0.92821  0.87659  1.0000
  Fe  Fe279     1.0  0.71397  0.80310  0.67472  1.0000
  S   S561      1.0  0.73847  0.82781  0.66100  1.0000
  S   S562      1.0  0.71189  0.78480  0.71200  1.0000
  S   S563      1.0  0.70400  0.77916  0.64851  1.0000
  Fe  Fe280     1.0  0.77315  0.97629  0.63234  1.0000
  S   S564      1.0  0.80317  0.97490  0.63853  1.0000
  H   H1657     1.0  0.69082  0.99222  0.53547  1.0000
  Fe  Fe281     1.0  0.75703  0.93460  0.64201  1.0000
  S   S565      1.0  0.78634  0.93134  0.64781  1.0000
  S   S566      1.0  0.73189  0.90930  0.64770  1.0000
  Fe  Fe282     1.0  0.79028  0.95552  0.67344  1.0000
  S   S567      1.0  0.80262  0.95493  0.71482  1.0000
  Fe  Fe283     1.0  0.79502  0.95102  0.61226  1.0000
  S   S568      1.0  0.81411  0.94676  0.57791  1.0000
  S   S569      1.0  0.76058  0.95823  0.66895  1.0000
  S   S570      1.0  0.76542  0.95299  0.60471  1.0000
  C   C1651     1.0  0.73649  0.85048  0.65824  1.0000
  C   C1652     1.0  0.75268  0.86458  0.64970  1.0000
  C   C1653     1.0  0.75159  0.88263  0.64666  1.0000
  C   C1654     1.0  0.73421  0.88683  0.65189  1.0000
  C   C1655     1.0  0.71804  0.87276  0.66039  1.0000
  C   C1656     1.0  0.71919  0.85476  0.66376  1.0000
  H   H1658     1.0  0.76616  0.86150  0.64540  1.0000
  H   H1659     1.0  0.76419  0.89321  0.64004  1.0000
  H   H1660     1.0  0.70452  0.87578  0.66458  1.0000
  H   H1661     1.0  0.70663  0.84423  0.67055  1.0000
  C   C1657     1.0  0.77278  0.96256  0.79503  1.0000
  C   C1658     1.0  0.76584  0.96707  0.77041  1.0000
  C   C1659     1.0  0.77447  0.96434  0.74576  1.0000
  C   C1660     1.0  0.79062  0.95764  0.74541  1.0000
  C   C1661     1.0  0.79767  0.95325  0.77001  1.0000
  C   C1662     1.0  0.78867  0.95548  0.79471  1.0000
  H   H1662     1.0  0.75358  0.97258  0.77045  1.0000
  H   H1663     1.0  0.76875  0.96768  0.72711  1.0000
  H   H1664     1.0  0.81021  0.94815  0.77002  1.0000
  H   H1665     1.0  0.79428  0.95210  0.81348  1.0000
  H   H1666     1.0  0.79541  0.99217  0.70526  1.0000
  C   C1663     1.0  0.78093  0.90845  0.55044  1.0000
  C   C1664     1.0  0.79286  0.95188  0.53376  1.0000
  C   C1665     1.0  0.81036  0.95027  0.54348  1.0000
  C   C1666     1.0  0.82551  0.95073  0.52517  1.0000
  H   H1667     1.0  0.70454  0.83980  0.61487  1.0000
  C   C1667     1.0  0.74268  0.90789  0.54673  1.0000
  H   H1668     1.0  0.78101  0.95144  0.54770  1.0000
  H   H1669     1.0  0.83904  0.94943  0.53241  1.0000
  C   C1668     1.0  0.96689  0.76020  0.72926  1.0000
  C   C1669     1.0  0.71023  0.84799  0.93105  1.0000
  C   C1670     1.0  0.70836  0.86551  0.92635  1.0000
  C   C1671     1.0  0.72469  0.88009  0.92105  1.0000
  C   C1672     1.0  0.74293  0.87717  0.92062  1.0000
  C   C1673     1.0  0.74484  0.85973  0.92593  1.0000
  C   C1674     1.0  0.72850  0.84512  0.93096  1.0000
  H   H1670     1.0  0.69425  0.86778  0.92644  1.0000
  H   H1671     1.0  0.72312  0.89354  0.91705  1.0000
  H   H1672     1.0  0.75895  0.85747  0.92585  1.0000
  H   H1673     1.0  0.73005  0.83164  0.93474  1.0000
  H   H1674     1.0  0.67097  0.78557  0.85612  1.0000
  C   C1675     1.0  0.67510  0.82451  0.54486  1.0000
  S   S571      1.0  0.75860  0.78455  0.92758  1.0000
  C   C1676     1.0  0.69870  0.97960  0.87400  1.0000
  C   C1677     1.0  0.74672  0.76631  0.88225  1.0000
  C   C1678     1.0  0.79140  0.99894  0.54451  1.0000
  H   H1675     1.0  0.71563  0.82159  0.61125  1.0000
  H   H1676     1.0  0.71565  0.92952  0.74292  1.0000
  C   C1679     1.0  0.97234  0.75994  0.75594  1.0000
  H   H1677     1.0  0.69957  0.98474  0.85278  1.0000
  C   C1680     1.0  0.75125  0.92052  0.77910  1.0000
  C   C1681     1.0  0.69486  0.95817  0.94296  1.0000
  C   C1682     1.0  0.71067  0.96536  0.95843  1.0000
  C   C1683     1.0  0.79066  0.95378  0.50578  1.0000
  H   H1678     1.0  0.72374  0.96131  0.95548  1.0000
  C   C1684     1.0  0.67977  0.82502  0.57190  1.0000
  C   C1685     1.0  0.70800  0.82609  0.53252  1.0000
  H   H1679     1.0  0.74611  0.78803  0.82460  1.0000
  H   H1680     1.0  0.78307  0.89338  0.49617  1.0000
  C   C1686     1.0  0.70243  0.82593  0.60757  1.0000
  H   H1681     1.0  0.74192  0.90866  0.59002  1.0000
  C   C1687     1.0  0.80610  0.95448  0.48759  1.0000
  C   C1688     1.0  0.74860  0.83150  0.86824  1.0000
  H   H1682     1.0  0.69230  0.78224  0.53802  1.0000
  H   H1683     1.0  0.78331  0.99961  0.56299  1.0000
  C   C1689     1.0  0.68169  0.76551  0.83656  1.0000
  H   H1684     1.0  0.73550  0.85348  0.87196  1.0000
  C   C1690     1.0  0.82347  0.95303  0.49755  1.0000
  H   H1685     1.0  0.79629  0.94742  0.97960  1.0000
  H   H1686     1.0  0.82153  0.99553  0.97703  1.0000
  C   C1691     1.0  0.74752  0.81506  0.85622  1.0000
  C   C1692     1.0  0.68371  0.76822  0.78745  1.0000
  Fe  Fe284     1.0  0.68214  0.78794  0.71720  1.0000
  C   C1693     1.0  0.72048  0.83362  0.84509  1.0000
  H   H1687     1.0  0.68609  0.96760  0.87728  1.0000
  C   C1694     1.0  0.81004  0.99718  0.54551  1.0000
  C   C1695     1.0  0.75417  0.90772  0.52370  1.0000
  C   C1696     1.0  0.71022  0.99918  0.91149  1.0000
  H   H1688     1.0  0.82943  0.99284  0.69861  1.0000
  Fe  Fe285     1.0  0.69079  0.76841  0.90492  1.0000
  C   C1697     1.0  0.67803  0.96360  0.94691  1.0000
  C   C1698     1.0  0.73500  0.84083  0.86254  1.0000
  H   H1689     1.0  0.75772  0.80755  0.86153  1.0000
  H   H1690     1.0  0.74739  0.89942  0.97218  1.0000
  H   H1691     1.0  0.72189  0.99295  0.91373  1.0000
  Fe  Fe286     1.0  0.69078  0.76828  0.96741  1.0000
  H   H1692     1.0  0.68721  0.76333  0.76837  1.0000
  C   C1699     1.0  0.78324  0.99972  0.51953  1.0000
  C   C1700     1.0  0.67712  0.97640  0.96604  1.0000
  H   H1693     1.0  0.80024  0.91421  0.50433  1.0000
  H   H1694     1.0  0.70843  0.81163  0.81997  1.0000
  C   C1701     1.0  0.78480  0.90764  0.50145  1.0000
  H   H1695     1.0  0.83476  0.99483  0.52226  1.0000
  H   H1696     1.0  0.97533  0.77229  0.76680  1.0000
  H   H1697     1.0  0.72671  0.82738  0.56542  1.0000
  C   C1702     1.0  0.78006  0.77061  0.89230  1.0000
  S   S572      1.0  0.68492  0.80737  0.68141  1.0000
  C   C1703     1.0  0.67850  0.78159  0.54754  1.0000
  C   C1704     1.0  0.90892  0.76388  0.80166  1.0000
  C   C1705     1.0  0.67644  0.78184  0.57594  1.0000
  C   C1706     1.0  0.73178  0.79055  0.82751  1.0000
  H   H1698     1.0  0.78077  0.91601  0.71034  1.0000
  H   H1699     1.0  0.72772  0.90766  0.54500  1.0000
  C   C1707     1.0  0.71988  0.81722  0.83330  1.0000
  H   H1700     1.0  0.71913  0.82636  0.51726  1.0000
  H   H1701     1.0  0.75657  0.92138  0.79928  1.0000
  N   N139      1.0  0.77310  0.90821  0.52576  1.0000
  N   N140      1.0  0.69802  0.82568  0.57906  1.0000
  N   N141      1.0  0.79333  0.99861  0.49626  1.0000
  H   H1702     1.0  0.76472  0.89338  0.71516  1.0000
  H   H1703     1.0  0.81643  0.99615  0.56472  1.0000
  C   C1708     1.0  0.76208  0.77325  0.89864  1.0000
  H   H1704     1.0  0.72273  0.77974  0.84138  1.0000
  H   H1705     1.0  0.75961  0.90928  0.69129  1.0000
  H   H1706     1.0  0.74788  0.90731  0.50416  1.0000
  H   H1707     1.0  0.72509  0.78960  0.80764  1.0000
  H   H1708     1.0  0.69057  0.81646  0.61977  1.0000
  C   C1709     1.0  0.76550  0.90790  0.71131  1.0000
  H   H1709     1.0  0.71166  0.97485  0.87754  1.0000
  H   H1710     1.0  0.73342  0.91870  0.70678  1.0000
  C   C1710     1.0  0.72837  0.92527  0.74744  1.0000
  C   C1711     1.0  0.73482  0.92594  0.77359  1.0000
  H   H1711     1.0  0.79198  0.77594  0.90497  1.0000
  C   C1712     1.0  0.73856  0.91923  0.72707  1.0000
  C   C1713     1.0  0.76122  0.91477  0.75822  1.0000
  C   C1714     1.0  0.71217  0.82658  0.55978  1.0000
  N   N142      1.0  0.75483  0.91420  0.73263  1.0000
  H   H1712     1.0  0.77433  0.91113  0.76249  1.0000
  N   N143      1.0  0.73339  0.80825  0.83877  1.0000
  H   H1713     1.0  0.91864  0.77089  0.81711  1.0000
  C   C1715     1.0  0.69299  0.98360  0.98145  1.0000
  C   C1716     1.0  0.68633  0.75935  0.81168  1.0000
  H   H1714     1.0  0.79597  0.90896  0.55217  1.0000
  C   C1717     1.0  0.70968  0.97794  0.97776  1.0000
  C   C1718     1.0  0.68197  0.00116  0.89012  1.0000
  S   S573      1.0  0.67279  0.77732  0.93649  1.0000
  Fe  Fe287     1.0  0.69781  0.76139  0.68671  1.0000
  H   H1715     1.0  0.76890  0.00291  0.68534  1.0000
  N   N144      1.0  0.69704  0.99372  0.89226  1.0000
  C   C1719     1.0  0.75062  0.90842  0.57196  1.0000
  H   H1716     1.0  0.77633  0.90943  0.59330  1.0000
  H   H1717     1.0  0.77720  0.95503  0.49841  1.0000
  H   H1718     1.0  0.91192  0.77223  0.78259  1.0000
  H   H1719     1.0  0.77153  0.91414  0.97028  1.0000
  S   S574      1.0  0.76840  0.00400  0.62277  1.0000
  C   C1720     1.0  0.68928  0.82484  0.52511  1.0000
  H   H1720     1.0  0.89400  0.76280  0.80923  1.0000
  H   H1721     1.0  0.76874  0.00107  0.51891  1.0000
  H   H1722     1.0  0.67054  0.98349  0.58791  1.0000
  C   C1721     1.0  0.82437  0.00403  0.69072  1.0000
  H   H1723     1.0  0.76695  0.89054  0.98021  1.0000
  Fe  Fe288     1.0  0.67498  0.78299  0.65667  1.0000
  C   C1722     1.0  0.67469  0.78077  0.83707  1.0000
  C   C1723     1.0  0.78268  0.76110  0.86955  1.0000
  C   C1724     1.0  0.67610  0.78315  0.78796  1.0000
  H   H1724     1.0  0.68558  0.82364  0.50418  1.0000
  H   H1725     1.0  0.79666  0.75933  0.86449  1.0000
  H   H1726     1.0  0.67651  0.80387  0.98462  1.0000
  C   C1725     1.0  0.67167  0.78938  0.81286  1.0000
  H   H1727     1.0  0.67139  0.99669  0.87509  1.0000
  C   C1726     1.0  0.74939  0.75707  0.85936  1.0000
  S   S575      1.0  0.67153  0.79413  0.75810  1.0000
  H   H1728     1.0  0.66853  0.82414  0.58722  1.0000
  S   S576      1.0  0.66802  0.76407  0.69330  1.0000
  C   C1727     1.0  0.69246  0.00541  0.54377  1.0000
  C   C1728     1.0  0.80506  0.00367  0.69437  1.0000
