data_image0
_chemical_formula_structural       HCHFeSHFeSH2Fe2SNCSHC2HSH2SH2C2H4SCFeC2SHSHCFeCHC2HFeCHSH2CHCHCSC4SCHSCH3SC2H2CHC4HSCHSC2HCSNC2HCNHCFeCFe2H5C2H3C2HS2HC2HCSFeCFeSC2SC2H2CHSHC3SHCSCNC4H4SFeS2FeHSFeHCS3HSHNC5H3CH4C4H4CSHFeC3HCHCFeC2H2SCHNHCHCH11FeHC7HFeCNH2C2HC2NCH2CSHFeSFeSCHSCHFeHSHCSCHCSFeNFeSH3CFeSHC2HFeCH3CH3FeC2SH3CNSHC3SH2C6S2H2CH2FeCSNC3FeCHCHCFeH4CH2SCSH3FeSCH3CH3CFeS2FeS2FeSCS2HNH2CHC6H4C2HNHNCSC2HCH3CHFeC2SHC7H2C5H3CHCHCH2C2H3CNHCHC4HCHCSCH3C3HCH4CH2C2H2CS2CH2NCHCSHC2SHSNC2SH4C5H3SCH2CFeS2CFeSFeSHC3SH4FeSHFeCSC4H2FeCHNHS2CH2CHCNCH2CFeHCHCHFeC2HC2NSC5HCSHCHCSHCH2CHCH2C3H3CHCHCHCH2C2H2CHC3S2H2S2C2HSHSFeS2HC2SFeH2C3HC2H2C5H3CFeC2H3C2HC2H2CSH2FeHC2FeCSCFeCHNC2HSCSCH2NC3H2C3S2H4NCH3CH2CH2SC2H2CHSCH2CNHCH2C2H2C2FeHNHFeS2FeS2FeSFeS3C2SHFeHS2HSH2SFeSHCH2CHSHCHFe3H7C2H2SC6H4C6H4C3HCSHNH3CSC3HCHCSHCHC2HSC2H3FeCH2SC6HSH2C6NC2H2CSHCH3CHCHC2H3CNCH3C2HCNC4FeHSHCHNC6H3C2SHCHCH2FeH2CNSHSC2FeHCNCHCHCH5CHCHFeH2C4HNC2H4SFeSFeS2Fe2S3C3H2CHC2H2CSCHCH3C2H2S2H2C2SFeSHSFeSFeSC3H2CHC2SC6H4C2H3SHCHC2NSCNC3H3CH3CSNCHC2NC6H8NHC2H3SH2C2HC2HC2HC2HCH3FeC2H3C4FeCSC2SH2SCHNCHCFeCHFeC2NH2SCH2C2H2CHCHC2HFeHS2H2CFeS2FeCFeS4HCFeSCHSFeSFeS3FeSHSC2H2SC4H2CHFeCHC2H2CHC2NSHC7H5C2H4FeSFeC5HFeH3CNCH5C2SHCHCHFeH2C2HCNC3H3SHCSCH4C2HC2HC2SC3H2NHC4H2C2Fe2C2H3SCH3CHFeSCH2CH2CHCHC2SC2H2C3NHC3HSC3SCH6C2H4C2SCHC4HNCH3CH5C3SCFeSCSFe2SH2CHCH2CH3CH2SCS2HNHSHFeHCSHSCH4CFeCH2SCH2C2HSCH2CH3NH4C2SC2
_chemical_formula_sum              "H576 C576 Fe96 S192 N48"
_cell_length_a       44.1306
_cell_length_b       44.0812
_cell_length_c       49.2657
_cell_angle_alpha    89.9166
_cell_angle_beta     89.8798
_cell_angle_gamma    119.366

_space_group_name_H-M_alt    "P 1"
_space_group_IT_number       1

loop_
  _space_group_symop_operation_xyz
  'x, y, z'

loop_
  _atom_site_type_symbol
  _atom_site_label
  _atom_site_symmetry_multiplicity
  _atom_site_fract_x
  _atom_site_fract_y
  _atom_site_fract_z
  _atom_site_occupancy
  H   H1        1.0  0.50269  0.36431  0.03019  1.0000
  C   C1        1.0  0.09547  0.46862  0.31668  1.0000
  H   H2        1.0  0.16775  0.42095  0.30441  1.0000
  Fe  Fe1       1.0  0.48818  0.47763  0.23959  1.0000
  S   S1        1.0  0.43041  0.44276  0.23892  1.0000
  H   H3        1.0  0.19749  0.47556  0.11772  1.0000
  Fe  Fe2       1.0  0.42962  0.48649  0.21608  1.0000
  S   S2        1.0  0.39459  0.47742  0.18003  1.0000
  H   H4        1.0  0.09779  0.46780  0.27316  1.0000
  H   H5        1.0  0.51664  0.43107  0.30037  1.0000
  Fe  Fe3       1.0  0.09703  0.43034  0.22064  1.0000
  Fe  Fe4       1.0  0.42983  0.50348  0.02808  1.0000
  S   S3        1.0  0.40735  0.38530  0.00570  1.0000
  N   N1        1.0  0.22363  0.49169  0.07948  1.0000
  C   C2        1.0  0.09376  0.45299  0.29149  1.0000
  S   S4        1.0  0.50140  0.31627  0.27630  1.0000
  H   H6        1.0  0.06238  0.40608  0.01073  1.0000
  C   C3        1.0  0.13054  0.46204  0.08887  1.0000
  C   C4        1.0  0.47254  0.46101  0.11666  1.0000
  H   H7        1.0  0.40734  0.40827  0.17337  1.0000
  S   S5        1.0  0.08919  0.39963  0.25922  1.0000
  H   H8        1.0  0.13101  0.47649  0.10651  1.0000
  H   H9        1.0  0.03657  0.43674  0.12098  1.0000
  S   S6        1.0  0.12459  0.41030  0.12373  1.0000
  H   H10       1.0  0.51743  0.32444  0.19921  1.0000
  H   H11       1.0  0.06198  0.37024  0.02787  1.0000
  C   C5        1.0  0.46075  0.44452  0.16307  1.0000
  C   C6        1.0  0.03942  0.39490  0.10067  1.0000
  H   H12       1.0  0.19584  0.51361  0.16182  1.0000
  H   H13       1.0  0.38969  0.49003  0.08183  1.0000
  H   H14       1.0  0.46945  0.44692  0.18395  1.0000
  H   H15       1.0  0.25036  0.50154  0.04159  1.0000
  S   S7        1.0  0.38101  0.45271  0.03372  1.0000
  C   C7        1.0  0.04240  0.44460  0.07764  1.0000
  Fe  Fe5       1.0  0.43115  0.47159  0.27685  1.0000
  C   C8        1.0  0.51703  0.41813  0.23892  1.0000
  C   C9        1.0  0.12845  0.42950  0.09158  1.0000
  S   S8        1.0  0.45326  0.48359  0.99728  1.0000
  H   H16       1.0  0.07939  0.37405  0.31377  1.0000
  S   S9        1.0  0.13200  0.47595  0.00781  1.0000
  H   H17       1.0  0.17285  0.45136  0.26103  1.0000
  C   C10       1.0  0.44522  0.39433  0.02375  1.0000
  Fe  Fe6       1.0  0.13462  0.49971  0.19209  1.0000
  C   C11       1.0  0.49183  0.38131  0.03268  1.0000
  H   H18       1.0  0.52315  0.06474  0.17290  1.0000
  C   C12       1.0  0.43768  0.43889  0.11002  1.0000
  C   C13       1.0  0.46342  0.42542  0.03822  1.0000
  H   H19       1.0  0.13338  0.50129  0.06122  1.0000
  Fe  Fe7       1.0  0.40289  0.43375  0.00101  1.0000
  C   C14       1.0  0.08380  0.40045  0.31448  1.0000
  H   H20       1.0  0.45250  0.44244  0.04066  1.0000
  S   S10       1.0  0.14640  0.45591  0.19624  1.0000
  H   H21       1.0  0.22614  0.40524  0.08073  1.0000
  H   H22       1.0  0.19845  0.42018  0.11873  1.0000
  C   C15       1.0  0.04257  0.38184  0.07557  1.0000
  H   H23       1.0  0.24586  0.47252  0.99756  1.0000
  C   C16       1.0  0.22582  0.42970  0.08056  1.0000
  H   H24       1.0  0.44476  0.34742  0.01096  1.0000
  C   C17       1.0  0.13035  0.41230  0.06828  1.0000
  S   S11       1.0  0.06429  0.40340  0.18437  1.0000
  C   C18       1.0  0.13256  0.47642  0.06309  1.0000
  C   C19       1.0  0.51076  0.41323  0.04599  1.0000
  C   C20       1.0  0.18072  0.49856  0.28030  1.0000
  C   C21       1.0  0.40637  0.49781  0.09938  1.0000
  S   S12       1.0  0.48933  0.50338  0.27928  1.0000
  C   C22       1.0  0.49615  0.43490  0.04920  1.0000
  H   H25       1.0  0.10047  0.49523  0.31740  1.0000
  S   S13       1.0  0.31114  0.47467  0.00382  1.0000
  C   C23       1.0  0.45895  0.37172  0.02181  1.0000
  H   H26       1.0  0.42883  0.43754  0.08928  1.0000
  H   H27       1.0  0.51066  0.45960  0.05944  1.0000
  H   H28       1.0  0.13452  0.41357  0.02471  1.0000
  S   S14       1.0  0.39706  0.44473  0.31309  1.0000
  C   C24       1.0  0.20999  0.46959  0.10118  1.0000
  C   C25       1.0  0.41412  0.41955  0.13047  1.0000
  H   H29       1.0  0.38682  0.40306  0.12572  1.0000
  H   H30       1.0  0.36445  0.46741  0.12721  1.0000
  C   C26       1.0  0.39203  0.48536  0.12519  1.0000
  H   H31       1.0  0.03116  0.41645  0.25401  1.0000
  C   C27       1.0  0.04784  0.38519  0.02593  1.0000
  C   C28       1.0  0.50678  0.35446  0.26036  1.0000
  C   C29       1.0  0.48068  0.36372  0.26270  1.0000
  C   C30       1.0  0.48582  0.39556  0.25210  1.0000
  H   H32       1.0  0.37085  0.49931  0.30548  1.0000
  S   S15       1.0  0.42398  0.51145  0.25384  1.0000
  C   C31       1.0  0.21057  0.43816  0.10193  1.0000
  H   H33       1.0  0.46587  0.40280  0.25456  1.0000
  S   S16       1.0  0.10335  0.48014  0.15396  1.0000
  C   C32       1.0  0.13276  0.42688  0.04245  1.0000
  C   C33       1.0  0.23913  0.48385  0.05864  1.0000
  H   H34       1.0  0.12980  0.38757  0.07020  1.0000
  C   C34       1.0  0.42565  0.42236  0.15718  1.0000
  S   S17       1.0  0.08726  0.47553  0.21889  1.0000
  N   N2        1.0  0.48371  0.46332  0.14288  1.0000
  C   C35       1.0  0.04569  0.43088  0.05288  1.0000
  C   C36       1.0  0.13285  0.45852  0.03976  1.0000
  H   H35       1.0  0.52272  0.51392  0.15389  1.0000
  C   C37       1.0  0.08841  0.41901  0.29031  1.0000
  N   N3        1.0  0.04580  0.39989  0.05212  1.0000
  H   H36       1.0  0.45673  0.34660  0.27327  1.0000
  C   C38       1.0  0.24047  0.45277  0.05886  1.0000
  Fe  Fe8       1.0  0.11240  0.43473  0.15943  1.0000
  C   C39       1.0  0.41328  0.49533  0.14823  1.0000
  Fe  Fe9       1.0  0.05724  0.45012  0.18110  1.0000
  Fe  Fe10      1.0  0.36014  0.47084  0.99947  1.0000
  H   H37       1.0  0.04888  0.44550  0.03433  1.0000
  H   H38       1.0  0.52114  0.31752  0.13701  1.0000
  H   H39       1.0  0.25260  0.44646  0.04223  1.0000
  H   H40       1.0  0.51237  0.06476  0.22246  1.0000
  H   H41       1.0  0.49038  0.47689  0.10078  1.0000
  C   C40       1.0  0.17559  0.46470  0.28014  1.0000
  C   C41       1.0  0.17250  0.44754  0.30479  1.0000
  H   H42       1.0  0.04316  0.35754  0.07505  1.0000
  H   H43       1.0  0.04288  0.46943  0.07827  1.0000
  H   H44       1.0  0.03795  0.38104  0.11928  1.0000
  C   C42       1.0  0.51995  0.48792  0.14968  1.0000
  C   C43       1.0  0.03907  0.42635  0.10164  1.0000
  H   H45       1.0  0.50196  0.37491  0.32229  1.0000
  S   S18       1.0  0.52555  0.01944  0.32547  1.0000
  S   S19       1.0  0.52544  0.45911  0.22680  1.0000
  H   H46       1.0  0.18237  0.51188  0.26129  1.0000
  C   C44       1.0  0.18282  0.51486  0.30505  1.0000
  C   C45       1.0  0.46291  0.41308  0.44559  1.0000
  H   H47       1.0  0.26149  0.50165  0.58812  1.0000
  C   C46       1.0  0.13558  0.49187  0.56190  1.0000
  S   S20       1.0  0.09964  0.39463  0.41004  1.0000
  Fe  Fe11      1.0  0.07216  0.38925  0.44962  1.0000
  C   C47       1.0  0.05728  0.39361  0.57321  1.0000
  Fe  Fe12      1.0  0.14868  0.41752  0.43454  1.0000
  S   S21       1.0  0.19440  0.41175  0.42154  1.0000
  C   C48       1.0  0.25313  0.50711  0.48038  1.0000
  C   C49       1.0  0.51088  0.38812  0.53506  1.0000
  S   S22       1.0  0.51841  0.09757  0.35887  1.0000
  C   C50       1.0  0.22434  0.41869  0.44757  1.0000
  C   C51       1.0  0.21489  0.41755  0.47481  1.0000
  H   H48       1.0  0.18885  0.41175  0.48008  1.0000
  H   H49       1.0  0.38171  0.50804  0.35468  1.0000
  C   C52       1.0  0.23100  0.50715  0.52600  1.0000
  H   H50       1.0  0.13258  0.51474  0.56023  1.0000
  S   S23       1.0  0.14016  0.49464  0.50651  1.0000
  H   H51       1.0  0.06482  0.44570  0.52268  1.0000
  C   C53       1.0  0.14007  0.47661  0.53843  1.0000
  C   C54       1.0  0.43131  0.49734  0.39601  1.0000
  C   C55       1.0  0.06250  0.36549  0.57925  1.0000
  S   S24       1.0  0.07733  0.44227  0.44781  1.0000
  H   H52       1.0  0.06016  0.33687  0.51476  1.0000
  C   C56       1.0  0.41161  0.46433  0.34507  1.0000
  S   S25       1.0  0.39615  0.51125  0.49693  1.0000
  C   C57       1.0  0.06374  0.34499  0.55818  1.0000
  N   N4        1.0  0.48835  0.40308  0.45494  1.0000
  C   C58       1.0  0.40102  0.46515  0.39364  1.0000
  C   C59       1.0  0.39122  0.44869  0.36821  1.0000
  C   C60       1.0  0.17095  0.44527  0.35463  1.0000
  C   C61       1.0  0.45201  0.51257  0.37300  1.0000
  H   H53       1.0  0.38461  0.45331  0.41117  1.0000
  H   H54       1.0  0.36740  0.42408  0.36637  1.0000
  H   H55       1.0  0.52040  0.36983  0.53517  1.0000
  H   H56       1.0  0.20971  0.50910  0.51685  1.0000
  S   S26       1.0  0.12025  0.40530  0.47441  1.0000
  Fe  Fe13      1.0  0.41371  0.43352  0.50215  1.0000
  S   S27       1.0  0.45618  0.48806  0.49478  1.0000
  S   S28       1.0  0.42587  0.38991  0.50698  1.0000
  Fe  Fe14      1.0  0.35791  0.45476  0.50388  1.0000
  H   H57       1.0  0.05709  0.40977  0.58975  1.0000
  S   S29       1.0  0.30278  0.43927  0.51519  1.0000
  Fe  Fe15      1.0  0.41895  0.49114  0.46556  1.0000
  H   H58       1.0  0.40387  0.39305  0.60157  1.0000
  C   C62       1.0  0.08573  0.41617  0.33967  1.0000
  S   S30       1.0  0.37807  0.43497  0.47019  1.0000
  S   S31       1.0  0.38961  0.44760  0.53622  1.0000
  S   S32       1.0  0.15857  0.47237  0.43206  1.0000
  H   H59       1.0  0.18015  0.50937  0.34848  1.0000
  S   S33       1.0  0.09917  0.47263  0.37205  1.0000
  H   H60       1.0  0.19702  0.45106  0.36201  1.0000
  N   N5        1.0  0.05407  0.40148  0.54686  1.0000
  C   C63       1.0  0.04880  0.43108  0.54056  1.0000
  C   C64       1.0  0.14466  0.44751  0.54082  1.0000
  C   C65       1.0  0.50708  0.36034  0.45823  1.0000
  C   C66       1.0  0.46559  0.40191  0.52313  1.0000
  C   C67       1.0  0.47812  0.37827  0.52394  1.0000
  H   H61       1.0  0.43594  0.39089  0.44741  1.0000
  H   H62       1.0  0.22564  0.49119  0.47373  1.0000
  H   H63       1.0  0.05696  0.44986  0.55766  1.0000
  C   C68       1.0  0.48548  0.43511  0.53426  1.0000
  H   H64       1.0  0.46273  0.35248  0.51552  1.0000
  H   H65       1.0  0.40152  0.43246  0.59667  1.0000
  H   H66       1.0  0.39115  0.49338  0.57891  1.0000
  H   H67       1.0  0.47580  0.45333  0.53409  1.0000
  C   C69       1.0  0.25816  0.42585  0.44099  1.0000
  C   C70       1.0  0.28252  0.43209  0.46160  1.0000
  C   C71       1.0  0.27287  0.43055  0.48883  1.0000
  C   C72       1.0  0.23900  0.42318  0.49538  1.0000
  H   H68       1.0  0.26555  0.42665  0.41994  1.0000
  H   H69       1.0  0.30861  0.43776  0.45641  1.0000
  H   H70       1.0  0.23141  0.42186  0.51644  1.0000
  H   H71       1.0  0.14984  0.43649  0.52309  1.0000
  C   C73       1.0  0.13397  0.47708  0.58750  1.0000
  S   S34       1.0  0.13141  0.42560  0.62108  1.0000
  H   H72       1.0  0.50237  0.33397  0.45511  1.0000
  Fe  Fe16      1.0  0.42940  0.50249  0.52673  1.0000
  C   C74       1.0  0.51814  0.44485  0.54561  1.0000
  C   C75       1.0  0.40861  0.50058  0.59601  1.0000
  C   C76       1.0  0.05949  0.35266  0.53143  1.0000
  H   H73       1.0  0.52197  0.33405  0.33417  1.0000
  C   C77       1.0  0.13720  0.44717  0.58979  1.0000
  H   H74       1.0  0.15826  0.45321  0.37047  1.0000
  C   C78       1.0  0.14339  0.43294  0.56642  1.0000
  Fe  Fe17      1.0  0.12705  0.45894  0.47041  1.0000
  C   C79       1.0  0.49983  0.47337  0.65428  1.0000
  C   C80       1.0  0.44017  0.43232  0.64349  1.0000
  H   H75       1.0  0.26796  0.49604  0.47003  1.0000
  H   H76       1.0  0.36788  0.46944  0.62451  1.0000
  S   S35       1.0  0.09971  0.48631  0.65459  1.0000
  C   C81       1.0  0.51866  0.42737  0.46674  1.0000
  H   H77       1.0  0.08236  0.40163  0.35802  1.0000
  N   N6        1.0  0.44710  0.43941  0.61642  1.0000
  H   H78       1.0  0.06658  0.36034  0.60011  1.0000
  C   C82       1.0  0.41919  0.42123  0.59662  1.0000
  H   H79       1.0  0.46814  0.42196  0.42415  1.0000
  C   C83       1.0  0.05464  0.38115  0.52615  1.0000
  H   H80       1.0  0.42956  0.42324  0.57569  1.0000
  H   H81       1.0  0.48467  0.47079  0.58660  1.0000
  H   H82       1.0  0.15452  0.41662  0.35234  1.0000
  H   H83       1.0  0.52318  0.45348  0.47061  1.0000
  H   H84       1.0  0.45826  0.35060  0.44143  1.0000
  H   H85       1.0  0.45794  0.50873  0.32991  1.0000
  H   H86       1.0  0.14653  0.41015  0.56806  1.0000
  H   H87       1.0  0.13001  0.48870  0.60535  1.0000
  H   H88       1.0  0.46370  0.43424  0.45834  1.0000
  H   H89       1.0  0.06823  0.32339  0.56256  1.0000
  H   H90       1.0  0.41406  0.41406  0.65037  1.0000
  Fe  Fe18      1.0  0.10777  0.44880  0.40979  1.0000
  H   H91       1.0  0.05173  0.38713  0.50533  1.0000
  C   C84       1.0  0.47953  0.46404  0.60794  1.0000
  C   C85       1.0  0.50642  0.48122  0.62670  1.0000
  C   C86       1.0  0.48238  0.36992  0.45059  1.0000
  C   C87       1.0  0.44220  0.49624  0.34759  1.0000
  C   C88       1.0  0.41762  0.49662  0.64434  1.0000
  C   C89       1.0  0.39542  0.48723  0.62190  1.0000
  C   C90       1.0  0.09238  0.45060  0.34088  1.0000
  H   H92       1.0  0.30664  0.50000  0.55860  1.0000
  Fe  Fe19      1.0  0.11503  0.44493  0.65769  1.0000
  C   C91       1.0  0.23271  0.50571  0.55432  1.0000
  N   N7        1.0  0.25566  0.50578  0.51000  1.0000
  H   H93       1.0  0.51629  0.16125  0.35248  1.0000
  H   H94       1.0  0.21276  0.50617  0.56695  1.0000
  C   C92       1.0  0.28314  0.50440  0.52151  1.0000
  C   C93       1.0  0.26006  0.50318  0.56620  1.0000
  H   H95       1.0  0.30299  0.50377  0.50888  1.0000
  C   C94       1.0  0.28549  0.50253  0.54971  1.0000
  C   C95       1.0  0.17949  0.49688  0.32933  1.0000
  N   N8        1.0  0.17405  0.46353  0.32896  1.0000
  C   C96       1.0  0.10084  0.46653  0.81773  1.0000
  H   H96       1.0  0.19270  0.37936  0.86831  1.0000
  H   H97       1.0  0.10546  0.47014  0.77413  1.0000
  C   C97       1.0  0.51864  0.44286  0.97587  1.0000
  S   S36       1.0  0.43860  0.45379  0.73860  1.0000
  H   H98       1.0  0.46015  0.32582  0.94264  1.0000
  Fe  Fe20      1.0  0.49569  0.49134  0.73833  1.0000
  S   S37       1.0  0.39997  0.47871  0.67637  1.0000
  Fe  Fe21      1.0  0.43737  0.48410  0.77483  1.0000
  S   S38       1.0  0.40640  0.45509  0.81183  1.0000
  C   C98       1.0  0.48626  0.33881  0.95221  1.0000
  H   H99       1.0  0.17754  0.42902  0.88592  1.0000
  S   S39       1.0  0.09973  0.46405  0.87325  1.0000
  C   C99       1.0  0.44960  0.50767  0.84662  1.0000
  H   H100      1.0  0.08377  0.39485  0.85482  1.0000
  Fe  Fe22      1.0  0.43444  0.49392  0.71333  1.0000
  H   H101      1.0  0.44868  0.37192  0.95018  1.0000
  S   S40       1.0  0.50414  0.32556  0.76967  1.0000
  H   H102      1.0  0.16605  0.39005  0.80533  1.0000
  C   C100      1.0  0.47334  0.43656  0.81686  1.0000
  S   S41       1.0  0.08467  0.47691  0.72010  1.0000
  C   C101      1.0  0.51135  0.36522  0.75531  1.0000
  H   H103      1.0  0.17134  0.44463  0.78709  1.0000
  C   C102      1.0  0.47512  0.38811  0.95724  1.0000
  S   S42       1.0  0.09249  0.38025  0.90863  1.0000
  Fe  Fe23      1.0  0.06261  0.37434  0.94709  1.0000
  N   N9        1.0  0.49745  0.37501  0.95954  1.0000
  Fe  Fe24      1.0  0.13919  0.39868  0.93558  1.0000
  S   S43       1.0  0.18171  0.38559  0.92788  1.0000
  H   H104      1.0  0.03429  0.44930  0.90127  1.0000
  H   H105      1.0  0.45559  0.41816  0.83246  1.0000
  H   H106      1.0  0.50507  0.33772  0.93771  1.0000
  C   C103      1.0  0.21793  0.41015  0.94882  1.0000
  Fe  Fe25      1.0  0.10016  0.43555  0.71912  1.0000
  S   S44       1.0  0.10798  0.38600  0.97402  1.0000
  H   H107      1.0  0.18164  0.48361  0.86846  1.0000
  C   C104      1.0  0.09554  0.44572  0.84073  1.0000
  C   C105      1.0  0.10003  0.45341  0.79159  1.0000
  H   H108      1.0  0.46096  0.44308  0.68419  1.0000
  Fe  Fe26      1.0  0.42575  0.49733  0.96564  1.0000
  C   C106      1.0  0.48550  0.42231  0.96511  1.0000
  H   H109      1.0  0.47927  0.46306  0.82335  1.0000
  H   H110      1.0  0.45919  0.43059  0.79725  1.0000
  H   H111      1.0  0.29906  0.42245  0.96243  1.0000
  C   C107      1.0  0.08696  0.39801  0.81124  1.0000
  H   H112      1.0  0.17917  0.49183  0.81873  1.0000
  H   H113      1.0  0.24806  0.38781  0.93275  1.0000
  H   H114      1.0  0.08171  0.37147  0.80881  1.0000
  Fe  Fe27      1.0  0.10418  0.43567  0.90985  1.0000
  C   C108      1.0  0.24759  0.40629  0.94694  1.0000
  C   C109      1.0  0.08823  0.41128  0.83738  1.0000
  S   S45       1.0  0.07169  0.42891  0.94671  1.0000
  H   H115      1.0  0.19462  0.43684  0.96920  1.0000
  H   H116      1.0  0.46734  0.43221  0.96398  1.0000
  H   H117      1.0  0.48163  0.38149  0.82726  1.0000
  C   C110      1.0  0.42053  0.47459  0.84394  1.0000
  N   N10       1.0  0.50524  0.43433  0.81387  1.0000
  S   S46       1.0  0.06838  0.40862  0.68237  1.0000
  H   H118      1.0  0.14674  0.36259  0.87284  1.0000
  C   C111      1.0  0.41305  0.47135  0.89312  1.0000
  C   C112      1.0  0.40242  0.45643  0.86727  1.0000
  C   C113      1.0  0.44195  0.50454  0.89579  1.0000
  S   S47       1.0  0.37647  0.44597  0.96692  1.0000
  H   H119      1.0  0.39869  0.45721  0.91088  1.0000
  H   H120      1.0  0.37994  0.43079  0.86534  1.0000
  C   C114      1.0  0.50520  0.40405  0.82017  1.0000
  C   C115      1.0  0.21744  0.43392  0.96732  1.0000
  C   C116      1.0  0.16832  0.37403  0.85776  1.0000
  C   C117      1.0  0.27591  0.44977  0.98213  1.0000
  C   C118      1.0  0.48557  0.37490  0.75743  1.0000
  C   C119      1.0  0.49224  0.40800  0.74873  1.0000
  S   S48       1.0  0.09445  0.40253  0.75603  1.0000
  S   S49       1.0  0.14871  0.46692  0.69454  1.0000
  H   H121      1.0  0.46075  0.35716  0.76658  1.0000
  H   H122      1.0  0.47252  0.41544  0.75114  1.0000
  C   C120      1.0  0.09329  0.41916  0.78828  1.0000
  H   H123      1.0  0.51172  0.16380  0.84560  1.0000
  H   H124      1.0  0.33839  0.49482  0.94276  1.0000
  Fe  Fe28      1.0  0.11915  0.44127  0.97114  1.0000
  C   C121      1.0  0.17797  0.46823  0.82654  1.0000
  S   S50       1.0  0.15314  0.45489  0.93411  1.0000
  N   N11       1.0  0.17173  0.40647  0.84672  1.0000
  C   C122      1.0  0.17032  0.41076  0.81929  1.0000
  C   C123      1.0  0.17641  0.43247  0.86422  1.0000
  C   C124      1.0  0.24644  0.45390  0.98366  1.0000
  Fe  Fe29      1.0  0.05535  0.45169  0.68198  1.0000
  C   C125      1.0  0.17358  0.44175  0.80879  1.0000
  H   H125      1.0  0.52600  0.10638  0.76727  1.0000
  C   C126      1.0  0.17932  0.46360  0.85444  1.0000
  H   H126      1.0  0.16282  0.35427  0.84178  1.0000
  C   C127      1.0  0.27654  0.42599  0.96366  1.0000
  Fe  Fe30      1.0  0.13081  0.50649  0.69272  1.0000
  H   H127      1.0  0.10655  0.49322  0.82014  1.0000
  H   H128      1.0  0.02938  0.39267  0.88851  1.0000
  H   H129      1.0  0.48526  0.32380  0.97069  1.0000
  H   H130      1.0  0.51254  0.06813  0.71049  1.0000
  C   C128      1.0  0.46648  0.44890  0.66277  1.0000
  H   H131      1.0  0.52034  0.48650  0.66917  1.0000
  H   H132      1.0  0.50506  0.06056  0.75878  1.0000
  S   S51       1.0  0.51993  0.10395  0.85462  1.0000
  C   C129      1.0  0.52459  0.43142  0.73755  1.0000
  S   S52       1.0  0.52346  0.02309  0.82460  1.0000
  H   H133      1.0  0.52644  0.46894  0.98304  1.0000
  H   H134      1.0  0.52623  0.30068  0.66354  1.0000
  H   H135      1.0  0.42434  0.73400  0.05258  1.0000
  Fe  Fe31      1.0  0.48207  0.54160  0.25377  1.0000
  S   S53       1.0  0.17826  0.55441  0.19797  1.0000
  C   C130      1.0  0.44918  0.84389  0.11073  1.0000
  H   H136      1.0  0.49069  0.54940  0.11754  1.0000
  H   H137      1.0  0.45581  0.77337  0.09177  1.0000
  H   H138      1.0  0.21381  0.52818  0.05846  1.0000
  C   C131      1.0  0.38359  0.60319  0.20494  1.0000
  H   H139      1.0  0.43130  0.85070  0.12042  1.0000
  H   H140      1.0  0.48098  0.69116  0.25513  1.0000
  H   H141      1.0  0.41572  0.54952  0.19219  1.0000
  C   C132      1.0  0.38406  0.52554  0.31371  1.0000
  Fe  Fe32      1.0  0.42854  0.68318  0.10131  1.0000
  S   S54       1.0  0.37864  0.68388  0.09596  1.0000
  S   S55       1.0  0.46002  0.68408  0.06482  1.0000
  Fe  Fe33      1.0  0.42476  0.68595  0.16375  1.0000
  S   S56       1.0  0.37437  0.68677  0.16265  1.0000
  S   S57       1.0  0.45414  0.68755  0.20170  1.0000
  Fe  Fe34      1.0  0.35920  0.64561  0.13050  1.0000
  S   S58       1.0  0.31192  0.59239  0.12659  1.0000
  C   C133      1.0  0.49595  0.82661  0.08651  1.0000
  S   S59       1.0  0.40822  0.64231  0.13383  1.0000
  S   S60       1.0  0.40341  0.70851  0.31738  1.0000
  H   H142      1.0  0.45783  0.61134  0.02566  1.0000
  N   N12       1.0  0.51274  0.84832  0.15857  1.0000
  H   H143      1.0  0.51412  0.81979  0.07739  1.0000
  H   H144      1.0  0.43683  0.83839  0.18336  1.0000
  C   C134      1.0  0.38992  0.57555  0.08338  1.0000
  H   H145      1.0  0.50093  0.61440  0.05765  1.0000
  C   C135      1.0  0.44033  0.69453  0.23361  1.0000
  C   C136      1.0  0.41114  0.69890  0.23617  1.0000
  C   C137      1.0  0.40006  0.70312  0.26197  1.0000
  C   C138      1.0  0.41801  0.70295  0.28538  1.0000
  C   C139      1.0  0.44715  0.69845  0.28285  1.0000
  C   C140      1.0  0.45830  0.69439  0.25702  1.0000
  H   H146      1.0  0.39706  0.69909  0.21836  1.0000
  H   H147      1.0  0.37746  0.70652  0.26380  1.0000
  H   H148      1.0  0.46110  0.69806  0.30071  1.0000
  H   H149      1.0  0.33640  0.59874  0.18792  1.0000
  C   C141      1.0  0.44018  0.67811  0.03279  1.0000
  C   C142      1.0  0.43730  0.60634  0.22225  1.0000
  H   H150      1.0  0.43387  0.59146  0.10968  1.0000
  N   N13       1.0  0.40534  0.58931  0.20617  1.0000
  H   H151      1.0  0.38782  0.65549  0.04804  1.0000
  N   N14       1.0  0.44934  0.60231  0.06821  1.0000
  C   C143      1.0  0.44003  0.80883  0.10789  1.0000
  S   S61       1.0  0.40136  0.77644  0.12287  1.0000
  C   C144      1.0  0.50602  0.86165  0.09107  1.0000
  C   C145      1.0  0.47873  0.76919  0.02133  1.0000
  H   H152      1.0  0.42856  0.80205  0.30741  1.0000
  C   C146      1.0  0.35345  0.58749  0.18912  1.0000
  H   H153      1.0  0.47176  0.90338  0.18335  1.0000
  H   H154      1.0  0.39088  0.55092  0.27497  1.0000
  H   H155      1.0  0.36174  0.65274  0.00304  1.0000
  C   C147      1.0  0.46307  0.80027  0.09494  1.0000
  H   H156      1.0  0.38953  0.62664  0.21607  1.0000
  Fe  Fe35      1.0  0.39966  0.72489  0.12815  1.0000
  C   C148      1.0  0.22265  0.52447  0.07871  1.0000
  C   C149      1.0  0.43883  0.60098  0.04193  1.0000
  S   S62       1.0  0.45098  0.72657  0.13162  1.0000
  H   H157      1.0  0.50731  0.99083  0.22780  1.0000
  C   C150      1.0  0.51164  0.82586  0.32490  1.0000
  C   C151      1.0  0.21563  0.56502  0.17837  1.0000
  C   C152      1.0  0.24397  0.59899  0.17888  1.0000
  C   C153      1.0  0.27384  0.60782  0.16317  1.0000
  C   C154      1.0  0.27551  0.58257  0.14708  1.0000
  C   C155      1.0  0.24755  0.54851  0.14705  1.0000
  C   C156      1.0  0.21751  0.53981  0.16236  1.0000
  H   H158      1.0  0.24261  0.61860  0.19119  1.0000
  H   H159      1.0  0.29527  0.63421  0.16328  1.0000
  C   C157      1.0  0.52266  0.91361  0.30820  1.0000
  C   C158      1.0  0.46310  0.53156  0.11961  1.0000
  C   C159      1.0  0.34568  0.55748  0.17451  1.0000
  C   C160      1.0  0.50473  0.78140  0.00138  1.0000
  C   C161      1.0  0.46389  0.85148  0.17702  1.0000
  H   H160      1.0  0.36239  0.52034  0.16441  1.0000
  H   H161      1.0  0.50572  0.66083  0.27834  1.0000
  H   H162      1.0  0.46526  0.52768  0.16304  1.0000
  C   C162      1.0  0.50449  0.61379  0.29184  1.0000
  H   H163      1.0  0.45980  0.62303  0.20894  1.0000
  C   C163      1.0  0.48333  0.88778  0.17685  1.0000
  H   H164      1.0  0.39236  0.72800  0.02793  1.0000
  C   C164      1.0  0.42546  0.59005  0.08885  1.0000
  H   H165      1.0  0.45567  0.86610  0.30148  1.0000
  H   H166      1.0  0.50848  0.80203  0.14120  1.0000
  C   C165      1.0  0.47164  0.85494  0.30782  1.0000
  C   C166      1.0  0.39820  0.56022  0.19154  1.0000
  H   H167      1.0  0.35152  0.56265  0.05206  1.0000
  H   H168      1.0  0.48556  0.76743  0.04221  1.0000
  H   H169      1.0  0.44250  0.58684  0.23235  1.0000
  C   C167      1.0  0.48654  0.61865  0.07442  1.0000
  N   N15       1.0  0.44497  0.75878  0.01454  1.0000
  H   H170      1.0  0.43583  0.62320  0.23832  1.0000
  C   C168      1.0  0.48225  0.87024  0.10263  1.0000
  H   H171      1.0  0.37107  0.56612  0.09980  1.0000
  C   C169      1.0  0.46088  0.68779  0.00935  1.0000
  C   C170      1.0  0.40353  0.58664  0.03572  1.0000
  C   C171      1.0  0.41375  0.58786  0.30744  1.0000
  C   C172      1.0  0.50432  0.59438  0.31438  1.0000
  H   H172      1.0  0.32237  0.54513  0.16216  1.0000
  C   C173      1.0  0.50512  0.64557  0.29573  1.0000
  H   H173      1.0  0.48956  0.89703  0.10626  1.0000
  C   C174      1.0  0.40427  0.66451  0.03030  1.0000
  S   S63       1.0  0.46124  0.53445  0.06418  1.0000
  C   C175      1.0  0.41836  0.74719  0.03588  1.0000
  H   H174      1.0  0.49106  0.60693  0.09288  1.0000
  H   H175      1.0  0.39538  0.58580  0.01487  1.0000
  H   H176      1.0  0.46453  0.77633  0.32250  1.0000
  C   C176      1.0  0.37897  0.57377  0.05660  1.0000
  C   C177      1.0  0.36816  0.54371  0.17566  1.0000
  C   C178      1.0  0.38947  0.66255  0.00471  1.0000
  H   H177      1.0  0.48861  0.69769  0.01102  1.0000
  C   C179      1.0  0.39558  0.55443  0.29661  1.0000
  H   H178      1.0  0.42368  0.61060  0.29435  1.0000
  H   H179      1.0  0.51683  0.94888  0.03459  1.0000
  H   H180      1.0  0.50426  0.57005  0.31152  1.0000
  H   H181      1.0  0.50530  0.68213  0.32481  1.0000
  C   C180      1.0  0.44876  0.51906  0.14544  1.0000
  H   H182      1.0  0.24890  0.54673  0.08310  1.0000
  H   H183      1.0  0.49727  0.64703  0.07756  1.0000
  C   C181      1.0  0.47634  0.80427  0.31971  1.0000
  C   C182      1.0  0.51773  0.90409  0.16786  1.0000
  H   H184      1.0  0.24922  0.52884  0.13517  1.0000
  H   H185      1.0  0.50321  0.92275  0.30880  1.0000
  C   C183      1.0  0.44209  0.52026  0.09643  1.0000
  S   S64       1.0  0.50433  0.59926  0.25863  1.0000
  S   S65       1.0  0.40794  0.52327  0.99599  1.0000
  C   C184      1.0  0.47921  0.83201  0.16800  1.0000
  H   H186      1.0  0.46364  0.80381  0.16764  1.0000
  H   H187      1.0  0.41704  0.76984  0.04443  1.0000
  N   N16       1.0  0.50634  0.87595  0.31288  1.0000
  C   C185      1.0  0.45613  0.81881  0.31119  1.0000
  H   H188      1.0  0.20415  0.52477  0.09394  1.0000
  C   C186      1.0  0.50504  0.65771  0.32204  1.0000
  S   S66       1.0  0.48737  0.51955  0.21421  1.0000
  H   H189      1.0  0.18617  0.54094  0.30540  1.0000
  C   C187      1.0  0.52665  0.94695  0.01481  1.0000
  C   C188      1.0  0.52634  0.86185  0.32124  1.0000
  S   S67       1.0  0.39590  0.67625  0.45217  1.0000
  H   H190      1.0  0.47561  0.53722  0.37480  1.0000
  S   S68       1.0  0.42517  0.66460  0.37936  1.0000
  N   N17       1.0  0.44515  0.76877  0.48130  1.0000
  C   C189      1.0  0.43460  0.58802  0.64013  1.0000
  C   C190      1.0  0.48025  0.87754  0.60686  1.0000
  S   S69       1.0  0.44379  0.72897  0.63733  1.0000
  H   H191      1.0  0.46259  0.62276  0.42536  1.0000
  H   H192      1.0  0.40016  0.54464  0.39303  1.0000
  H   H193      1.0  0.52123  0.96523  0.51910  1.0000
  H   H194      1.0  0.21552  0.60022  0.58898  1.0000
  C   C191      1.0  0.47935  0.64630  0.65109  1.0000
  C   C192      1.0  0.43912  0.61698  0.46456  1.0000
  C   C193      1.0  0.44918  0.69210  0.48869  1.0000
  C   C194      1.0  0.41361  0.67960  0.48478  1.0000
  C   C195      1.0  0.39135  0.66929  0.50732  1.0000
  H   H195      1.0  0.46659  0.69977  0.47157  1.0000
  H   H196      1.0  0.36373  0.65914  0.50447  1.0000
  H   H197      1.0  0.45035  0.77957  0.59723  1.0000
  S   S70       1.0  0.44266  0.52067  0.42676  1.0000
  C   C196      1.0  0.49118  0.83222  0.59022  1.0000
  H   H198      1.0  0.39028  0.73492  0.48194  1.0000
  H   H199      1.0  0.47485  0.96246  0.44173  1.0000
  C   C197      1.0  0.46297  0.59764  0.50028  1.0000
  Fe  Fe36      1.0  0.42209  0.68966  0.60382  1.0000
  S   S71       1.0  0.37623  0.69716  0.59604  1.0000
  S   S72       1.0  0.45759  0.69047  0.57049  1.0000
  C   C198      1.0  0.44742  0.85217  0.61621  1.0000
  Fe  Fe37      1.0  0.34912  0.65498  0.62721  1.0000
  S   S73       1.0  0.29733  0.60830  0.61765  1.0000
  Fe  Fe38      1.0  0.39561  0.73309  0.63166  1.0000
  S   S74       1.0  0.39381  0.64481  0.63238  1.0000
  H   H200      1.0  0.47377  0.96551  0.49230  1.0000
  C   C199      1.0  0.44020  0.68509  0.53760  1.0000
  C   C200      1.0  0.46237  0.69449  0.51501  1.0000
  C   C201      1.0  0.40459  0.67208  0.53364  1.0000
  S   S75       1.0  0.50393  0.65250  0.37773  1.0000
  H   H201      1.0  0.38708  0.66363  0.55081  1.0000
  H   H202      1.0  0.26328  0.53443  0.47360  1.0000
  H   H203      1.0  0.48866  0.90461  0.61031  1.0000
  H   H204      1.0  0.50644  0.59269  0.35804  1.0000
  Fe  Fe39      1.0  0.49151  0.76179  0.39095  1.0000
  S   S76       1.0  0.48908  0.71998  0.41846  1.0000
  H   H205      1.0  0.40447  0.77975  0.47257  1.0000
  Fe  Fe40      1.0  0.43149  0.69748  0.41583  1.0000
  C   C202      1.0  0.19406  0.63069  0.64400  1.0000
  S   S77       1.0  0.46128  0.53928  0.55993  1.0000
  C   C203      1.0  0.49468  0.96384  0.48203  1.0000
  C   C204      1.0  0.26490  0.59373  0.64280  1.0000
  C   C205      1.0  0.23479  0.56148  0.63944  1.0000
  C   C206      1.0  0.50550  0.63862  0.34457  1.0000
  H   H206      1.0  0.23293  0.54488  0.62264  1.0000
  H   H207      1.0  0.49370  0.55171  0.61231  1.0000
  Fe  Fe41      1.0  0.48328  0.69000  0.38025  1.0000
  C   C207      1.0  0.46244  0.61513  0.44629  1.0000
  H   H208      1.0  0.48992  0.70426  0.51791  1.0000
  N   N18       1.0  0.48487  0.60398  0.45468  1.0000
  H   H209      1.0  0.41230  0.58969  0.38920  1.0000
  S   S78       1.0  0.43400  0.74116  0.39083  1.0000
  S   S79       1.0  0.48435  0.92920  0.36473  1.0000
  C   C208      1.0  0.49688  0.89913  0.37616  1.0000
  H   H210      1.0  0.43076  0.86002  0.62662  1.0000
  H   H211      1.0  0.50821  0.82440  0.58041  1.0000
  C   C209      1.0  0.39051  0.53061  0.34157  1.0000
  H   H212      1.0  0.43470  0.61791  0.34353  1.0000
  C   C210      1.0  0.21754  0.61792  0.60504  1.0000
  N   N19       1.0  0.40823  0.56350  0.35204  1.0000
  C   C211      1.0  0.52131  0.96362  0.49709  1.0000
  H   H213      1.0  0.27585  0.69661  0.63096  1.0000
  H   H214      1.0  0.49683  0.67278  0.64456  1.0000
  C   C212      1.0  0.50669  0.79385  0.47401  1.0000
  Fe  Fe42      1.0  0.43453  0.71093  0.35434  1.0000
  H   H215      1.0  0.42212  0.61044  0.50629  1.0000
  C   C213      1.0  0.43962  0.60845  0.49178  1.0000
  H   H216      1.0  0.46203  0.81183  0.38510  1.0000
  C   C214      1.0  0.50553  0.60717  0.34068  1.0000
  H   H217      1.0  0.42109  0.62543  0.45771  1.0000
  Fe  Fe43      1.0  0.52546  0.98548  0.35963  1.0000
  C   C215      1.0  0.48270  0.77673  0.51909  1.0000
  C   C216      1.0  0.48145  0.83889  0.38478  1.0000
  H   H218      1.0  0.45823  0.62973  0.61082  1.0000
  C   C217      1.0  0.44957  0.76597  0.50851  1.0000
  C   C218      1.0  0.47323  0.78296  0.46414  1.0000
  N   N20       1.0  0.19112  0.60858  0.62342  1.0000
  S   S80       1.0  0.39939  0.78576  0.63063  1.0000
  C   C219      1.0  0.20663  0.55098  0.65733  1.0000
  C   C220      1.0  0.45306  0.52009  0.64079  1.0000
  C   C221      1.0  0.50972  0.60325  0.43525  1.0000
  C   C222      1.0  0.15902  0.57518  0.62055  1.0000
  C   C223      1.0  0.45855  0.80683  0.59994  1.0000
  H   H219      1.0  0.46350  0.59083  0.52141  1.0000
  C   C224      1.0  0.43708  0.81679  0.61373  1.0000
  S   S81       1.0  0.49252  0.73446  0.35274  1.0000
  H   H220      1.0  0.48590  0.77358  0.54060  1.0000
  C   C225      1.0  0.48542  0.59534  0.48131  1.0000
  H   H221      1.0  0.49765  0.59491  0.41488  1.0000
  C   C226      1.0  0.45757  0.62205  0.63189  1.0000
  S   S82       1.0  0.52469  0.97480  0.59729  1.0000
  H   H222      1.0  0.44522  0.85557  0.37201  1.0000
  C   C227      1.0  0.49541  0.96240  0.45375  1.0000
  H   H223      1.0  0.47041  0.52784  0.65785  1.0000
  H   H224      1.0  0.51799  0.58416  0.44144  1.0000
  C   C228      1.0  0.22442  0.66279  0.64691  1.0000
  H   H225      1.0  0.46993  0.78581  0.44263  1.0000
  C   C229      1.0  0.47193  0.86380  0.37734  1.0000
  H   H226      1.0  0.14044  0.57829  0.60726  1.0000
  H   H227      1.0  0.42736  0.75469  0.52216  1.0000
  C   C230      1.0  0.41032  0.75805  0.47074  1.0000
  C   C231      1.0  0.51594  0.84915  0.39136  1.0000
  C   C232      1.0  0.41993  0.59189  0.33535  1.0000
  H   H228      1.0  0.14659  0.56507  0.64068  1.0000
  H   H229      1.0  0.40807  0.75005  0.44910  1.0000
  H   H230      1.0  0.26981  0.65631  0.59354  1.0000
  C   C233      1.0  0.50255  0.86764  0.59439  1.0000
  H   H231      1.0  0.16449  0.55510  0.61184  1.0000
  C   C234      1.0  0.44413  0.52351  0.59241  1.0000
  H   H232      1.0  0.44420  0.57574  0.38398  1.0000
  C   C235      1.0  0.41654  0.56862  0.38102  1.0000
  H   H233      1.0  0.41756  0.56890  0.62547  1.0000
  C   C236      1.0  0.25174  0.67226  0.62853  1.0000
  H   H234      1.0  0.17337  0.62297  0.65889  1.0000
  H   H235      1.0  0.50321  0.58656  0.48808  1.0000
  C   C237      1.0  0.24829  0.64977  0.60740  1.0000
  C   C238      1.0  0.51138  0.79061  0.50167  1.0000
  H   H236      1.0  0.18320  0.52642  0.65414  1.0000
  H   H237      1.0  0.50626  0.80976  0.64384  1.0000
  C   C239      1.0  0.46624  0.53370  0.61493  1.0000
  H   H238      1.0  0.52353  0.96020  0.41894  1.0000
  C   C240      1.0  0.52324  0.96144  0.44092  1.0000
  C   C241      1.0  0.38250  0.53637  0.92200  1.0000
  C   C242      1.0  0.49880  0.60415  0.80619  1.0000
  S   S83       1.0  0.17092  0.56285  0.69769  1.0000
  S   S84       1.0  0.36380  0.69178  0.66248  1.0000
  H   H239      1.0  0.24001  0.62180  0.69854  1.0000
  H   H240      1.0  0.45449  0.81611  0.88427  1.0000
  S   S85       1.0  0.47805  0.93407  0.86467  1.0000
  S   S86       1.0  0.48322  0.72379  0.91513  1.0000
  C   C243      1.0  0.46432  0.86840  0.87789  1.0000
  C   C244      1.0  0.43387  0.57860  0.66728  1.0000
  H   H241      1.0  0.43312  0.59313  0.76277  1.0000
  S   S87       1.0  0.42573  0.74416  0.89163  1.0000
  H   H242      1.0  0.48282  0.54808  0.87446  1.0000
  S   S88       1.0  0.39118  0.67350  0.94995  1.0000
  Fe  Fe44      1.0  0.42714  0.71776  0.85303  1.0000
  S   S89       1.0  0.39586  0.71728  0.81673  1.0000
  S   S90       1.0  0.41997  0.66997  0.87478  1.0000
  H   H243      1.0  0.46412  0.68503  0.75648  1.0000
  C   C245      1.0  0.35437  0.52277  0.94007  1.0000
  C   C246      1.0  0.46167  0.77301  0.96777  1.0000
  S   S91       1.0  0.48531  0.74360  0.85060  1.0000
  Fe  Fe45      1.0  0.48446  0.55338  0.74869  1.0000
  H   H244      1.0  0.44949  0.70045  0.80108  1.0000
  H   H245      1.0  0.41474  0.84867  0.80526  1.0000
  C   C247      1.0  0.41218  0.61009  0.79514  1.0000
  C   C248      1.0  0.49550  0.83926  0.82029  1.0000
  C   C249      1.0  0.36830  0.58133  0.95166  1.0000
  H   H246      1.0  0.40948  0.75214  0.98270  1.0000
  C   C250      1.0  0.46312  0.80936  0.81716  1.0000
  C   C251      1.0  0.34720  0.54545  0.95490  1.0000
  H   H247      1.0  0.43609  0.60914  0.88962  1.0000
  H   H248      1.0  0.45475  0.77435  0.94686  1.0000
  C   C252      1.0  0.42661  0.69297  0.73429  1.0000
  C   C253      1.0  0.40108  0.70293  0.73611  1.0000
  C   C254      1.0  0.39244  0.71122  0.76145  1.0000
  C   C255      1.0  0.40964  0.71014  0.78501  1.0000
  C   C256      1.0  0.43620  0.70162  0.78303  1.0000
  H   H249      1.0  0.48938  0.65824  0.71746  1.0000
  H   H250      1.0  0.38719  0.70319  0.71820  1.0000
  H   H251      1.0  0.37189  0.71784  0.76286  1.0000
  C   C257      1.0  0.44445  0.69281  0.75774  1.0000
  Fe  Fe46      1.0  0.41082  0.68488  0.66536  1.0000
  C   C258      1.0  0.44607  0.68582  0.98375  1.0000
  C   C259      1.0  0.41043  0.67397  0.98141  1.0000
  H   H252      1.0  0.42950  0.60928  0.81040  1.0000
  H   H253      1.0  0.46241  0.69377  0.96597  1.0000
  H   H254      1.0  0.41289  0.62199  0.93132  1.0000
  C   C260      1.0  0.41433  0.60116  0.76834  1.0000
  C   C261      1.0  0.43627  0.76069  0.98818  1.0000
  H   H255      1.0  0.39472  0.59675  0.72785  1.0000
  C   C262      1.0  0.47351  0.84332  0.88551  1.0000
  C   C263      1.0  0.39642  0.59404  0.93357  1.0000
  H   H256      1.0  0.49602  0.59993  0.84980  1.0000
  H   H257      1.0  0.43002  0.56635  0.88453  1.0000
  C   C264      1.0  0.48434  0.89682  0.68133  1.0000
  S   S92       1.0  0.52006  0.82266  0.90253  1.0000
  H   H258      1.0  0.49655  0.57887  0.80334  1.0000
  H   H259      1.0  0.43823  0.86022  0.87082  1.0000
  Fe  Fe47      1.0  0.47816  0.69763  0.87514  1.0000
  H   H260      1.0  0.36291  0.59926  0.96299  1.0000
  C   C265      1.0  0.50463  0.66973  0.81405  1.0000
  C   C266      1.0  0.49607  0.78333  0.97444  1.0000
  Fe  Fe48      1.0  0.42538  0.69919  0.91336  1.0000
  C   C267      1.0  0.43288  0.58555  0.90031  1.0000
  S   S93       1.0  0.50451  0.61107  0.75079  1.0000
  C   C268      1.0  0.49842  0.61605  0.83248  1.0000
  Fe  Fe49      1.0  0.48358  0.76695  0.89073  1.0000
  C   C269      1.0  0.50727  0.85357  0.89427  1.0000
  H   H261      1.0  0.47261  0.90081  0.81039  1.0000
  N   N21       1.0  0.49866  0.87164  0.81787  1.0000
  C   C270      1.0  0.20818  0.57301  0.67832  1.0000
  C   C271      1.0  0.38800  0.62052  0.80208  1.0000
  H   H262      1.0  0.45705  0.59252  0.91186  1.0000
  S   S94       1.0  0.43453  0.67752  0.70361  1.0000
  C   C272      1.0  0.48904  0.90384  0.87831  1.0000
  S   S95       1.0  0.42649  0.52009  0.74958  1.0000
  C   C273      1.0  0.50332  0.62547  0.78381  1.0000
  H   H263      1.0  0.46330  0.81251  0.67196  1.0000
  H   H264      1.0  0.50722  0.69519  0.81704  1.0000
  N   N22       1.0  0.36913  0.61383  0.75565  1.0000
  C   C274      1.0  0.36642  0.62208  0.78199  1.0000
  C   C275      1.0  0.39246  0.60314  0.74873  1.0000
  C   C276      1.0  0.50132  0.64879  0.83648  1.0000
  H   H265      1.0  0.43793  0.84779  0.68906  1.0000
  H   H266      1.0  0.41626  0.55214  0.67386  1.0000
  C   C277      1.0  0.34604  0.61508  0.73483  1.0000
  C   C278      1.0  0.45647  0.60332  0.68580  1.0000
  C   C279      1.0  0.43389  0.81266  0.81170  1.0000
  S   S96       1.0  0.49172  0.52974  0.71072  1.0000
  S   S97       1.0  0.49515  0.51916  0.77637  1.0000
  H   H267      1.0  0.34827  0.63100  0.78751  1.0000
  H   H268      1.0  0.35989  0.62402  0.71505  1.0000
  H   H269      1.0  0.32302  0.58888  0.73219  1.0000
  H   H270      1.0  0.33710  0.63388  0.74033  1.0000
  N   N23       1.0  0.40294  0.57160  0.91879  1.0000
  C   C280      1.0  0.47022  0.87515  0.81197  1.0000
  H   H271      1.0  0.32540  0.53511  0.96896  1.0000
  H   H272      1.0  0.46365  0.52200  0.82882  1.0000
  H   H273      1.0  0.49905  0.94602  0.93143  1.0000
  C   C281      1.0  0.50628  0.65830  0.78775  1.0000
  H   H274      1.0  0.47335  0.91274  0.68829  1.0000
  H   H275      1.0  0.46053  0.78371  0.81917  1.0000
  C   C282      1.0  0.51981  0.96878  0.94232  1.0000
  H   H276      1.0  0.38655  0.62823  0.82273  1.0000
  H   H277      1.0  0.51075  0.68916  0.69108  1.0000
  S   S98       1.0  0.50163  0.66312  0.86973  1.0000
  C   C283      1.0  0.43738  0.84575  0.80909  1.0000
  C   C284      1.0  0.23874  0.60473  0.68229  1.0000
  H   H278      1.0  0.45639  0.59559  0.70671  1.0000
  H   H279      1.0  0.40857  0.78952  0.80971  1.0000
  C   C285      1.0  0.46465  0.86054  0.68192  1.0000
  H   H280      1.0  0.51589  0.79265  0.95865  1.0000
  S   S99       1.0  0.45462  0.52533  0.92761  1.0000
  C   C286      1.0  0.47916  0.84068  0.67212  1.0000
  H   H281      1.0  0.50378  0.99674  0.72731  1.0000
  H   H282      1.0  0.22705  0.67973  0.66375  1.0000
  C   C287      1.0  0.26718  0.61498  0.66464  1.0000
  N   N24       1.0  0.47847  0.63679  0.67767  1.0000
  H   H283      1.0  0.51015  0.67501  0.77051  1.0000
  C   C288      1.0  0.50238  0.66198  0.69740  1.0000
  H   H284      1.0  0.50994  0.98695  0.94739  1.0000
  H   H285      1.0  0.29018  0.63997  0.66725  1.0000
  C   C289      1.0  0.46034  0.52248  0.87248  1.0000
  C   C290      1.0  0.52253  0.91422  0.88790  1.0000
  H   H286      1.0  0.51793  0.83637  0.82516  1.0000
  H   H287      1.0  0.38799  0.51854  0.91068  1.0000
  C   C291      1.0  0.51822  0.91270  0.67122  1.0000
  C   C292      1.0  0.51722  0.95859  0.99156  1.0000
  Fe  Fe50      1.0  0.52111  0.98947  0.85977  1.0000
  H   H288      1.0  0.50001  0.96950  0.99372  1.0000
  N   N25       1.0  0.51211  0.85656  0.66152  1.0000
  H   H289      1.0  0.52546  0.65845  0.70008  1.0000
  Fe  Fe51      1.0  0.76401  0.28232  0.16542  1.0000
  S   S100      1.0  0.78224  0.24389  0.15770  1.0000
  S   S101      1.0  0.74977  0.30536  0.12988  1.0000
  Fe  Fe52      1.0  0.77574  0.28245  0.22717  1.0000
  S   S102      1.0  0.79546  0.24454  0.22342  1.0000
  S   S103      1.0  0.76731  0.30110  0.26791  1.0000
  Fe  Fe53      1.0  0.82475  0.27637  0.18701  1.0000
  S   S104      1.0  0.87924  0.28833  0.17635  1.0000
  Fe  Fe54      1.0  0.75096  0.21652  0.19470  1.0000
  S   S105      1.0  0.71177  0.16029  0.20161  1.0000
  S   S106      1.0  0.80845  0.31674  0.19275  1.0000
  S   S107      1.0  0.72935  0.25264  0.20034  1.0000
  C   C293      1.0  0.58938  0.03167  0.25375  1.0000
  C   C294      1.0  0.59571  0.29916  0.15498  1.0000
  S   S108      1.0  0.54769  0.03406  0.03678  1.0000
  H   H290      1.0  0.69978  0.24615  0.30962  1.0000
  Fe  Fe55      1.0  0.61956  0.33874  0.25106  1.0000
  H   H291      1.0  0.60789  0.09635  0.05936  1.0000
  S   S109      1.0  0.00395  0.44347  0.17317  1.0000
  S   S110      1.0  0.68392  0.05938  0.10275  1.0000
  H   H292      1.0  0.65776  0.39850  0.16108  1.0000
  S   S111      1.0  0.59234  0.04581  0.10863  1.0000
  H   H293      1.0  0.95078  0.31684  0.16226  1.0000
  H   H294      1.0  0.65595  0.22149  0.29619  1.0000
  S   S112      1.0  0.73984  0.23506  0.01517  1.0000
  Fe  Fe56      1.0  0.64602  0.39679  0.03316  1.0000
  S   S113      1.0  0.70398  0.42184  0.03269  1.0000
  H   H295      1.0  0.68542  0.26361  0.01653  1.0000
  C   C295      1.0  0.58645  0.41315  0.15401  1.0000
  H   H296      1.0  0.65945  0.10732  0.08706  1.0000
  H   H297      1.0  0.76157  0.40989  0.02172  1.0000
  C   C296      1.0  0.56697  0.09429  0.23226  1.0000
  H   H298      1.0  0.63309  0.37258  0.11679  1.0000
  S   S114      1.0  0.60841  0.40368  0.00666  1.0000
  H   H299      1.0  0.99595  0.42244  0.26524  1.0000
  C   C297      1.0  0.54905  0.36987  0.12178  1.0000
  H   H300      1.0  0.69212  0.30595  0.02655  1.0000
  Fe  Fe57      1.0  0.58295  0.03896  0.32395  1.0000
  Fe  Fe58      1.0  0.57997  0.34531  0.00503  1.0000
  Fe  Fe59      1.0  0.58807  0.26970  0.28037  1.0000
  H   H301      1.0  0.84472  0.30773  0.01182  1.0000
  H   H302      1.0  0.56480  0.10864  0.31385  1.0000
  H   H303      1.0  0.70175  0.11860  0.28484  1.0000
  H   H304      1.0  0.81244  0.25725  0.04288  1.0000
  H   H305      1.0  0.61556  0.11364  0.01109  1.0000
  H   H306      1.0  0.87769  0.37609  0.08049  1.0000
  H   H307      1.0  0.82396  0.32913  0.12488  1.0000
  C   C298      1.0  0.77840  0.28844  0.29881  1.0000
  C   C299      1.0  0.79211  0.26578  0.29943  1.0000
  H   H308      1.0  0.62156  0.11866  0.26243  1.0000
  H   H309      1.0  0.79679  0.25600  0.28076  1.0000
  S   S115      1.0  0.61258  0.04953  0.28420  1.0000
  C   C300      1.0  0.74632  0.28533  0.09816  1.0000
  C   C301      1.0  0.75150  0.30460  0.07427  1.0000
  C   C302      1.0  0.74967  0.28948  0.04879  1.0000
  C   C303      1.0  0.74202  0.25475  0.04693  1.0000
  C   C304      1.0  0.73597  0.23522  0.07082  1.0000
  C   C305      1.0  0.73834  0.25050  0.09635  1.0000
  H   H310      1.0  0.75734  0.33145  0.07548  1.0000
  H   H311      1.0  0.75365  0.30467  0.03067  1.0000
  H   H312      1.0  0.72968  0.20825  0.06965  1.0000
  H   H313      1.0  0.73332  0.23506  0.11458  1.0000
  C   C306      1.0  0.70607  0.13231  0.17444  1.0000
  C   C307      1.0  0.67795  0.09841  0.17514  1.0000
  C   C308      1.0  0.67139  0.07606  0.15312  1.0000
  C   C309      1.0  0.69363  0.08706  0.13069  1.0000
  C   C310      1.0  0.72253  0.12058  0.13025  1.0000
  C   C311      1.0  0.72854  0.14338  0.15203  1.0000
  H   H314      1.0  0.66105  0.08946  0.19266  1.0000
  H   H315      1.0  0.64941  0.05004  0.15361  1.0000
  H   H316      1.0  0.74000  0.12902  0.11302  1.0000
  H   H317      1.0  0.75071  0.16925  0.15160  1.0000
  C   C312      1.0  0.94634  0.33835  0.16686  1.0000
  C   C313      1.0  0.91285  0.33183  0.17370  1.0000
  C   C314      1.0  0.86332  0.34519  0.04424  1.0000
  H   H318      1.0  0.88171  0.35519  0.18483  1.0000
  C   C315      1.0  0.63207  0.34975  0.18264  1.0000
  S   S116      1.0  0.64021  0.31793  0.28326  1.0000
  H   H319      1.0  0.53849  0.36289  0.10142  1.0000
  N   N26       1.0  0.98055  0.37542  0.24342  1.0000
  H   H320      1.0  0.68086  0.30294  0.32468  1.0000
  H   H321      1.0  0.84718  0.30534  0.13007  1.0000
  H   H322      1.0  0.68401  0.35993  0.06647  1.0000
  C   C316      1.0  0.82739  0.28335  0.05105  1.0000
  S   S117      1.0  0.61891  0.39581  0.07164  1.0000
  C   C317      1.0  0.64038  0.37074  0.15950  1.0000
  C   C318      1.0  0.90731  0.35982  0.17940  1.0000
  C   C319      1.0  0.67351  0.14087  0.30440  1.0000
  H   H323      1.0  0.81397  0.26692  0.09252  1.0000
  C   C320      1.0  0.63826  0.11916  0.02310  1.0000
  H   H324      1.0  0.65614  0.30143  0.08852  1.0000
  C   C321      1.0  0.71364  0.19987  0.27346  1.0000
  S   S118      1.0  0.61993  0.33892  0.02858  1.0000
  H   H325      1.0  0.93097  0.41563  0.18343  1.0000
  C   C322      1.0  0.94560  0.36404  0.24379  1.0000
  H   H326      1.0  0.58062  0.42435  0.11226  1.0000
  C   C323      1.0  0.57158  0.18715  0.29836  1.0000
  C   C324      1.0  0.93530  0.39408  0.17872  1.0000
  H   H327      1.0  0.56203  0.09313  0.25393  1.0000
  S   S119      1.0  0.58315  0.30165  0.10076  1.0000
  C   C325      1.0  0.56904  0.04058  0.00520  1.0000
  C   C326      1.0  0.62590  0.35611  0.13433  1.0000
  H   H328      1.0  0.64857  0.11671  0.23628  1.0000
  H   H329      1.0  0.57859  0.27136  0.15333  1.0000
  H   H330      1.0  0.02132  0.36758  0.01806  1.0000
  Fe  Fe60      1.0  0.57775  0.39554  0.04509  1.0000
  C   C327      1.0  0.86375  0.34990  0.07237  1.0000
  H   H331      1.0  0.97912  0.30032  0.22660  1.0000
  H   H332      1.0  0.69177  0.24520  0.27372  1.0000
  S   S120      1.0  0.56307  0.28590  0.31300  1.0000
  C   C328      1.0  0.66896  0.17010  0.30613  1.0000
  C   C329      1.0  0.96899  0.40047  0.17262  1.0000
  C   C330      1.0  0.53745  0.37658  0.24639  1.0000
  C   C331      1.0  0.60291  0.32041  0.13201  1.0000
  C   C332      1.0  0.60781  0.03584  0.22950  1.0000
  C   C333      1.0  0.74435  0.40130  0.00439  1.0000
  H   H333      1.0  0.60516  0.43988  0.15892  1.0000
  S   S121      1.0  0.59980  0.36237  0.28171  1.0000
  H   H334      1.0  0.64335  0.15482  0.23890  1.0000
  H   H335      1.0  0.89396  0.32020  0.23846  1.0000
  C   C334      1.0  0.69910  0.14079  0.02659  1.0000
  C   C335      1.0  0.57600  0.38707  0.17378  1.0000
  C   C336      1.0  0.97428  0.37252  0.16631  1.0000
  C   C337      1.0  0.59828  0.03636  0.00208  1.0000
  C   C338      1.0  0.63372  0.10923  0.05043  1.0000
  C   C339      1.0  0.67211  0.27871  0.02177  1.0000
  N   N27       1.0  0.67068  0.13496  0.01158  1.0000
  C   C340      1.0  0.96944  0.31793  0.23182  1.0000
  C   C341      1.0  0.61040  0.31377  0.18022  1.0000
  H   H336      1.0  0.00766  0.42764  0.22968  1.0000
  H   H337      1.0  0.53471  0.30082  0.18054  1.0000
  C   C342      1.0  0.57882  0.09532  0.17687  1.0000
  S   S122      1.0  0.56882  0.28975  0.24636  1.0000
  H   H338      1.0  0.71782  0.13495  0.06579  1.0000
  C   C343      1.0  0.59804  0.44575  0.31449  1.0000
  H   H339      1.0  0.56675  0.42573  0.22563  1.0000
  H   H340      1.0  0.60511  0.29709  0.19768  1.0000
  H   H341      1.0  0.53771  0.49026  0.13278  1.0000
  C   C344      1.0  0.00504  0.41229  0.24831  1.0000
  H   H342      1.0  0.68656  0.32369  0.17999  1.0000
  C   C345      1.0  0.57275  0.40444  0.12788  1.0000
  H   H343      1.0  0.72966  0.22293  0.26141  1.0000
  C   C346      1.0  0.54477  0.07845  0.18673  1.0000
  C   C347      1.0  0.69845  0.14136  0.28669  1.0000
  H   H344      1.0  0.87099  0.35128  0.12523  1.0000
  H   H345      1.0  0.57840  0.47596  0.29406  1.0000
  H   H346      1.0  0.99973  0.37711  0.16060  1.0000
  C   C348      1.0  0.82834  0.28899  0.07907  1.0000
  N   N28       1.0  0.84689  0.32190  0.08940  1.0000
  C   C349      1.0  0.69545  0.13094  0.05395  1.0000
  H   H347      1.0  0.87685  0.36734  0.03066  1.0000
  H   H348      1.0  0.93606  0.38213  0.24754  1.0000
  H   H349      1.0  0.73246  0.34433  0.17222  1.0000
  C   C350      1.0  0.84723  0.32724  0.11879  1.0000
  C   C351      1.0  0.66256  0.11524  0.06591  1.0000
  H   H350      1.0  0.62517  0.46525  0.31201  1.0000
  C   C352      1.0  0.53926  0.34441  0.14201  1.0000
  N   N29       1.0  0.60030  0.11016  0.22242  1.0000
  C   C353      1.0  0.93374  0.30597  0.23263  1.0000
  C   C354      1.0  0.84518  0.31166  0.03360  1.0000
  C   C355      1.0  0.57713  0.15851  0.29682  1.0000
  C   C356      1.0  0.71888  0.17114  0.27128  1.0000
  Fe  Fe61      1.0  0.59071  0.33818  0.06600  1.0000
  H   H351      1.0  0.59383  0.15758  0.28114  1.0000
  S   S123      1.0  0.64905  0.36940  0.21413  1.0000
  H   H352      1.0  0.71213  0.36973  0.18258  1.0000
  C   C357      1.0  0.92167  0.32908  0.23876  1.0000
  H   H353      1.0  0.58703  0.39394  0.19400  1.0000
  N   N30       1.0  0.70184  0.35046  0.14194  1.0000
  C   C358      1.0  0.71755  0.38265  0.12993  1.0000
  C   C359      1.0  0.68076  0.32146  0.12713  1.0000
  C   C360      1.0  0.71139  0.38649  0.10259  1.0000
  C   C361      1.0  0.67390  0.32437  0.09982  1.0000
  C   C362      1.0  0.68929  0.35713  0.08754  1.0000
  C   C363      1.0  0.70873  0.34693  0.17055  1.0000
  H   H354      1.0  0.73466  0.40556  0.14158  1.0000
  H   H355      1.0  0.66886  0.29590  0.13651  1.0000
  H   H356      1.0  0.72338  0.41203  0.09307  1.0000
  C   C364      1.0  0.68374  0.22939  0.29270  1.0000
  C   C365      1.0  0.99264  0.35297  0.23728  1.0000
  S   S124      1.0  0.59304  0.22146  0.27516  1.0000
  H   H357      1.0  0.91539  0.27910  0.22763  1.0000
  C   C366      1.0  0.53872  0.07826  0.21456  1.0000
  H   H358      1.0  0.55732  0.36935  0.24379  1.0000
  C   C367      1.0  0.57188  0.45182  0.30455  1.0000
  H   H359      1.0  0.60454  0.02784  0.18607  1.0000
  H   H360      1.0  0.58380  0.09517  0.15533  1.0000
  Fe  Fe62      1.0  0.55014  0.31197  0.27899  1.0000
  H   H361      1.0  0.56144  0.33326  0.20445  1.0000
  H   H362      1.0  0.73841  0.17183  0.25746  1.0000
  C   C368      1.0  0.60643  0.11156  0.19511  1.0000
  N   N31       1.0  0.68857  0.19888  0.29042  1.0000
  S   S125      1.0  0.54711  0.33749  0.04216  1.0000
  H   H363      1.0  0.65762  0.11777  0.31646  1.0000
  S   S126      1.0  0.55307  0.42731  0.05807  1.0000
  C   C369      1.0  0.71474  0.40520  0.00430  1.0000
  C   C370      1.0  0.54259  0.40832  0.23577  1.0000
  Fe  Fe63      1.0  0.61405  0.33551  0.31367  1.0000
  H   H364      1.0  0.63288  0.12483  0.18737  1.0000
  C   C371      1.0  0.62986  0.12605  0.24102  1.0000
  N   N32       1.0  0.55276  0.35321  0.16762  1.0000
  C   C372      1.0  0.56087  0.13092  0.31536  1.0000
  H   H365      1.0  0.52841  0.47924  0.16800  1.0000
  C   C373      1.0  0.54088  0.32659  0.18896  1.0000
  H   H366      1.0  0.72478  0.15310  0.01744  1.0000
  C   C374      1.0  0.53715  0.42653  0.30799  1.0000
  H   H367      1.0  0.64946  0.16947  0.31995  1.0000
  H   H368      1.0  0.63590  0.04845  0.22992  1.0000
  H   H369      1.0  0.02036  0.36210  0.23638  1.0000
  H   H370      1.0  0.54525  0.21018  0.31967  1.0000
  H   H371      1.0  0.65634  0.26691  0.04035  1.0000
  C   C375      1.0  0.54983  0.18827  0.31852  1.0000
  H   H372      1.0  0.60346  0.25716  0.02163  1.0000
  C   C376      1.0  0.80004  0.25578  0.32440  1.0000
  H   H373      1.0  0.81070  0.23829  0.32470  1.0000
  Fe  Fe64      1.0  0.62664  0.02185  0.10364  1.0000
  H   H374      1.0  0.60888  0.02970  0.01928  1.0000
  H   H375      1.0  0.76202  0.31845  0.32313  1.0000
  C   C377      1.0  0.61597  0.26660  0.00208  1.0000
  C   C378      1.0  0.77258  0.30089  0.32339  1.0000
  C   C379      1.0  0.59013  0.02409  0.20466  1.0000
  C   C380      1.0  0.52903  0.39494  0.32056  1.0000
  H   H376      1.0  0.62583  0.24679  0.32652  1.0000
  N   N33       1.0  0.65085  0.27853  0.99887  1.0000
  C   C381      1.0  0.58898  0.41414  0.32747  1.0000
  C   C382      1.0  0.99240  0.38472  0.47278  1.0000
  H   H377      1.0  0.59145  0.22822  0.36925  1.0000
  H   H378      1.0  0.88130  0.32296  0.41270  1.0000
  H   H379      1.0  0.01847  0.40495  0.47672  1.0000
  H   H380      1.0  0.97496  0.43726  0.40824  1.0000
  S   S127      1.0  0.59693  0.08221  0.35403  1.0000
  Fe  Fe65      1.0  0.84391  0.33792  0.45796  1.0000
  S   S128      1.0  0.82482  0.28065  0.45749  1.0000
  Fe  Fe66      1.0  0.77433  0.32856  0.43940  1.0000
  S   S129      1.0  0.74987  0.27042  0.43796  1.0000
  S   S130      1.0  0.73975  0.34995  0.42719  1.0000
  Fe  Fe67      1.0  0.77713  0.27626  0.47777  1.0000
  Fe  Fe68      1.0  0.80000  0.28165  0.41784  1.0000
  S   S131      1.0  0.80546  0.25598  0.37995  1.0000
  S   S132      1.0  0.79781  0.33377  0.48050  1.0000
  S   S133      1.0  0.82279  0.33954  0.41693  1.0000
  C   C383      1.0  0.73707  0.37699  0.45189  1.0000
  C   C384      1.0  0.70545  0.37646  0.45574  1.0000
  C   C385      1.0  0.70145  0.39491  0.47716  1.0000
  H   H381      1.0  0.68353  0.36078  0.44288  1.0000
  H   H382      1.0  0.67660  0.39338  0.48059  1.0000
  C   C386      1.0  0.98583  0.35145  0.46531  1.0000
  H   H383      1.0  0.65518  0.38184  0.61823  1.0000
  C   C387      1.0  0.92385  0.33222  0.46463  1.0000
  C   C388      1.0  0.95137  0.32496  0.46196  1.0000
  H   H384      1.0  0.89753  0.31179  0.46152  1.0000
  H   H385      1.0  0.94600  0.29896  0.45669  1.0000
  C   C389      1.0  0.53798  0.38493  0.47028  1.0000
  S   S134      1.0  0.63830  0.34550  0.52745  1.0000
  C   C390      1.0  0.55793  0.05352  0.48172  1.0000
  H   H386      1.0  0.63619  0.43548  0.63058  1.0000
  C   C391      1.0  0.66314  0.11964  0.56462  1.0000
  H   H387      1.0  0.82169  0.26225  0.55629  1.0000
  H   H388      1.0  0.95933  0.31983  0.39220  1.0000
  H   H389      1.0  0.88026  0.37229  0.56573  1.0000
  C   C392      1.0  0.79454  0.26849  0.34895  1.0000
  C   C393      1.0  0.57119  0.04694  0.50545  1.0000
  H   H390      1.0  0.97044  0.41806  0.48053  1.0000
  H   H391      1.0  0.77613  0.30086  0.36715  1.0000
  S   S135      1.0  0.64029  0.40427  0.57023  1.0000
  S   S136      1.0  0.74991  0.30496  0.62933  1.0000
  H   H392      1.0  0.61293  0.26654  0.40995  1.0000
  H   H393      1.0  0.89885  0.29535  0.40447  1.0000
  C   C394      1.0  0.86662  0.34639  0.57454  1.0000
  C   C395      1.0  0.63524  0.11581  0.54889  1.0000
  S   S137      1.0  0.56819  0.31926  0.46812  1.0000
  Fe  Fe69      1.0  0.62425  0.02679  0.60478  1.0000
  S   S138      1.0  0.68177  0.06328  0.60571  1.0000
  H   H394      1.0  0.55706  0.37762  0.47653  1.0000
  S   S139      1.0  0.59069  0.05168  0.60881  1.0000
  Fe  Fe70      1.0  0.59684  0.40249  0.54556  1.0000
  S   S140      1.0  0.75336  0.24092  0.51443  1.0000
  Fe  Fe71      1.0  0.66405  0.40371  0.53023  1.0000
  S   S141      1.0  0.72174  0.43268  0.52360  1.0000
  C   C396      1.0  0.72924  0.41477  0.49439  1.0000
  C   C397      1.0  0.76157  0.41691  0.48975  1.0000
  C   C398      1.0  0.76535  0.39752  0.46870  1.0000
  H   H395      1.0  0.78320  0.43239  0.50305  1.0000
  H   H396      1.0  0.79002  0.39838  0.46552  1.0000
  C   C399      1.0  0.93072  0.36599  0.47074  1.0000
  H   H397      1.0  0.61182  0.45122  0.64998  1.0000
  C   C400      1.0  0.58739  0.32166  0.38722  1.0000
  C   C401      1.0  0.53343  0.16058  0.33702  1.0000
  S   S142      1.0  0.57283  0.43488  0.55876  1.0000
  C   C402      1.0  0.75164  0.28707  0.59769  1.0000
  C   C403      1.0  0.76135  0.30812  0.57442  1.0000
  C   C404      1.0  0.76202  0.29430  0.54887  1.0000
  C   C405      1.0  0.75266  0.25918  0.54627  1.0000
  C   C406      1.0  0.74289  0.23809  0.56957  1.0000
  C   C407      1.0  0.74255  0.25199  0.59520  1.0000
  H   H398      1.0  0.76855  0.33529  0.57621  1.0000
  H   H399      1.0  0.76946  0.31088  0.53127  1.0000
  H   H400      1.0  0.73556  0.21089  0.56786  1.0000
  H   H401      1.0  0.73447  0.23533  0.61293  1.0000
  C   C408      1.0  0.69108  0.09047  0.63395  1.0000
  C   C409      1.0  0.72168  0.12263  0.63492  1.0000
  H   H402      1.0  0.75169  0.16959  0.65783  1.0000
  H   H403      1.0  0.74034  0.13037  0.61850  1.0000
  H   H404      1.0  0.56746  0.43762  0.48477  1.0000
  S   S143      1.0  0.62297  0.05302  0.42339  1.0000
  H   H405      1.0  0.65903  0.11056  0.58549  1.0000
  C   C410      1.0  0.60964  0.30966  0.65703  1.0000
  H   H406      1.0  0.65887  0.39780  0.40419  1.0000
  C   C411      1.0  0.64099  0.12710  0.52187  1.0000
  C   C412      1.0  0.61572  0.25272  0.36837  1.0000
  N   N34       1.0  0.67374  0.14231  0.51096  1.0000
  S   S144      1.0  0.89757  0.37715  0.47181  1.0000
  C   C413      1.0  0.54261  0.32767  0.65762  1.0000
  N   N35       1.0  0.85071  0.31772  0.55819  1.0000
  C   C414      1.0  0.56750  0.37213  0.62303  1.0000
  C   C415      1.0  0.57205  0.31177  0.41311  1.0000
  C   C416      1.0  0.64523  0.36581  0.63609  1.0000
  H   H407      1.0  0.87674  0.32201  0.52091  1.0000
  H   H408      1.0  0.72720  0.15795  0.51754  1.0000
  H   H409      1.0  0.84705  0.30630  0.63611  1.0000
  C   C417      1.0  0.86548  0.34273  0.60281  1.0000
  H   H410      1.0  0.73197  0.34628  0.36705  1.0000
  H   H411      1.0  0.60124  0.43947  0.61511  1.0000
  H   H412      1.0  0.61892  0.12301  0.50957  1.0000
  C   C418      1.0  0.97170  0.41162  0.40432  1.0000
  S   S145      1.0  0.02014  0.34262  0.45938  1.0000
  N   N36       1.0  0.93422  0.34990  0.39960  1.0000
  C   C419      1.0  0.93843  0.38240  0.40396  1.0000
  H   H413      1.0  0.85428  0.34683  0.52245  1.0000
  C   C420      1.0  0.83414  0.28501  0.56925  1.0000
  C   C421      1.0  0.00072  0.40747  0.39996  1.0000
  N   N37       1.0  0.70274  0.32163  0.53643  1.0000
  C   C422      1.0  0.67914  0.29481  0.55219  1.0000
  C   C423      1.0  0.72068  0.35458  0.54678  1.0000
  C   C424      1.0  0.67349  0.30058  0.57919  1.0000
  C   C425      1.0  0.71540  0.36135  0.57356  1.0000
  C   C426      1.0  0.69180  0.33408  0.58987  1.0000
  C   C427      1.0  0.70710  0.31540  0.50784  1.0000
  H   H414      1.0  0.66438  0.26883  0.54387  1.0000
  H   H415      1.0  0.73903  0.37596  0.53434  1.0000
  H   H416      1.0  0.65445  0.27944  0.59159  1.0000
  H   H417      1.0  0.72924  0.38771  0.58139  1.0000
  H   H418      1.0  0.68727  0.33896  0.61062  1.0000
  H   H419      1.0  0.70503  0.28942  0.50505  1.0000
  H   H420      1.0  0.68705  0.31713  0.49534  1.0000
  H   H421      1.0  0.73305  0.33502  0.50006  1.0000
  N   N38       1.0  0.58580  0.39655  0.64237  1.0000
  H   H422      1.0  0.81901  0.25448  0.60617  1.0000
  C   C428      1.0  0.57413  0.05627  0.45656  1.0000
  C   C429      1.0  0.84818  0.30950  0.61424  1.0000
  H   H423      1.0  0.67656  0.13042  0.46967  1.0000
  H   H424      1.0  0.53203  0.31791  0.61483  1.0000
  H   H425      1.0  0.87798  0.36543  0.61583  1.0000
  S   S146      1.0  0.56635  0.34433  0.54406  1.0000
  H   H426      1.0  0.65953  0.15972  0.47514  1.0000
  H   H427      1.0  0.64127  0.04526  0.47783  1.0000
  C   C430      1.0  0.66597  0.29496  0.34341  1.0000
  C   C431      1.0  0.60372  0.05247  0.45493  1.0000
  H   H428      1.0  0.57518  0.30490  0.37007  1.0000
  C   C432      1.0  0.61795  0.04751  0.47883  1.0000
  C   C433      1.0  0.62088  0.33043  0.63366  1.0000
  H   H429      1.0  0.70514  0.17555  0.47887  1.0000
  C   C434      1.0  0.96255  0.34559  0.39534  1.0000
  C   C435      1.0  0.60168  0.04464  0.50400  1.0000
  H   H430      1.0  0.54795  0.28755  0.41562  1.0000
  C   C436      1.0  0.67902  0.15247  0.48224  1.0000
  C   C437      1.0  0.58795  0.33276  0.43584  1.0000
  H   H431      1.0  0.91602  0.38581  0.40775  1.0000
  C   C438      1.0  0.53112  0.42152  0.54569  1.0000
  H   H432      1.0  0.71798  0.13709  0.56531  1.0000
  H   H433      1.0  0.88830  0.31659  0.37761  1.0000
  H   H434      1.0  0.71102  0.36246  0.34389  1.0000
  Fe  Fe72      1.0  0.59628  0.35025  0.50547  1.0000
  C   C439      1.0  0.83249  0.28042  0.59742  1.0000
  C   C440      1.0  0.63451  0.37380  0.40653  1.0000
  H   H435      1.0  0.53208  0.50069  0.61987  1.0000
  H   H436      1.0  0.60916  0.10347  0.55737  1.0000
  H   H437      1.0  0.56384  0.06176  0.43852  1.0000
  C   C441      1.0  0.96499  0.39199  0.47539  1.0000
  C   C442      1.0  0.61878  0.35271  0.38385  1.0000
  C   C443      1.0  0.89906  0.31977  0.39845  1.0000
  C   C444      1.0  0.85304  0.32196  0.52863  1.0000
  Fe  Fe73      1.0  0.61176  0.34635  0.56608  1.0000
  C   C445      1.0  0.60998  0.43247  0.63414  1.0000
  S   S147      1.0  0.60424  0.31114  0.60187  1.0000
  C   C446      1.0  0.69634  0.13470  0.55325  1.0000
  C   C447      1.0  0.65877  0.30582  0.38946  1.0000
  S   S148      1.0  0.63958  0.36565  0.35185  1.0000
  H   H438      1.0  0.82985  0.30059  0.51861  1.0000
  H   H439      1.0  0.63135  0.38054  0.44964  1.0000
  S   S149      1.0  0.62390  0.40866  0.50561  1.0000
  C   C448      1.0  0.61907  0.36397  0.43239  1.0000
  H   H440      1.0  0.59131  0.28214  0.65532  1.0000
  N   N39       1.0  0.67699  0.31622  0.36561  1.0000
  C   C449      1.0  0.78065  0.29101  0.34837  1.0000
  H   H441      1.0  0.66777  0.32245  0.40713  1.0000
  C   C450      1.0  0.62777  0.27408  0.39118  1.0000
  Fe  Fe74      1.0  0.56374  0.01956  0.57221  1.0000
  C   C451      1.0  0.70902  0.34987  0.36387  1.0000
  H   H442      1.0  0.56684  0.34922  0.34064  1.0000
  Fe  Fe75      1.0  0.58918  0.04308  0.38634  1.0000
  C   C452      1.0  0.66725  0.08034  0.65533  1.0000
  C   C453      1.0  0.70126  0.14609  0.52623  1.0000
  N   N40       1.0  0.55485  0.38892  0.32975  1.0000
  H   H443      1.0  0.01864  0.37065  0.39283  1.0000
  H   H444      1.0  0.70936  0.36822  0.37953  1.0000
  S   S150      1.0  0.54884  0.04146  0.53639  1.0000
  C   C454      1.0  0.54388  0.41865  0.47467  1.0000
  H   H445      1.0  0.69294  0.31049  0.65591  1.0000
  H   H446      1.0  0.56999  0.37940  0.60174  1.0000
  C   C455      1.0  0.63502  0.26310  0.34436  1.0000
  C   C456      1.0  0.99619  0.37424  0.39561  1.0000
  H   H447      1.0  0.61295  0.04091  0.52221  1.0000
  H   H448      1.0  0.02097  0.42169  0.53597  1.0000
  C   C457      1.0  0.54570  0.33735  0.63034  1.0000
  H   H449      1.0  0.64389  0.05537  0.65463  1.0000
  C   C458      1.0  0.72798  0.14495  0.65708  1.0000
  H   H450      1.0  0.53371  0.47072  0.55383  1.0000
  C   C459      1.0  0.54579  0.35586  0.34321  1.0000
  C   C460      1.0  0.53894  0.13190  0.33550  1.0000
  H   H451      1.0  0.54165  0.35761  0.36525  1.0000
  Fe  Fe76      1.0  0.53933  0.06040  0.35727  1.0000
  H   H452      1.0  0.53475  0.05604  0.48270  1.0000
  S   S151      1.0  0.78029  0.24295  0.66033  1.0000
  S   S152      1.0  0.53235  0.02420  0.39168  1.0000
  H   H453      1.0  0.60947  0.40960  0.33520  1.0000
  H   H454      1.0  0.02669  0.42993  0.40011  1.0000
  C   C461      1.0  0.68694  0.30507  0.67732  1.0000
  Fe  Fe77      1.0  0.77549  0.28683  0.72749  1.0000
  S   S153      1.0  0.79428  0.24802  0.72621  1.0000
  S   S154      1.0  0.77251  0.31253  0.76637  1.0000
  Fe  Fe78      1.0  0.82334  0.27669  0.68877  1.0000
  C   C462      1.0  0.54123  0.42930  0.97813  1.0000
  Fe  Fe79      1.0  0.74933  0.21861  0.69812  1.0000
  S   S155      1.0  0.71043  0.16248  0.70600  1.0000
  S   S156      1.0  0.80819  0.31812  0.69209  1.0000
  S   S157      1.0  0.72854  0.25577  0.70154  1.0000
  S   S158      1.0  0.57500  0.30114  0.74581  1.0000
  H   H455      1.0  0.65228  0.39770  0.90953  1.0000
  C   C463      1.0  0.66654  0.29107  0.97430  1.0000
  Fe  Fe80      1.0  0.53984  0.06581  0.85518  1.0000
  S   S159      1.0  0.87768  0.28699  0.68009  1.0000
  C   C464      1.0  0.65731  0.38050  0.66182  1.0000
  H   H456      1.0  0.53409  0.48544  0.79711  1.0000
  S   S160      1.0  0.59688  0.08405  0.85201  1.0000
  Fe  Fe81      1.0  0.83397  0.32831  0.95755  1.0000
  S   S161      1.0  0.80939  0.27014  0.95596  1.0000
  Fe  Fe82      1.0  0.76672  0.32728  0.94340  1.0000
  S   S162      1.0  0.73659  0.26913  0.94126  1.0000
  S   S163      1.0  0.73617  0.35363  0.93237  1.0000
  S   S164      1.0  0.79191  0.32851  0.98303  1.0000
  Fe  Fe83      1.0  0.78295  0.27483  0.91823  1.0000
  S   S165      1.0  0.77517  0.24428  0.87956  1.0000
  H   H457      1.0  0.68298  0.11554  0.85330  1.0000
  S   S166      1.0  0.81139  0.33311  0.91804  1.0000
  C   C465      1.0  0.72927  0.37497  0.95969  1.0000
  C   C466      1.0  0.70014  0.37964  0.95942  1.0000
  H   H458      1.0  0.66992  0.39751  0.98175  1.0000
  H   H459      1.0  0.68305  0.37150  0.94204  1.0000
  S   S167      1.0  0.00866  0.32888  0.95329  1.0000
  C   C467      1.0  0.97515  0.33840  0.96054  1.0000
  C   C468      1.0  0.92110  0.35401  0.96823  1.0000
  C   C469      1.0  0.91332  0.32017  0.96143  1.0000
  C   C470      1.0  0.94036  0.31240  0.95756  1.0000
  H   H460      1.0  0.88664  0.30018  0.95851  1.0000
  H   H461      1.0  0.93438  0.28638  0.95173  1.0000
  C   C471      1.0  0.97302  0.37129  0.67250  1.0000
  H   H462      1.0  0.69424  0.30089  0.97190  1.0000
  Fe  Fe84      1.0  0.76316  0.28261  0.66579  1.0000
  C   C472      1.0  0.00896  0.42594  0.90092  1.0000
  H   H463      1.0  0.67109  0.10402  0.74643  1.0000
  C   C473      1.0  0.65109  0.26717  0.71326  1.0000
  C   C474      1.0  0.67392  0.10220  0.67773  1.0000
  H   H464      1.0  0.90641  0.39399  0.74428  1.0000
  H   H465      1.0  0.68491  0.07824  0.76520  1.0000
  C   C475      1.0  0.70743  0.32960  0.69681  1.0000
  H   H466      1.0  0.90030  0.33290  0.87588  1.0000
  C   C476      1.0  0.95572  0.37953  0.97241  1.0000
  C   C477      1.0  0.54235  0.14029  0.83326  1.0000
  N   N41       1.0  0.94418  0.36611  0.89968  1.0000
  S   S168      1.0  0.59898  0.23383  0.77674  1.0000
  H   H467      1.0  0.74963  0.36146  0.73826  1.0000
  C   C478      1.0  0.67473  0.14359  0.98257  1.0000
  C   C479      1.0  0.77444  0.29385  0.79768  1.0000
  C   C480      1.0  0.77424  0.26204  0.79880  1.0000
  C   C481      1.0  0.77516  0.24745  0.82400  1.0000
  C   C482      1.0  0.77623  0.26448  0.84828  1.0000
  C   C483      1.0  0.77692  0.29652  0.84717  1.0000
  C   C484      1.0  0.77579  0.31103  0.82199  1.0000
  H   H468      1.0  0.77297  0.24839  0.78034  1.0000
  H   H469      1.0  0.77497  0.22282  0.82467  1.0000
  H   H470      1.0  0.77815  0.31008  0.86569  1.0000
  H   H471      1.0  0.77612  0.33573  0.82133  1.0000
  H   H472      1.0  0.56296  0.06356  0.94012  1.0000
  C   C485      1.0  0.56243  0.09173  0.69098  1.0000
  C   C486      1.0  0.58333  0.38719  0.66915  1.0000
  H   H473      1.0  0.65563  0.09387  0.69438  1.0000
  H   H474      1.0  0.56720  0.31355  0.86799  1.0000
  H   H475      1.0  0.63674  0.03759  0.97429  1.0000
  H   H476      1.0  0.59671  0.28143  0.93836  1.0000
  Fe  Fe85      1.0  0.76556  0.27060  0.97910  1.0000
  S   S169      1.0  0.62103  0.05483  0.92192  1.0000
  Fe  Fe86      1.0  0.55294  0.32239  0.77654  1.0000
  C   C487      1.0  0.60115  0.05014  0.95390  1.0000
  C   C488      1.0  0.91827  0.37748  0.74413  1.0000
  C   C489      1.0  0.94669  0.39721  0.90700  1.0000
  C   C490      1.0  0.72165  0.34920  0.74384  1.0000
  C   C491      1.0  0.97910  0.42752  0.90788  1.0000
  H   H477      1.0  0.70394  0.17072  0.76268  1.0000
  Fe  Fe87      1.0  0.59081  0.28023  0.78138  1.0000
  H   H478      1.0  0.53496  0.37702  0.82108  1.0000
  H   H479      1.0  0.53602  0.29222  0.91175  1.0000
  H   H480      1.0  0.89060  0.33636  0.91100  1.0000
  C   C492      1.0  0.56489  0.46016  0.79951  1.0000
  N   N42       1.0  0.96940  0.37139  0.74094  1.0000
  C   C493      1.0  0.69261  0.39422  0.98188  1.0000
  H   H481      1.0  0.97160  0.33954  0.88787  1.0000
  H   H482      1.0  0.01568  0.36914  0.73115  1.0000
  H   H483      1.0  0.57476  0.43899  0.72541  1.0000
  H   H484      1.0  0.89698  0.29224  0.74362  1.0000
  H   H485      1.0  0.01927  0.39658  0.75946  1.0000
  C   C494      1.0  0.65861  0.27368  0.68564  1.0000
  C   C495      1.0  0.68607  0.10923  0.81004  1.0000
  S   S170      1.0  0.53068  0.03033  0.89068  1.0000
  H   H486      1.0  0.53426  0.05441  0.98498  1.0000
  C   C496      1.0  0.68760  0.12786  0.83347  1.0000
  H   H487      1.0  0.67978  0.08223  0.81202  1.0000
  C   C497      1.0  0.69901  0.15842  0.78251  1.0000
  H   H488      1.0  0.60757  0.17480  0.78638  1.0000
  Fe  Fe88      1.0  0.58669  0.04540  0.88538  1.0000
  H   H489      1.0  0.64640  0.21870  0.85257  1.0000
  H   H490      1.0  0.64233  0.25465  0.67068  1.0000
  C   C498      1.0  0.98263  0.37173  0.96860  1.0000
  C   C499      1.0  0.55005  0.19526  0.81554  1.0000
  H   H491      1.0  0.63133  0.04401  0.72911  1.0000
  C   C500      1.0  0.65761  0.24638  0.85643  1.0000
  N   N43       1.0  0.69210  0.12470  0.78501  1.0000
  C   C501      1.0  0.91301  0.32038  0.74395  1.0000
  C   C502      1.0  0.57254  0.05536  0.95717  1.0000
  C   C503      1.0  0.54977  0.42110  0.73423  1.0000
  H   H492      1.0  0.67599  0.40793  0.66356  1.0000
  H   H493      1.0  0.62095  0.37638  0.95328  1.0000
  H   H494      1.0  0.70499  0.25220  0.87408  1.0000
  S   S171      1.0  0.63537  0.37272  0.85495  1.0000
  H   H495      1.0  0.55167  0.08276  0.67089  1.0000
  C   C504      1.0  0.69032  0.26510  0.86845  1.0000
  S   S172      1.0  0.65920  0.37933  0.71742  1.0000
  C   C505      1.0  0.62689  0.37463  0.90992  1.0000
  H   H496      1.0  0.61320  0.30794  0.70042  1.0000
  H   H497      1.0  0.66011  0.30293  0.93288  1.0000
  H   H498      1.0  0.01789  0.41007  0.72503  1.0000
  H   H499      1.0  0.92358  0.39861  0.91259  1.0000
  C   C506      1.0  0.61185  0.28023  0.95523  1.0000
  C   C507      1.0  0.63920  0.26346  0.84947  1.0000
  H   H500      1.0  0.71913  0.33764  0.76435  1.0000
  C   C508      1.0  0.60917  0.36263  0.93477  1.0000
  C   C509      1.0  0.95442  0.39216  0.74210  1.0000
  H   H501      1.0  0.72953  0.31518  0.88256  1.0000
  C   C510      1.0  0.70423  0.30082  0.87306  1.0000
  C   C511      1.0  0.67234  0.29214  0.73221  1.0000
  S   S173      1.0  0.64214  0.32858  0.78727  1.0000
  C   C512      1.0  0.61195  0.35706  0.88566  1.0000
  C   C513      1.0  0.69491  0.16235  0.83112  1.0000
  C   C514      1.0  0.64496  0.35997  0.68529  1.0000
  H   H502      1.0  0.61372  0.24923  0.84018  1.0000
  H   H503      1.0  0.56852  0.25882  0.98301  1.0000
  N   N44       1.0  0.68625  0.31747  0.86563  1.0000
  H   H504      1.0  0.63967  0.13539  0.72369  1.0000
  C   C515      1.0  0.65390  0.29915  0.85439  1.0000
  C   C516      1.0  0.91114  0.33030  0.67607  1.0000
  C   C517      1.0  0.69130  0.10543  0.76055  1.0000
  C   C518      1.0  0.61431  0.04119  0.97655  1.0000
  H   H505      1.0  0.69832  0.36799  0.85190  1.0000
  H   H506      1.0  0.98106  0.45206  0.91396  1.0000
  C   C519      1.0  0.56947  0.14350  0.81657  1.0000
  C   C520      1.0  0.70013  0.17760  0.80546  1.0000
  Fe  Fe89      1.0  0.62495  0.35009  0.75311  1.0000
  Fe  Fe90      1.0  0.61279  0.34525  0.81524  1.0000
  C   C521      1.0  0.70109  0.35493  0.87029  1.0000
  C   C522      1.0  0.57639  0.33292  0.93555  1.0000
  H   H507      1.0  0.63932  0.31212  0.84902  1.0000
  H   H508      1.0  0.70557  0.20432  0.80335  1.0000
  H   H509      1.0  0.71690  0.11869  0.75001  1.0000
  S   S174      1.0  0.60202  0.37301  0.78175  1.0000
  C   C523      1.0  0.57909  0.32731  0.88646  1.0000
  H   H510      1.0  0.68747  0.35949  0.88748  1.0000
  H   H511      1.0  0.54764  0.38452  0.97162  1.0000
  H   H512      1.0  0.72925  0.36771  0.87523  1.0000
  C   C524      1.0  0.58904  0.11153  0.74286  1.0000
  H   H513      1.0  0.69674  0.17728  0.84916  1.0000
  Fe  Fe91      1.0  0.58007  0.03908  0.82320  1.0000
  S   S175      1.0  0.00069  0.44249  0.67629  1.0000
  C   C525      1.0  0.62157  0.32439  0.68273  1.0000
  H   H514      1.0  0.77441  0.38308  0.98221  1.0000
  H   H515      1.0  0.95079  0.31548  0.67268  1.0000
  C   C526      1.0  0.56138  0.31532  0.91132  1.0000
  H   H516      1.0  0.56278  0.38050  0.74046  1.0000
  H   H517      1.0  0.86934  0.32953  0.74576  1.0000
  C   C527      1.0  0.61179  0.12079  0.72070  1.0000
  H   H518      1.0  0.57698  0.12362  0.81683  1.0000
  C   C528      1.0  0.58662  0.17236  0.79927  1.0000
  H   H519      1.0  0.72908  0.35417  0.69017  1.0000
  C   C529      1.0  0.57685  0.19819  0.79868  1.0000
  C   C530      1.0  0.53441  0.46199  0.80327  1.0000
  S   S176      1.0  0.88874  0.36615  0.97010  1.0000
  C   C531      1.0  0.94545  0.33695  0.67345  1.0000
  C   C532      1.0  0.55651  0.05050  0.98270  1.0000
  H   H520      1.0  0.99922  0.37594  0.67061  1.0000
  H   H521      1.0  0.62884  0.24311  0.72009  1.0000
  C   C533      1.0  0.94925  0.33594  0.74208  1.0000
  C   C534      1.0  0.89748  0.34133  0.74497  1.0000
  C   C535      1.0  0.70394  0.13483  0.67841  1.0000
  N   N45       1.0  0.70023  0.32276  0.72387  1.0000
  H   H522      1.0  0.96106  0.31943  0.74081  1.0000
  C   C536      1.0  0.64733  0.29213  0.95213  1.0000
  C   C537      1.0  0.58565  0.02420  0.70400  1.0000
  C   C538      1.0  0.75143  0.38584  0.98216  1.0000
  H   H523      1.0  0.66633  0.28679  0.75362  1.0000
  S   S177      1.0  0.55408  0.31645  0.96654  1.0000
  C   C539      1.0  0.56145  0.35270  0.67720  1.0000
  C   C540      1.0  0.60350  0.03380  0.72886  1.0000
  C   C541      1.0  0.54040  0.08329  0.71354  1.0000
  S   S178      1.0  0.56239  0.29532  0.81180  1.0000
  C   C542      1.0  0.00734  0.38750  0.73915  1.0000
  H   H524      1.0  0.91086  0.31112  0.90236  1.0000
  H   H525      1.0  0.59873  0.40623  0.68443  1.0000
  H   H526      1.0  0.67343  0.12151  0.97072  1.0000
  H   H527      1.0  0.59970  0.02729  0.68534  1.0000
  H   H528      1.0  0.00907  0.39157  0.97200  1.0000
  H   H529      1.0  0.61572  0.11699  0.67733  1.0000
  C   C543      1.0  0.90444  0.35819  0.67656  1.0000
  C   C544      1.0  0.59833  0.11062  0.69463  1.0000
  H   H530      1.0  0.65389  0.14876  0.97524  1.0000
  H   H531      1.0  0.59968  0.11893  0.76312  1.0000
  H   H532      1.0  0.71371  0.36952  0.74490  1.0000
  H   H533      1.0  0.58867  0.42783  0.80333  1.0000
  C   C545      1.0  0.97342  0.36424  0.89322  1.0000
  C   C546      1.0  0.96652  0.39922  0.67421  1.0000
  S   S179      1.0  0.60918  0.04572  0.78376  1.0000
  C   C547      1.0  0.58556  0.03047  0.75320  1.0000
  H   H534      1.0  0.69999  0.16748  0.97850  1.0000
  C   C548      1.0  0.00619  0.39411  0.89367  1.0000
  C   C549      1.0  0.90982  0.33512  0.89703  1.0000
  C   C550      1.0  0.93207  0.39257  0.67559  1.0000
  C   C551      1.0  0.53020  0.39517  0.96963  1.0000
  H   H535      1.0  0.87818  0.35349  0.67825  1.0000
  N   N46       1.0  0.55384  0.09283  0.73910  1.0000
  C   C552      1.0  0.53529  0.40135  0.81674  1.0000
  H   H536      1.0  0.92681  0.41408  0.67669  1.0000
  H   H537      1.0  0.97041  0.42026  0.74061  1.0000
  H   H538      1.0  0.56676  0.44480  0.98708  1.0000
  C   C553      1.0  0.56533  0.42972  0.80649  1.0000
  H   H539      1.0  0.96184  0.40565  0.97802  1.0000
  H   H540      1.0  0.54228  0.21503  0.81508  1.0000
  H   H541      1.0  0.55976  0.34529  0.69841  1.0000
  H   H542      1.0  0.54180  0.07860  0.78073  1.0000
  H   H543      1.0  0.58767  0.48190  0.79052  1.0000
  C   C554      1.0  0.53049  0.08423  0.76255  1.0000
  C   C555      1.0  0.54315  0.38809  0.74303  1.0000
  C   C556      1.0  0.59599  0.26735  0.98033  1.0000
  S   S180      1.0  0.53500  0.47422  0.72869  1.0000
  C   C557      1.0  0.53276  0.16626  0.83276  1.0000
  Fe  Fe92      1.0  0.55911  0.99838  0.13385  1.0000
  S   S181      1.0  0.60070  0.99203  0.06611  1.0000
  C   C558      1.0  0.55387  0.00818  0.20389  1.0000
  S   S182      1.0  0.54918  0.89362  0.08395  1.0000
  Fe  Fe93      1.0  0.56532  0.94933  0.09439  1.0000
  Fe  Fe94      1.0  0.56466  0.01342  0.07229  1.0000
  S   S183      1.0  0.59565  0.97670  0.13170  1.0000
  H   H544      1.0  0.55691  0.92452  0.03036  1.0000
  H   H545      1.0  0.55372  0.87848  0.32561  1.0000
  C   C559      1.0  0.55304  0.01477  0.25301  1.0000
  H   H546      1.0  0.54237  0.82323  0.16621  1.0000
  C   C560      1.0  0.54931  0.93352  0.01244  1.0000
  H   H547      1.0  0.54711  0.84111  0.13227  1.0000
  H   H548      1.0  0.55865  0.89681  0.15110  1.0000
  C   C561      1.0  0.53213  0.88387  0.15871  1.0000
  H   H549      1.0  0.53297  0.93228  0.16763  1.0000
  H   H550      1.0  0.53843  0.01121  0.27139  1.0000
  H   H551      1.0  0.53135  0.78909  0.00676  1.0000
  C   C562      1.0  0.53539  0.00315  0.22820  1.0000
  H   H552      1.0  0.53601  0.92051  0.28819  1.0000
  H   H553      1.0  0.54187  0.92814  0.32438  1.0000
  S   S184      1.0  0.53086  0.99605  0.17290  1.0000
  C   C563      1.0  0.52851  0.82765  0.14920  1.0000
  S   S185      1.0  0.52699  0.96845  0.09791  1.0000
  S   S186      1.0  0.58205  0.00204  0.35594  1.0000
  H   H554      1.0  0.53716  0.79874  0.50958  1.0000
  N   N47       1.0  0.54999  0.96276  0.45581  1.0000
  H   H555      1.0  0.56757  0.89273  0.39581  1.0000
  S   S187      1.0  0.54571  0.89850  0.58614  1.0000
  H   H556      1.0  0.55078  0.93663  0.38228  1.0000
  Fe  Fe95      1.0  0.56244  0.95478  0.59494  1.0000
  H   H557      1.0  0.60373  0.97734  0.45368  1.0000
  C   C564      1.0  0.57929  0.96251  0.44196  1.0000
  S   S188      1.0  0.59185  0.98193  0.63261  1.0000
  H   H558      1.0  0.54437  0.84852  0.63352  1.0000
  S   S189      1.0  0.59910  0.99715  0.56693  1.0000
  C   C565      1.0  0.54893  0.96304  0.48357  1.0000
  H   H559      1.0  0.55780  0.90468  0.65267  1.0000
  H   H560      1.0  0.58424  0.97566  0.42186  1.0000
  H   H561      1.0  0.57381  0.93531  0.43907  1.0000
  H   H562      1.0  0.56999  0.96386  0.49545  1.0000
  C   C566      1.0  0.53133  0.90952  0.38310  1.0000
  Fe  Fe96      1.0  0.55593  0.00438  0.63364  1.0000
  C   C567      1.0  0.54079  0.88460  0.39081  1.0000
  H   H563      1.0  0.53277  0.62960  0.43326  1.0000
  H   H564      1.0  0.52877  0.80465  0.46017  1.0000
  S   S190      1.0  0.52898  0.81835  0.39961  1.0000
  C   C568      1.0  0.52696  0.83547  0.65119  1.0000
  H   H565      1.0  0.52738  0.81486  0.33225  1.0000
  H   H566      1.0  0.55772  0.89720  0.90283  1.0000
  C   C569      1.0  0.54978  0.01141  0.70329  1.0000
  C   C570      1.0  0.53163  0.00692  0.72768  1.0000
  H   H567      1.0  0.53069  0.92565  0.82694  1.0000
  S   S191      1.0  0.57673  0.00232  0.85619  1.0000
  C   C571      1.0  0.55245  0.94392  0.96413  1.0000
  H   H568      1.0  0.54166  0.94147  0.88870  1.0000
  H   H569      1.0  0.56269  0.94268  0.94436  1.0000
  C   C572      1.0  0.53157  0.88912  0.89597  1.0000
  H   H570      1.0  0.54237  0.98306  0.92843  1.0000
  H   H571      1.0  0.58013  0.92172  0.98494  1.0000
  H   H572      1.0  0.54706  0.90866  0.80083  1.0000
  N   N48       1.0  0.53037  0.95725  0.96667  1.0000
  H   H573      1.0  0.54199  0.83135  0.66741  1.0000
  H   H574      1.0  0.54862  0.89864  0.83634  1.0000
  H   H575      1.0  0.53514  0.01298  0.77105  1.0000
  H   H576      1.0  0.53359  0.94085  0.67062  1.0000
  C   C573      1.0  0.56235  0.93197  0.98696  1.0000
  C   C574      1.0  0.53298  0.90266  0.82051  1.0000
  S   S192      1.0  0.52724  0.00285  0.67226  1.0000
  C   C575      1.0  0.53179  0.89208  0.66128  1.0000
  C   C576      1.0  0.54943  0.01631  0.75254  1.0000
