data_image0
_chemical_formula_structural       CFeS2FeS2FeSFeS3HCHCHFeS2NH3C6H4C2NC3SH3SCHC4HC7H5C3H3CHC2HNH2C2H3CH2C2FeCSH2CHC3HCNH2CH6CHC2H4CFeSHFeSFeSFeS3FeCSCSFeCHCNH3SH3CNHFeC2SC2HC3H3C6H4FeCSHC3HCSCHNCH2C2S2CNHCHC2HCH4CHCH4CHCSHSC2SH2FeH3C3FeS2FeH2FeSFeCS2HS2NCFeS3CFeSCFeS2FeHFeS3FeS2FeS2FeSFeHS2CS2C3HCHC6H7CFeCFeC3HCSC4HCH4C6H4C6H5CHC6H4NCH5C4NC6H8C2S2HC2FeNH2C2H5C3NC6H7CH4CSCH2NCSCHSH3CH6C2HCHFeHCSCH4C4FeHSNHFeHSFeS2HFeCS2HCSFeS2FeS2FeSFeS3H2C3HC2H4CH2CHC6H4C6H6NH2CHCNH2CH2C3H3CFeCH2CH3NC6HCSCNH2C3FeSC2H2CH2CH2C3HCSCH3C2H4C2H2CHCSC2H3SC7HCHCHCH3CSHCH2CH2CHCHC2H3CHFeS4H2C6H3SHNHC2HFeSCH2C2HFeHSHSHC2H2N2HFeSFeH2CHS2NCHCHSC4HSH3C2HC2HCHCSH3FeHC3H3CSCFeS2FeS2FeSFeS3HCHNHSC3HC2H2C2HCHCHC6H4C6H5C2HCH2C4H4CHN2C2H2C2NC6H8SCHC2SCH3FeCH2CHC2FeHSCHCNFeC2SCH4CH3C3SFeS2FeS2FeSFeS3HSH2NHFeSFe2SFeSCSNCHCHSC5H3C7H4C2HC2HFeC6H4C2H3C3HCH3CSC2H2NHC3HC2SCH2C2H3CHNC3H3C2H5NCNH2CSC2SHCHCHSCH4CH2CH5CHCHFeSFeSCFeSFeS3FeCSHCSH3NHCSCSNCSH3C3H3SFeSC3FeH2C2NHC5HC6H5CH3CSCH2CHCH3C2H7CHC2HSCSHCHCHCH2C2HNCS2H2CHSHCHC2HSHFeSCFeSHSFeS2FeS2FeSFeS3CHNCHC6HCH2C6H4SC2H2C10H6NH2CNH2C2H4CHSH3CH2CNCH2CH3C2HCH2FeH3C2SC4SH2SHC2NH2CNCH2CNH3C6H2FeHC3H2SCNH2C4H2CHSH3CHCHC3H2C2HC3NC2HSH2CHCH3FeCH2SC2FeS2Fe3S4FeSHCFeCSC2HC3H7CNHC10H2CH2SH2CNS2CHC2H4CHSC2NHSH2CSH2SCHCSFeH2C2H2CHC3HCH2FeHCH3SFeS2FeSFeCS2HSFeS2FeS2Fe2S3FeS2FeS2FeSFeS3CFeCHFeCSFeCHS2CHC6H4C2NC3H4C3HC7H4C6H4C3H2C6H4C6SH2C3SH2CSH3NC2HCHC2H2C3HCNC6H8CHCHC2H5C3HCHSNC5H5CHCH2CH3C2HSHC2HFeNHSCHCHSCHC3H2SC2SC3H2NHCH4C2HNHFeH2CH2FeH3C4H2S2H5CSHFeSHSHFeS2C3FeCFeS3FeSHFeS2FeS2FeS2FeSFeS2FeS2FeS2FeSFeS3HC4SCH2C7H4C5H2C6H4C7H4C3SC2HFeH2C6H3SHNC3H4CHC2HCHCSCH3CSH7CH2C3FeC2NC3H2CH10NCH2C2H2C2H2CHSC3H4CSHCH2SHFeH2FeC2H2C2SHC2NSNH2FeHCNH3FeHCHNHCH2NSC3FeCFeHC3H2C2HCSHCHC3HCHCFeS2FeS2FeSFeS3HNS3HSFeSH2FeC2HC3H2FeH4C6H4C3H2SC7H3FeNHCH2C5SCH6C2HFeHCFeH2SCHC2HC5H3C2NH4C2FeHC2H3SHFeS2FeS2FeSFeS3CSHC6H4C6H7CHC2H2C5HC2HC2H2CHCH6CHCNHCHC2FeCH2CHNCH4CH4CSHC5NCNC3H2CHCFe
_chemical_formula_sum              "C864 Fe144 S288 H864 N72"
_cell_length_a       72.7097
_cell_length_b       74.8022
_cell_length_c       32.1933
_cell_angle_alpha    89.0819
_cell_angle_beta     91.1668
_cell_angle_gamma    111.955

_space_group_name_H-M_alt    "P 1"
_space_group_IT_number       1

loop_
  _space_group_symop_operation_xyz
  'x, y, z'

loop_
  _atom_site_type_symbol
  _atom_site_label
  _atom_site_symmetry_multiplicity
  _atom_site_fract_x
  _atom_site_fract_y
  _atom_site_fract_z
  _atom_site_occupancy
  C   C1        1.0  0.20971  0.04248  0.41960  1.0000
  Fe  Fe1       1.0  0.27218  0.05638  0.26996  1.0000
  S   S1        1.0  0.24757  0.06519  0.24630  1.0000
  S   S2        1.0  0.28500  0.06743  0.33354  1.0000
  Fe  Fe2       1.0  0.27204  0.03373  0.19044  1.0000
  S   S3        1.0  0.24735  0.04121  0.16167  1.0000
  S   S4        1.0  0.27953  0.00941  0.16243  1.0000
  Fe  Fe3       1.0  0.26361  0.07141  0.18577  1.0000
  S   S5        1.0  0.27008  0.09855  0.14508  1.0000
  Fe  Fe4       1.0  0.23387  0.03444  0.22487  1.0000
  S   S6        1.0  0.20161  0.01684  0.23595  1.0000
  S   S7        1.0  0.28950  0.06433  0.21054  1.0000
  S   S8        1.0  0.25733  0.02533  0.25269  1.0000
  H   H1        1.0  0.44619  0.98874  0.10700  1.0000
  C   C2        1.0  0.31657  0.15058  0.15572  1.0000
  H   H2        1.0  0.19755  0.00661  0.44780  1.0000
  C   C3        1.0  0.31765  0.02436  0.47657  1.0000
  H   H3        1.0  0.26269  0.00500  0.50810  1.0000
  Fe  Fe5       1.0  0.26041  0.20389  0.12507  1.0000
  S   S9        1.0  0.25139  0.17543  0.16231  1.0000
  S   S10       1.0  0.23766  0.21428  0.09541  1.0000
  N   N1        1.0  0.30180  0.13333  0.21781  1.0000
  H   H4        1.0  0.19288  0.21592  0.32692  1.0000
  H   H5        1.0  0.16367  0.99222  0.26211  1.0000
  H   H6        1.0  0.31489  0.12201  0.17144  1.0000
  C   C4        1.0  0.26337  0.11913  0.14907  1.0000
  C   C5        1.0  0.26977  0.13369  0.11834  1.0000
  C   C6        1.0  0.26605  0.15086  0.12147  1.0000
  C   C7        1.0  0.25576  0.15370  0.15542  1.0000
  C   C8        1.0  0.24907  0.13900  0.18581  1.0000
  C   C9        1.0  0.25284  0.12185  0.18273  1.0000
  H   H7        1.0  0.27786  0.13175  0.09206  1.0000
  H   H8        1.0  0.27122  0.16192  0.09770  1.0000
  H   H9        1.0  0.24096  0.14093  0.21206  1.0000
  H   H10       1.0  0.24765  0.11078  0.20647  1.0000
  C   C10       1.0  0.27817  0.01028  0.49935  1.0000
  C   C11       1.0  0.30985  0.99559  0.07110  1.0000
  N   N2        1.0  0.21045  0.22000  0.27312  1.0000
  C   C12       1.0  0.29589  0.01150  0.12064  1.0000
  C   C13       1.0  0.30822  0.02939  0.10471  1.0000
  C   C14       1.0  0.32149  0.03036  0.07256  1.0000
  S   S11       1.0  0.27310  0.23022  0.16559  1.0000
  H   H11       1.0  0.30777  0.04250  0.11749  1.0000
  H   H12       1.0  0.17471  0.00725  0.42556  1.0000
  H   H13       1.0  0.29614  0.11911  0.27704  1.0000
  S   S12       1.0  0.23665  0.02752  0.49453  1.0000
  C   C15       1.0  0.22207  0.20353  0.20671  1.0000
  H   H14       1.0  0.23565  0.01442  0.41113  1.0000
  C   C16       1.0  0.22469  0.21230  0.27901  1.0000
  C   C17       1.0  0.29587  0.11577  0.24348  1.0000
  C   C18       1.0  0.21311  0.04385  0.33397  1.0000
  C   C19       1.0  0.22107  0.05985  0.40008  1.0000
  H   H15       1.0  0.32388  0.15103  0.12647  1.0000
  C   C20       1.0  0.20186  0.21958  0.23472  1.0000
  C   C21       1.0  0.25113  0.03851  0.45087  1.0000
  C   C22       1.0  0.26595  0.05696  0.45272  1.0000
  C   C23       1.0  0.27644  0.06556  0.41670  1.0000
  C   C24       1.0  0.27192  0.05599  0.37842  1.0000
  C   C25       1.0  0.25715  0.03752  0.37665  1.0000
  C   C26       1.0  0.24699  0.02875  0.41282  1.0000
  H   H16       1.0  0.26914  0.06474  0.48170  1.0000
  H   H17       1.0  0.28784  0.07986  0.41831  1.0000
  H   H18       1.0  0.25360  0.02995  0.34745  1.0000
  H   H19       1.0  0.31873  0.06459  0.46319  1.0000
  H   H20       1.0  0.20126  0.21172  0.17024  1.0000
  C   C27       1.0  0.20370  0.22781  0.30870  1.0000
  C   C28       1.0  0.23076  0.20400  0.24588  1.0000
  C   C29       1.0  0.20761  0.21144  0.20095  1.0000
  H   H21       1.0  0.28066  0.10601  0.23434  1.0000
  H   H22       1.0  0.31329  0.99469  0.46427  1.0000
  H   H23       1.0  0.31438  0.17837  0.14670  1.0000
  C   C30       1.0  0.20919  0.98744  0.15023  1.0000
  H   H24       1.0  0.22068  0.98837  0.24773  1.0000
  C   C31       1.0  0.32100  0.05748  0.49236  1.0000
  C   C32       1.0  0.28978  0.02995  0.50160  1.0000
  H   H25       1.0  0.18851  0.99521  0.39912  1.0000
  N   N3        1.0  0.30929  0.03673  0.49058  1.0000
  H   H26       1.0  0.33115  0.04427  0.06082  1.0000
  H   H27       1.0  0.30602  0.10791  0.23946  1.0000
  C   C33       1.0  0.45543  0.98892  0.39097  1.0000
  C   C34       1.0  0.30651  0.00456  0.47435  1.0000
  H   H28       1.0  0.23196  0.07372  0.34142  1.0000
  H   H29       1.0  0.33706  0.06035  0.49681  1.0000
  H   H30       1.0  0.22879  0.07260  0.41843  1.0000
  C   C35       1.0  0.29675  0.99463  0.10359  1.0000
  H   H31       1.0  0.31657  0.06410  0.51919  1.0000
  H   H32       1.0  0.33320  0.02967  0.46829  1.0000
  C   C36       1.0  0.22289  0.06046  0.35698  1.0000
  C   C37       1.0  0.31121  0.16588  0.16702  1.0000
  Fe  Fe6       1.0  0.26059  0.22884  0.04708  1.0000
  C   C38       1.0  0.31158  0.13425  0.18147  1.0000
  S   S13       1.0  0.28223  0.21631  0.07334  1.0000
  H   H33       1.0  0.22666  0.19714  0.18081  1.0000
  H   H34       1.0  0.29588  0.17613  0.21170  1.0000
  C   C39       1.0  0.30090  0.16467  0.20369  1.0000
  H   H35       1.0  0.20866  0.04203  0.45323  1.0000
  C   C40       1.0  0.19311  0.99268  0.25348  1.0000
  C   C41       1.0  0.28665  0.99752  0.48584  1.0000
  C   C42       1.0  0.29624  0.14817  0.22882  1.0000
  H   H36       1.0  0.28764  0.14706  0.25652  1.0000
  C   C43       1.0  0.32244  0.01350  0.05560  1.0000
  N   N4        1.0  0.20095  0.02605  0.39691  1.0000
  H   H37       1.0  0.20770  0.00117  0.15513  1.0000
  H   H38       1.0  0.24215  0.19799  0.25025  1.0000
  C   C44       1.0  0.20217  0.02665  0.35450  1.0000
  H   H39       1.0  0.21413  0.04421  0.30043  1.0000
  H   H40       1.0  0.28313  0.03973  0.51263  1.0000
  H   H41       1.0  0.23149  0.21260  0.30943  1.0000
  H   H42       1.0  0.19490  0.01377  0.33618  1.0000
  H   H43       1.0  0.19082  0.22596  0.22972  1.0000
  H   H44       1.0  0.23891  0.00018  0.12667  1.0000
  C   C45       1.0  0.18981  0.00787  0.41833  1.0000
  H   H45       1.0  0.46069  0.01021  0.43834  1.0000
  C   C46       1.0  0.44037  0.98772  0.51666  1.0000
  C   C47       1.0  0.22670  0.98689  0.13450  1.0000
  H   H46       1.0  0.30311  0.98608  0.31975  1.0000
  H   H47       1.0  0.27860  0.99072  0.24618  1.0000
  H   H48       1.0  0.28253  0.99408  0.32222  1.0000
  H   H49       1.0  0.41004  0.98529  0.52537  1.0000
  C   C48       1.0  0.17314  0.98399  0.26394  1.0000
  Fe  Fe7       1.0  0.24129  0.02113  0.65025  1.0000
  S   S14       1.0  0.26075  0.04989  0.67660  1.0000
  H   H50       1.0  0.39381  0.00318  0.85576  1.0000
  Fe  Fe8       1.0  0.24505  0.03813  0.56082  1.0000
  S   S15       1.0  0.26453  0.06800  0.58051  1.0000
  Fe  Fe9       1.0  0.27980  0.05302  0.62118  1.0000
  S   S16       1.0  0.31294  0.06590  0.62799  1.0000
  Fe  Fe10      1.0  0.24396  0.06303  0.63438  1.0000
  S   S17       1.0  0.23457  0.08649  0.66068  1.0000
  S   S18       1.0  0.26205  0.02361  0.59757  1.0000
  S   S19       1.0  0.22276  0.03381  0.61167  1.0000
  Fe  Fe11      1.0  0.27729  0.20191  0.66791  1.0000
  C   C49       1.0  0.19420  0.20832  0.82256  1.0000
  S   S20       1.0  0.28116  0.17705  0.63364  1.0000
  C   C50       1.0  0.30777  0.02829  0.69798  1.0000
  S   S21       1.0  0.25580  0.19846  0.71930  1.0000
  Fe  Fe12      1.0  0.25226  0.22470  0.69124  1.0000
  C   C51       1.0  0.22298  0.19898  0.86507  1.0000
  H   H51       1.0  0.33966  0.04127  0.69735  1.0000
  C   C52       1.0  0.19871  0.21385  0.86403  1.0000
  N   N5        1.0  0.29339  0.99535  0.67582  1.0000
  H   H52       1.0  0.32927  0.15364  0.68083  1.0000
  H   H53       1.0  0.31380  0.16115  0.64531  1.0000
  H   H54       1.0  0.34349  0.01157  0.67249  1.0000
  S   S22       1.0  0.36662  0.99060  0.94129  1.0000
  H   H55       1.0  0.28247  0.12734  0.71386  1.0000
  H   H56       1.0  0.30595  0.04136  0.70772  1.0000
  H   H57       1.0  0.44670  0.00151  0.53196  1.0000
  C   C53       1.0  0.31377  0.15154  0.67210  1.0000
  N   N6        1.0  0.20423  0.19878  0.80260  1.0000
  H   H58       1.0  0.18318  0.21239  0.80604  1.0000
  Fe  Fe13      1.0  0.35001  0.99180  0.53709  1.0000
  C   C54       1.0  0.28216  0.21257  0.90321  1.0000
  C   C55       1.0  0.97879  0.20901  0.82583  1.0000
  S   S23       1.0  0.30358  0.22224  0.70361  1.0000
  C   C56       1.0  0.32615  0.05368  0.60398  1.0000
  C   C57       1.0  0.34625  0.06359  0.59586  1.0000
  H   H59       1.0  0.37255  0.06216  0.56898  1.0000
  C   C58       1.0  0.28813  0.14193  0.72579  1.0000
  C   C59       1.0  0.32803  0.02482  0.57421  1.0000
  C   C60       1.0  0.31703  0.03428  0.59309  1.0000
  H   H60       1.0  0.44441  0.00372  0.00780  1.0000
  H   H61       1.0  0.42824  0.01887  0.88375  1.0000
  H   H62       1.0  0.30162  0.02645  0.59976  1.0000
  C   C61       1.0  0.24708  0.11163  0.65155  1.0000
  C   C62       1.0  0.24165  0.12486  0.67400  1.0000
  C   C63       1.0  0.25157  0.14494  0.66829  1.0000
  C   C64       1.0  0.26695  0.15200  0.63972  1.0000
  C   C65       1.0  0.27204  0.13876  0.61664  1.0000
  C   C66       1.0  0.26236  0.11873  0.62281  1.0000
  H   H63       1.0  0.22977  0.11952  0.69611  1.0000
  H   H64       1.0  0.24743  0.15491  0.68619  1.0000
  H   H65       1.0  0.28375  0.14404  0.59411  1.0000
  H   H66       1.0  0.26661  0.10878  0.60508  1.0000
  Fe  Fe14      1.0  0.28161  0.21997  0.75365  1.0000
  C   C67       1.0  0.31054  0.17451  0.72175  1.0000
  S   S24       1.0  0.33984  0.01548  0.01597  1.0000
  H   H67       1.0  0.21703  0.21348  0.91745  1.0000
  C   C68       1.0  0.27900  0.21964  0.86411  1.0000
  C   C69       1.0  0.26387  0.22950  0.93672  1.0000
  C   C70       1.0  0.27861  0.14627  0.75934  1.0000
  H   H68       1.0  0.35339  0.07859  0.60434  1.0000
  C   C71       1.0  0.21842  0.19405  0.82333  1.0000
  S   S25       1.0  0.36174  0.02410  0.53790  1.0000
  C   C72       1.0  0.26862  0.23205  0.86151  1.0000
  H   H69       1.0  0.23444  0.19545  0.88130  1.0000
  N   N7        1.0  0.30382  0.15603  0.70734  1.0000
  C   C73       1.0  0.35709  0.05429  0.57598  1.0000
  H   H70       1.0  0.30704  0.19391  0.76718  1.0000
  H   H71       1.0  0.22650  0.18663  0.80749  1.0000
  C   C74       1.0  0.30162  0.17925  0.75570  1.0000
  C   C75       1.0  0.28547  0.16508  0.77437  1.0000
  S   S26       1.0  0.28767  0.21201  0.81941  1.0000
  S   S27       1.0  0.23495  0.99216  0.68394  1.0000
  C   C76       1.0  0.34803  0.03489  0.56511  1.0000
  N   N8        1.0  0.98234  0.22211  0.78991  1.0000
  H   H72       1.0  0.32268  0.18578  0.70652  1.0000
  C   C77       1.0  0.32670  0.02825  0.69208  1.0000
  H   H73       1.0  0.20045  0.99725  0.72081  1.0000
  C   C78       1.0  0.31191  0.99515  0.66993  1.0000
  C   C79       1.0  0.27465  0.21749  0.93940  1.0000
  H   H74       1.0  0.29024  0.20302  0.90548  1.0000
  C   C80       1.0  0.19939  0.19301  0.75918  1.0000
  H   H75       1.0  0.32083  0.00997  0.56551  1.0000
  H   H76       1.0  0.30606  0.13644  0.66155  1.0000
  H   H77       1.0  0.36302  0.99865  0.74037  1.0000
  H   H78       1.0  0.27826  0.16880  0.80023  1.0000
  C   C81       1.0  0.21316  0.20908  0.88540  1.0000
  H   H79       1.0  0.26585  0.13515  0.77310  1.0000
  C   C82       1.0  0.29118  0.01164  0.68956  1.0000
  H   H80       1.0  0.19133  0.22217  0.87909  1.0000
  H   H81       1.0  0.19169  0.20160  0.74315  1.0000
  H   H82       1.0  0.21312  0.19560  0.74140  1.0000
  H   H83       1.0  0.27683  0.21161  0.96920  1.0000
  C   C83       1.0  0.32883  0.01160  0.67795  1.0000
  H   H84       1.0  0.99284  0.20867  0.83937  1.0000
  C   C84       1.0  0.42132  0.00328  0.88258  1.0000
  S   S28       1.0  0.22359  0.22905  0.68155  1.0000
  H   H85       1.0  0.18976  0.17750  0.75753  1.0000
  S   S29       1.0  0.27130  0.22642  0.63616  1.0000
  C   C85       1.0  0.40201  0.99450  0.86698  1.0000
  C   C86       1.0  0.43159  0.99188  0.89695  1.0000
  S   S30       1.0  0.35263  0.98734  0.82477  1.0000
  H   H86       1.0  0.44654  0.99851  0.90964  1.0000
  H   H87       1.0  0.27651  0.01191  0.69359  1.0000
  Fe  Fe15      1.0  0.34055  0.98989  0.97944  1.0000
  H   H88       1.0  0.97118  0.21385  0.85037  1.0000
  H   H89       1.0  0.96927  0.19409  0.81680  1.0000
  H   H90       1.0  0.40816  0.98772  0.99387  1.0000
  C   C87       1.0  0.96674  0.22138  0.76458  1.0000
  C   C88       1.0  0.43791  0.98824  0.00408  1.0000
  C   C89       1.0  0.35265  0.98384  0.73993  1.0000
  Fe  Fe16      1.0  0.35249  0.38092  0.39829  1.0000
  S   S31       1.0  0.35720  0.41054  0.42115  1.0000
  S   S32       1.0  0.36079  0.37410  0.33457  1.0000
  Fe  Fe17      1.0  0.33548  0.36088  0.48177  1.0000
  H   H91       1.0  0.45681  0.46639  0.06689  1.0000
  H   H92       1.0  0.39161  0.41302  0.33735  1.0000
  Fe  Fe18      1.0  0.32722  0.39574  0.45008  1.0000
  S   S33       1.0  0.30366  0.40846  0.44837  1.0000
  Fe  Fe19      1.0  0.36913  0.40181  0.47977  1.0000
  C   C90       1.0  0.97208  0.33998  0.38277  1.0000
  S   S34       1.0  0.32181  0.36707  0.42255  1.0000
  S   S35       1.0  0.36623  0.37261  0.45502  1.0000
  H   H93       1.0  0.20330  0.28174  0.26654  1.0000
  S   S36       1.0  0.33245  0.36244  0.08333  1.0000
  S   S37       1.0  0.37747  0.34660  0.08650  1.0000
  N   N9        1.0  0.02746  0.36052  0.38283  1.0000
  C   C91       1.0  0.24611  0.34298  0.51433  1.0000
  Fe  Fe20      1.0  0.34348  0.39304  0.10451  1.0000
  S   S38       1.0  0.33251  0.40091  0.16436  1.0000
  S   S39       1.0  0.98204  0.34014  0.33315  1.0000
  S   S40       1.0  0.37581  0.39886  0.09629  1.0000
  C   C92       1.0  0.42121  0.47804  0.48165  1.0000
  Fe  Fe21      1.0  0.99061  0.27772  0.29461  1.0000
  S   S41       1.0  0.97683  0.29658  0.26363  1.0000
  C   C93       1.0  0.42883  0.42709  0.42952  1.0000
  Fe  Fe22      1.0  0.03204  0.30888  0.29940  1.0000
  S   S42       1.0  0.02116  0.33035  0.26765  1.0000
  S   S43       1.0  0.06358  0.32085  0.32775  1.0000
  Fe  Fe23      1.0  0.99476  0.31892  0.30912  1.0000
  H   H94       1.0  0.39689  0.38797  0.38127  1.0000
  Fe  Fe24      1.0  0.00397  0.30643  0.22421  1.0000
  S   S44       1.0  0.99695  0.31227  0.15748  1.0000
  S   S45       1.0  0.00651  0.29920  0.34400  1.0000
  S   S46       1.0  0.01682  0.28570  0.25217  1.0000
  Fe  Fe25      1.0  0.16293  0.29713  0.37085  1.0000
  S   S47       1.0  0.17469  0.27515  0.39712  1.0000
  S   S48       1.0  0.13323  0.28784  0.33511  1.0000
  Fe  Fe26      1.0  0.20052  0.33019  0.39667  1.0000
  S   S49       1.0  0.21493  0.31123  0.42526  1.0000
  S   S50       1.0  0.21392  0.36253  0.39548  1.0000
  Fe  Fe27      1.0  0.20383  0.29309  0.36807  1.0000
  S   S51       1.0  0.22660  0.28205  0.34191  1.0000
  Fe  Fe28      1.0  0.18501  0.29497  0.45213  1.0000
  H   H95       1.0  0.25004  0.30994  0.52053  1.0000
  S   S52       1.0  0.19148  0.31351  0.33746  1.0000
  S   S53       1.0  0.17120  0.31551  0.42795  1.0000
  C   C94       1.0  0.02757  0.37414  0.34948  1.0000
  S   S54       1.0  0.32633  0.25816  0.11993  1.0000
  S   S55       1.0  0.27334  0.25647  0.08257  1.0000
  C   C95       1.0  0.22820  0.27549  0.28991  1.0000
  C   C96       1.0  0.21484  0.27652  0.25903  1.0000
  C   C97       1.0  0.33806  0.44917  0.09947  1.0000
  H   H96       1.0  0.17496  0.36727  0.33925  1.0000
  C   C98       1.0  0.21631  0.27060  0.21834  1.0000
  H   H97       1.0  0.32286  0.44724  0.10604  1.0000
  C   C99       1.0  0.11315  0.29607  0.33706  1.0000
  C   C100      1.0  0.11405  0.31186  0.36095  1.0000
  C   C101      1.0  0.09850  0.31888  0.35855  1.0000
  C   C102      1.0  0.08178  0.31017  0.33253  1.0000
  C   C103      1.0  0.08066  0.29410  0.30945  1.0000
  C   C104      1.0  0.09627  0.28716  0.31164  1.0000
  H   H98       1.0  0.12687  0.31884  0.38074  1.0000
  H   H99       1.0  0.09956  0.33129  0.37664  1.0000
  H   H100      1.0  0.06796  0.28721  0.28928  1.0000
  H   H101      1.0  0.09536  0.27493  0.29305  1.0000
  H   H102      1.0  0.96430  0.31669  0.47638  1.0000
  H   H103      1.0  0.04136  0.38720  0.35136  1.0000
  H   H104      1.0  0.25594  0.25728  0.23150  1.0000
  C   C105      1.0  0.00602  0.27981  0.04517  1.0000
  Fe  Fe29      1.0  0.29329  0.24321  0.11201  1.0000
  C   C106      1.0  0.28087  0.35654  0.52730  1.0000
  Fe  Fe30      1.0  0.25192  0.24128  0.13267  1.0000
  C   C107      1.0  0.41374  0.44543  0.50863  1.0000
  C   C108      1.0  0.37668  0.45301  0.08352  1.0000
  C   C109      1.0  0.42079  0.39319  0.44815  1.0000
  H   H105      1.0  0.02771  0.32484  0.47085  1.0000
  C   C110      1.0  0.36208  0.32251  0.09805  1.0000
  S   S56       1.0  0.31528  0.33080  0.50425  1.0000
  C   C111      1.0  0.36000  0.29014  0.11598  1.0000
  C   C112      1.0  0.33931  0.28313  0.11248  1.0000
  C   C113      1.0  0.32987  0.29591  0.10200  1.0000
  C   C114      1.0  0.34129  0.31560  0.09456  1.0000
  H   H106      1.0  0.38805  0.45603  0.17467  1.0000
  C   C115      1.0  0.42620  0.44162  0.40512  1.0000
  H   H107      1.0  0.31390  0.29060  0.09912  1.0000
  H   H108      1.0  0.33400  0.32526  0.08556  1.0000
  H   H109      1.0  0.38728  0.31480  0.11147  1.0000
  H   H110      1.0  0.04572  0.34906  0.34981  1.0000
  C   C116      1.0  0.38117  0.44314  0.15489  1.0000
  C   C117      1.0  0.01406  0.27776  0.08417  1.0000
  C   C118      1.0  0.01102  0.28728  0.11913  1.0000
  C   C119      1.0  0.99972  0.29878  0.11532  1.0000
  C   C120      1.0  0.99105  0.30029  0.07666  1.0000
  C   C121      1.0  0.00743  0.35410  0.06406  1.0000
  H   H111      1.0  0.02304  0.26906  0.08713  1.0000
  H   H112      1.0  0.01777  0.28604  0.14873  1.0000
  H   H113      1.0  0.98207  0.30897  0.07361  1.0000
  H   H114      1.0  0.97680  0.31484  0.40584  1.0000
  C   C122      1.0  0.27927  0.39496  0.43094  1.0000
  C   C123      1.0  0.27250  0.37508  0.42332  1.0000
  C   C124      1.0  0.25245  0.36482  0.41212  1.0000
  C   C125      1.0  0.23924  0.37448  0.40838  1.0000
  C   C126      1.0  0.24617  0.39430  0.41552  1.0000
  C   C127      1.0  0.26600  0.40444  0.42693  1.0000
  H   H115      1.0  0.28252  0.36757  0.42709  1.0000
  H   H116      1.0  0.24722  0.34951  0.40655  1.0000
  H   H117      1.0  0.23610  0.40187  0.41262  1.0000
  H   H118      1.0  0.27107  0.41975  0.43287  1.0000
  H   H119      1.0  0.20582  0.27134  0.19465  1.0000
  C   C128      1.0  0.40836  0.45846  0.48440  1.0000
  H   H120      1.0  0.39431  0.45346  0.46768  1.0000
  C   C129      1.0  0.35303  0.38216  0.28787  1.0000
  C   C130      1.0  0.34018  0.39218  0.28768  1.0000
  C   C131      1.0  0.33394  0.39785  0.24966  1.0000
  C   C132      1.0  0.34043  0.39349  0.21166  1.0000
  C   C133      1.0  0.35329  0.38350  0.21197  1.0000
  C   C134      1.0  0.35959  0.37791  0.24990  1.0000
  H   H121      1.0  0.33497  0.39549  0.31673  1.0000
  H   H122      1.0  0.32397  0.40556  0.24971  1.0000
  H   H123      1.0  0.35835  0.37997  0.18296  1.0000
  H   H124      1.0  0.36947  0.37011  0.24972  1.0000
  N   N10       1.0  0.36895  0.44715  0.12202  1.0000
  C   C135      1.0  0.23106  0.26357  0.20815  1.0000
  H   H125      1.0  0.00826  0.34431  0.08982  1.0000
  H   H126      1.0  0.43666  0.39673  0.45642  1.0000
  H   H127      1.0  0.39305  0.43904  0.14169  1.0000
  H   H128      1.0  0.00943  0.36949  0.42262  1.0000
  H   H129      1.0  0.43416  0.45667  0.41282  1.0000
  C   C136      1.0  0.97150  0.32614  0.41296  1.0000
  C   C137      1.0  0.26490  0.32167  0.51801  1.0000
  C   C138      1.0  0.40531  0.40303  0.38800  1.0000
  C   C139      1.0  0.37128  0.30966  0.10885  1.0000
  N   N11       1.0  0.28678  0.32979  0.31903  1.0000
  C   C140      1.0  0.27437  0.31883  0.28873  1.0000
  C   C141      1.0  0.30679  0.33796  0.31280  1.0000
  C   C142      1.0  0.28199  0.31535  0.25145  1.0000
  C   C143      1.0  0.31491  0.33478  0.27590  1.0000
  C   C144      1.0  0.30241  0.32340  0.24508  1.0000
  C   C145      1.0  0.27859  0.33348  0.35777  1.0000
  H   H130      1.0  0.25847  0.31267  0.29330  1.0000
  H   H131      1.0  0.31666  0.34700  0.33637  1.0000
  H   H132      1.0  0.27209  0.30646  0.22771  1.0000
  H   H133      1.0  0.33081  0.34116  0.27131  1.0000
  H   H134      1.0  0.30857  0.32090  0.21629  1.0000
  H   H135      1.0  0.26323  0.32292  0.36279  1.0000
  H   H136      1.0  0.28773  0.33216  0.38489  1.0000
  H   H137      1.0  0.27831  0.34824  0.35688  1.0000
  C   C146      1.0  0.03779  0.34870  0.37823  1.0000
  C   C147      1.0  0.03809  0.33575  0.40983  1.0000
  S   S57       1.0  0.33935  0.40447  0.04098  1.0000
  S   S58       1.0  0.33921  0.38926  0.51090  1.0000
  H   H138      1.0  0.23270  0.33059  0.50789  1.0000
  C   C148      1.0  0.99433  0.29097  0.04155  1.0000
  C   C149      1.0  0.24313  0.26869  0.27963  1.0000
  Fe  Fe31      1.0  0.36427  0.36873  0.07054  1.0000
  N   N12       1.0  0.41847  0.40809  0.42077  1.0000
  H   H139      1.0  0.26623  0.29604  0.05593  1.0000
  H   H140      1.0  0.37203  0.43076  0.17460  1.0000
  C   C150      1.0  0.44711  0.46755  0.04192  1.0000
  C   C151      1.0  0.41275  0.43659  0.37175  1.0000
  H   H141      1.0  0.42321  0.44084  0.05855  1.0000
  H   H142      1.0  0.34405  0.44134  0.16127  1.0000
  H   H143      1.0  0.41511  0.37880  0.43322  1.0000
  H   H144      1.0  0.25356  0.26789  0.30336  1.0000
  H   H145      1.0  0.01448  0.37839  0.35125  1.0000
  C   C152      1.0  0.01771  0.36019  0.41893  1.0000
  C   C153      1.0  0.02782  0.33501  0.44636  1.0000
  C   C154      1.0  0.36516  0.45683  0.05185  1.0000
  N   N13       1.0  0.15355  0.34480  0.30350  1.0000
  C   C155      1.0  0.15065  0.32916  0.27902  1.0000
  C   C156      1.0  0.13954  0.35294  0.30452  1.0000
  C   C157      1.0  0.13354  0.32147  0.25417  1.0000
  C   C158      1.0  0.12225  0.34561  0.28003  1.0000
  C   C159      1.0  0.11925  0.32975  0.25481  1.0000
  C   C160      1.0  0.17102  0.35189  0.33110  1.0000
  H   H146      1.0  0.16118  0.32202  0.27984  1.0000
  H   H147      1.0  0.14145  0.36485  0.32511  1.0000
  H   H148      1.0  0.13093  0.30856  0.23629  1.0000
  H   H149      1.0  0.11081  0.35161  0.28194  1.0000
  H   H150      1.0  0.10551  0.32339  0.23713  1.0000
  H   H151      1.0  0.16815  0.34321  0.36026  1.0000
  H   H152      1.0  0.18426  0.35089  0.31620  1.0000
  C   C161      1.0  0.01762  0.34736  0.45111  1.0000
  H   H153      1.0  0.41240  0.39219  0.47718  1.0000
  H   H154      1.0  0.36740  0.28039  0.12410  1.0000
  H   H155      1.0  0.96959  0.24699  0.20339  1.0000
  H   H156      1.0  0.00937  0.34681  0.47917  1.0000
  C   C162      1.0  0.24453  0.26268  0.23896  1.0000
  S   S59       1.0  0.97274  0.24703  0.31238  1.0000
  C   C163      1.0  0.35010  0.44572  0.13054  1.0000
  H   H157      1.0  0.27149  0.32027  0.48794  1.0000
  H   H158      1.0  0.43877  0.43111  0.45633  1.0000
  N   N14       1.0  0.26384  0.34080  0.52056  1.0000
  C   C164      1.0  0.40228  0.41717  0.36296  1.0000
  S   S60       1.0  0.23153  0.25545  0.15700  1.0000
  C   C165      1.0  0.42803  0.45300  0.03727  1.0000
  H   H159      1.0  0.02645  0.36732  0.31859  1.0000
  S   S61       1.0  0.39847  0.42039  0.51246  1.0000
  H   H160      1.0  0.39172  0.45445  0.07679  1.0000
  H   H161      1.0  0.04606  0.32619  0.40564  1.0000
  H   H162      1.0  0.41027  0.44769  0.35306  1.0000
  C   C166      1.0  0.34566  0.45468  0.05981  1.0000
  H   H163      1.0  0.99147  0.35083  0.05680  1.0000
  H   H164      1.0  0.97577  0.25293  0.14919  1.0000
  H   H165      1.0  0.97766  0.27146  0.18589  1.0000
  H   H166      1.0  0.29017  0.29233  0.52708  1.0000
  H   H167      1.0  0.02503  0.32876  0.05214  1.0000
  H   H168      1.0  0.33642  0.45709  0.03517  1.0000
  C   C167      1.0  0.24506  0.36126  0.51554  1.0000
  C   C168      1.0  0.96879  0.25637  0.17678  1.0000
  H   H169      1.0  0.96576  0.36546  0.36934  1.0000
  C   C169      1.0  0.28036  0.37502  0.52873  1.0000
  H   H170      1.0  0.23107  0.36300  0.50954  1.0000
  Fe  Fe32      1.0  0.37151  0.40855  0.03147  1.0000
  H   H171      1.0  0.26188  0.39171  0.52244  1.0000
  C   C170      1.0  0.96535  0.35470  0.39258  1.0000
  S   S62       1.0  0.18174  0.28243  0.51768  1.0000
  C   C171      1.0  0.26232  0.37735  0.52288  1.0000
  H   H172      1.0  0.26643  0.32804  0.03242  1.0000
  H   H173      1.0  0.21641  0.23612  0.32928  1.0000
  H   H174      1.0  0.19653  0.23798  0.29863  1.0000
  H   H175      1.0  0.01423  0.36915  0.07532  1.0000
  C   C172      1.0  0.44499  0.47191  0.52725  1.0000
  C   C173      1.0  0.96449  0.32727  0.45290  1.0000
  C   C174      1.0  0.19673  0.31688  0.56025  1.0000
  C   C175      1.0  0.00088  0.23561  0.78310  1.0000
  Fe  Fe33      1.0  0.97792  0.26117  0.85839  1.0000
  H   H176      1.0  0.33148  0.32863  0.96948  1.0000
  S   S63       1.0  0.31788  0.27617  0.65760  1.0000
  N   N15       1.0  0.24747  0.27616  0.64415  1.0000
  H   H177      1.0  0.96578  0.35346  0.78892  1.0000
  Fe  Fe34      1.0  0.00156  0.30340  0.87150  1.0000
  H   H178      1.0  0.98787  0.29243  0.01173  1.0000
  S   S64       1.0  0.00017  0.33249  0.85890  1.0000
  Fe  Fe35      1.0  0.02355  0.27743  0.85000  1.0000
  S   S65       1.0  0.00218  0.25292  0.88690  1.0000
  S   S66       1.0  0.04729  0.27118  0.81444  1.0000
  H   H179      1.0  0.98746  0.36434  0.86049  1.0000
  Fe  Fe36      1.0  0.00501  0.27507  0.93552  1.0000
  C   C176      1.0  0.97426  0.36330  0.92027  1.0000
  S   S67       1.0  0.99890  0.28388  0.81747  1.0000
  S   S68       1.0  0.02800  0.29909  0.90047  1.0000
  H   H180      1.0  0.96509  0.32144  0.79491  1.0000
  C   C177      1.0  0.98831  0.24828  0.72442  1.0000
  S   S69       1.0  0.36301  0.37873  0.00495  1.0000
  Fe  Fe37      1.0  0.19402  0.29316  0.81495  1.0000
  S   S70       1.0  0.22081  0.31738  0.79135  1.0000
  S   S71       1.0  0.19999  0.26691  0.83459  1.0000
  Fe  Fe38      1.0  0.16761  0.31636  0.81352  1.0000
  S   S72       1.0  0.19280  0.34256  0.79066  1.0000
  S   S73       1.0  0.13978  0.32218  0.82801  1.0000
  Fe  Fe39      1.0  0.19897  0.32246  0.74688  1.0000
  S   S74       1.0  0.20673  0.33332  0.68077  1.0000
  Fe  Fe40      1.0  0.21237  0.33512  0.83708  1.0000
  S   S75       1.0  0.23314  0.35771  0.88055  1.0000
  S   S76       1.0  0.17258  0.29661  0.76658  1.0000
  S   S77       1.0  0.18675  0.31053  0.86350  1.0000
  H   H181      1.0  0.97137  0.37635  0.91491  1.0000
  H   H182      1.0  0.22972  0.25063  0.82574  1.0000
  C   C178      1.0  0.19962  0.31883  0.63599  1.0000
  C   C179      1.0  0.19105  0.29872  0.63861  1.0000
  C   C180      1.0  0.18562  0.28774  0.60206  1.0000
  H   H183      1.0  0.22835  0.25752  0.59855  1.0000
  C   C181      1.0  0.31586  0.27538  0.00358  1.0000
  C   C182      1.0  0.20245  0.32784  0.59672  1.0000
  H   H184      1.0  0.18864  0.29163  0.66869  1.0000
  H   H185      1.0  0.17912  0.27217  0.60418  1.0000
  H   H186      1.0  0.28108  0.29348  0.72214  1.0000
  H   H187      1.0  0.20892  0.34341  0.59452  1.0000
  C   C183      1.0  0.26442  0.27987  0.66744  1.0000
  H   H188      1.0  0.26619  0.23766  0.83160  1.0000
  H   H189      1.0  0.12452  0.32206  0.74610  1.0000
  C   C184      1.0  0.98263  0.33011  0.93474  1.0000
  H   H190      1.0  0.04000  0.34329  0.92455  1.0000
  C   C185      1.0  0.28907  0.35556  0.94620  1.0000
  C   C186      1.0  0.27965  0.34240  0.91449  1.0000
  C   C187      1.0  0.26282  0.34318  0.89327  1.0000
  C   C188      1.0  0.25513  0.35704  0.90394  1.0000
  C   C189      1.0  0.26474  0.37037  0.93521  1.0000
  C   C190      1.0  0.28164  0.36966  0.95626  1.0000
  H   H191      1.0  0.28536  0.33150  0.90637  1.0000
  H   H192      1.0  0.25573  0.33304  0.86885  1.0000
  H   H193      1.0  0.25891  0.38117  0.94353  1.0000
  H   H194      1.0  0.28872  0.37983  0.98066  1.0000
  C   C191      1.0  0.07305  0.28488  0.82095  1.0000
  C   C192      1.0  0.08695  0.27779  0.80539  1.0000
  C   C193      1.0  0.10751  0.28865  0.80871  1.0000
  C   C194      1.0  0.11431  0.30689  0.82690  1.0000
  C   C195      1.0  0.10040  0.31394  0.84238  1.0000
  C   C196      1.0  0.07991  0.30295  0.83979  1.0000
  H   H195      1.0  0.08178  0.26379  0.79090  1.0000
  H   H196      1.0  0.11805  0.28303  0.79680  1.0000
  H   H197      1.0  0.10552  0.32806  0.85636  1.0000
  H   H198      1.0  0.06942  0.30863  0.85171  1.0000
  H   H199      1.0  0.34291  0.33630  0.57543  1.0000
  H   H200      1.0  0.36835  0.31996  0.96166  1.0000
  N   N16       1.0  0.23516  0.29985  0.95961  1.0000
  H   H201      1.0  0.02684  0.36939  0.92862  1.0000
  H   H202      1.0  0.24576  0.33002  0.97217  1.0000
  C   C197      1.0  0.20770  0.25786  0.79130  1.0000
  H   H203      1.0  0.22237  0.31550  0.91963  1.0000
  C   C198      1.0  0.25752  0.31502  0.01594  1.0000
  N   N17       1.0  0.01748  0.35173  0.02670  1.0000
  H   H204      1.0  0.12365  0.28043  0.65510  1.0000
  H   H205      1.0  0.99057  0.25875  0.69943  1.0000
  C   C199      1.0  0.21819  0.24086  0.72340  1.0000
  H   H206      1.0  0.98643  0.31773  0.94119  1.0000
  H   H207      1.0  0.34327  0.31460  0.63454  1.0000
  C   C200      1.0  0.23542  0.28231  0.97151  1.0000
  C   C201      1.0  0.31684  0.29112  0.61472  1.0000
  C   C202      1.0  0.33158  0.30973  0.61122  1.0000
  H   H208      1.0  0.41572  0.46191  0.61083  1.0000
  H   H209      1.0  0.25285  0.24636  0.89540  1.0000
  H   H210      1.0  0.22705  0.26946  0.95397  1.0000
  C   C203      1.0  0.30182  0.28500  0.58428  1.0000
  Fe  Fe41      1.0  0.33127  0.37391  0.01879  1.0000
  C   C204      1.0  0.12209  0.29975  0.70275  1.0000
  H   H211      1.0  0.25593  0.30678  0.74346  1.0000
  H   H212      1.0  0.29060  0.27064  0.58610  1.0000
  C   C205      1.0  0.98759  0.33994  0.89676  1.0000
  H   H213      1.0  0.27449  0.31960  0.54352  1.0000
  H   H214      1.0  0.20847  0.29004  0.92328  1.0000
  H   H215      1.0  0.01887  0.25970  0.74547  1.0000
  N   N18       1.0  0.34117  0.30677  0.99312  1.0000
  C   C206      1.0  0.32717  0.31366  0.97913  1.0000
  C   C207      1.0  0.33578  0.28787  0.00509  1.0000
  C   C208      1.0  0.30713  0.30158  0.97712  1.0000
  C   C209      1.0  0.03353  0.33444  0.98849  1.0000
  C   C210      1.0  0.31648  0.31592  0.54715  1.0000
  C   C211      1.0  0.01835  0.36329  0.99285  1.0000
  H   H216      1.0  0.23867  0.23527  0.76608  1.0000
  C   C212      1.0  0.13125  0.31811  0.71981  1.0000
  S   S78       1.0  0.97886  0.28109  0.91044  1.0000
  C   C213      1.0  0.25758  0.29713  0.02878  1.0000
  N   N19       1.0  0.14856  0.33088  0.70385  1.0000
  H   H217      1.0  0.25214  0.27409  0.57988  1.0000
  H   H218      1.0  0.27547  0.27420  0.65838  1.0000
  C   C214      1.0  0.14777  0.30802  0.65154  1.0000
  C   C215      1.0  0.15788  0.35005  0.72216  1.0000
  C   C216      1.0  0.33142  0.32208  0.57768  1.0000
  Fe  Fe42      1.0  0.29565  0.24646  0.67620  1.0000
  S   S79       1.0  0.01105  0.26826  0.00197  1.0000
  C   C217      1.0  0.30166  0.29735  0.55076  1.0000
  C   C218      1.0  0.96993  0.35383  0.95872  1.0000
  H   H219      1.0  0.01323  0.23649  0.80358  1.0000
  H   H220      1.0  0.24619  0.26663  0.01647  1.0000
  C   C219      1.0  0.23383  0.28378  0.65500  1.0000
  H   H221      1.0  0.97062  0.32977  0.99556  1.0000
  H   H222      1.0  0.34682  0.28243  0.01675  1.0000
  C   C220      1.0  0.42401  0.47727  0.61434  1.0000
  H   H223      1.0  0.15436  0.30431  0.62464  1.0000
  H   H224      1.0  0.17419  0.35596  0.71732  1.0000
  C   C221      1.0  0.23668  0.29493  0.69080  1.0000
  C   C222      1.0  0.26771  0.29085  0.70356  1.0000
  C   C223      1.0  0.25366  0.29832  0.71539  1.0000
  H   H225      1.0  0.29617  0.30727  0.96612  1.0000
  C   C224      1.0  0.36215  0.31952  0.99302  1.0000
  S   S80       1.0  0.25246  0.23445  0.98070  1.0000
  C   C225      1.0  0.15662  0.32620  0.66962  1.0000
  H   H226      1.0  0.10858  0.28957  0.71619  1.0000
  H   H227      1.0  0.29501  0.35487  0.53113  1.0000
  H   H228      1.0  0.18696  0.26323  0.74902  1.0000
  C   C226      1.0  0.18848  0.29676  0.56275  1.0000
  C   C227      1.0  0.22374  0.30119  0.92243  1.0000
  H   H229      1.0  0.22575  0.30083  0.69952  1.0000
  H   H230      1.0  0.15565  0.34940  0.75638  1.0000
  H   H231      1.0  0.29396  0.38755  0.53290  1.0000
  H   H232      1.0  0.23107  0.29899  0.89407  1.0000
  C   C228      1.0  0.19848  0.25744  0.75257  1.0000
  C   C229      1.0  0.98334  0.35651  0.88954  1.0000
  H   H233      1.0  0.15141  0.36005  0.70806  1.0000
  H   H234      1.0  0.22052  0.28105  0.63624  1.0000
  C   C230      1.0  0.24639  0.28064  0.00658  1.0000
  H   H235      1.0  0.37098  0.31469  0.01603  1.0000
  C   C231      1.0  0.02687  0.36071  0.95595  1.0000
  S   S81       1.0  0.30904  0.35279  0.97426  1.0000
  C   C232      1.0  0.24441  0.26474  0.60625  1.0000
  C   C233      1.0  0.30149  0.28227  0.98923  1.0000
  H   H236      1.0  0.17007  0.33649  0.65630  1.0000
  H   H237      1.0  0.41248  0.47108  0.95214  1.0000
  H   H238      1.0  0.28603  0.27263  0.98752  1.0000
  S   S82       1.0  0.39135  0.43589  0.99630  1.0000
  C   C234      1.0  0.03420  0.34598  0.95362  1.0000
  C   C235      1.0  0.42211  0.47001  0.97734  1.0000
  C   C236      1.0  0.24593  0.31608  0.98145  1.0000
  C   C237      1.0  0.13051  0.29466  0.66855  1.0000
  C   C238      1.0  0.22252  0.25025  0.79582  1.0000
  C   C239      1.0  0.00417  0.24882  0.75018  1.0000
  C   C240      1.0  0.43215  0.45233  0.52997  1.0000
  H   H239      1.0  0.01167  0.37407  0.99372  1.0000
  C   C241      1.0  0.41543  0.45404  0.00467  1.0000
  H   H240      1.0  0.31161  0.26048  0.01382  1.0000
  C   C242      1.0  0.02533  0.33772  0.02517  1.0000
  H   H241      1.0  0.03898  0.32278  0.98699  1.0000
  C   C243      1.0  0.22777  0.24177  0.76189  1.0000
  H   H242      1.0  0.25017  0.25300  0.61063  1.0000
  H   H243      1.0  0.43656  0.44243  0.54872  1.0000
  H   H244      1.0  0.37122  0.46095  0.02103  1.0000
  C   C244      1.0  0.26112  0.23698  0.89775  1.0000
  S   S83       1.0  0.27620  0.24594  0.72993  1.0000
  H   H245      1.0  0.19600  0.24789  0.68912  1.0000
  C   C245      1.0  0.20355  0.24871  0.71876  1.0000
  H   H246      1.0  0.45014  0.46061  0.91855  1.0000
  H   H247      1.0  0.36397  0.33441  0.00200  1.0000
  C   C246      1.0  0.97390  0.33710  0.96578  1.0000
  H   H248      1.0  0.45904  0.47692  0.54398  1.0000
  H   H249      1.0  0.44340  0.47388  0.66274  1.0000
  C   C247      1.0  0.45393  0.48336  0.01416  1.0000
  H   H250      1.0  0.45940  0.44767  0.97835  1.0000
  C   C248      1.0  0.96945  0.23446  0.73155  1.0000
  H   H251      1.0  0.19858  0.32396  0.53020  1.0000
  C   C249      1.0  0.98174  0.54492  0.49628  1.0000
  C   C250      1.0  0.97354  0.51194  0.51402  1.0000
  H   H252      1.0  0.99588  0.55438  0.43724  1.0000
  H   H253      1.0  0.99648  0.54082  0.07650  1.0000
  H   H254      1.0  0.01490  0.64809  0.48888  1.0000
  C   C251      1.0  0.98965  0.54232  0.45864  1.0000
  H   H255      1.0  0.97768  0.62022  0.40262  1.0000
  Fe  Fe43      1.0  0.02823  0.70087  0.37881  1.0000
  S   S84       1.0  0.99590  0.69470  0.38582  1.0000
  S   S85       1.0  0.04014  0.67710  0.38406  1.0000
  S   S86       1.0  0.99113  0.59124  0.44282  1.0000
  S   S87       1.0  0.03906  0.72557  0.42375  1.0000
  H   H256      1.0  0.41681  0.48794  0.46286  1.0000
  H   H257      1.0  0.96783  0.63456  0.06925  1.0000
  C   C252      1.0  0.02535  0.65310  0.39759  1.0000
  C   C253      1.0  0.00456  0.64541  0.39350  1.0000
  C   C254      1.0  0.99366  0.62614  0.40583  1.0000
  C   C255      1.0  0.00357  0.61478  0.42301  1.0000
  C   C256      1.0  0.02424  0.62256  0.42678  1.0000
  C   C257      1.0  0.03504  0.64147  0.41376  1.0000
  H   H258      1.0  0.99696  0.65423  0.38054  1.0000
  H   H259      1.0  0.03203  0.61393  0.43991  1.0000
  H   H260      1.0  0.05105  0.64723  0.41686  1.0000
  S   S88       1.0  0.99160  0.72033  0.48866  1.0000
  H   H261      1.0  0.98631  0.67982  0.47808  1.0000
  N   N20       1.0  0.98716  0.65193  0.48926  1.0000
  H   H262      1.0  0.98205  0.55914  0.50368  1.0000
  C   C258      1.0  0.97637  0.63263  0.49417  1.0000
  C   C259      1.0  0.98114  0.50877  0.47646  1.0000
  H   H263      1.0  0.98377  0.62262  0.50021  1.0000
  Fe  Fe44      1.0  0.00015  0.71574  0.33286  1.0000
  S   S89       1.0  0.98180  0.71120  0.27261  1.0000
  C   C260      1.0  0.00880  0.65944  0.49427  1.0000
  H   H264      1.0  0.02128  0.70382  0.50966  1.0000
  H   H265      1.0  0.99494  0.52183  0.41912  1.0000
  C   C261      1.0  0.98916  0.52408  0.44855  1.0000
  C   C262      1.0  0.97779  0.66449  0.48153  1.0000
  H   H266      1.0  0.98052  0.49446  0.46892  1.0000
  Fe  Fe45      1.0  0.00680  0.72064  0.42737  1.0000
  H   H267      1.0  0.01591  0.67114  0.47119  1.0000
  S   S90       1.0  0.03227  0.72038  0.32289  1.0000
  H   H268      1.0  0.98447  0.52600  0.03303  1.0000
  S   S91       1.0  0.45471  0.51004  0.49975  1.0000
  H   H269      1.0  0.99756  0.51728  0.07164  1.0000
  C   C263      1.0  0.98796  0.52573  0.06681  1.0000
  C   C264      1.0  0.43959  0.48495  0.50313  1.0000
  H   H270      1.0  0.96859  0.58081  0.22411  1.0000
  H   H271      1.0  0.97220  0.54296  0.12063  1.0000
  N   N21       1.0  0.97349  0.52974  0.52305  1.0000
  N   N22       1.0  0.96951  0.51695  0.08990  1.0000
  H   H272      1.0  0.01312  0.66521  0.52606  1.0000
  Fe  Fe46      1.0  0.01359  0.70817  0.72258  1.0000
  S   S92       1.0  0.02155  0.69795  0.66195  1.0000
  Fe  Fe47      1.0  0.99538  0.69639  0.80954  1.0000
  H   H273      1.0  0.44608  0.49666  0.96054  1.0000
  H   H274      1.0  0.98300  0.72593  0.57303  1.0000
  C   C265      1.0  0.99055  0.62934  0.88784  1.0000
  H   H275      1.0  0.45361  0.53192  0.62435  1.0000
  S   S93       1.0  0.98246  0.69731  0.74572  1.0000
  S   S94       1.0  0.02648  0.70455  0.78532  1.0000
  N   N23       1.0  0.43040  0.50983  0.59195  1.0000
  C   C266      1.0  0.42550  0.52347  0.56501  1.0000
  H   H276      1.0  0.00173  0.62380  0.87930  1.0000
  C   C267      1.0  0.02151  0.70152  0.57676  1.0000
  H   H277      1.0  0.41472  0.52835  0.58045  1.0000
  S   S95       1.0  0.97701  0.59759  0.93938  1.0000
  C   C268      1.0  0.00047  0.71453  0.61259  1.0000
  C   C269      1.0  0.99377  0.71911  0.57398  1.0000
  C   C270      1.0  0.97604  0.65372  0.87953  1.0000
  C   C271      1.0  0.99041  0.64643  0.86890  1.0000
  H   H278      1.0  0.03224  0.69466  0.57769  1.0000
  S   S96       1.0  0.00036  0.72730  0.82369  1.0000
  H   H279      1.0  0.40767  0.48513  0.56592  1.0000
  H   H280      1.0  0.43906  0.53618  0.55744  1.0000
  H   H281      1.0  0.00141  0.65391  0.84604  1.0000
  C   C272      1.0  0.01409  0.70538  0.61410  1.0000
  C   C273      1.0  0.41953  0.49050  0.58893  1.0000
  H   H282      1.0  0.96926  0.67298  0.60710  1.0000
  C   C274      1.0  0.06579  0.72932  0.71517  1.0000
  C   C275      1.0  0.97638  0.61934  0.91758  1.0000
  H   H283      1.0  0.99498  0.71794  0.64117  1.0000
  C   C276      1.0  0.44529  0.51657  0.62111  1.0000
  H   H284      1.0  0.41924  0.51680  0.53466  1.0000
  C   C277      1.0  0.45020  0.50376  0.64696  1.0000
  S   S97       1.0  0.97472  0.67483  0.85575  1.0000
  H   H285      1.0  0.97733  0.53872  0.58589  1.0000
  H   H286      1.0  0.08016  0.72695  0.77274  1.0000
  H   H287      1.0  0.97454  0.67968  0.66080  1.0000
  Fe  Fe48      1.0  0.98907  0.72830  0.75891  1.0000
  H   H288      1.0  0.05653  0.71410  0.71411  1.0000
  C   C278      1.0  0.00115  0.71521  0.53658  1.0000
  C   C279      1.0  0.01527  0.70663  0.53817  1.0000
  C   C280      1.0  0.43956  0.48398  0.64328  1.0000
  H   H289      1.0  0.46230  0.50921  0.66946  1.0000
  H   H290      1.0  0.45800  0.48469  0.86138  1.0000
  H   H291      1.0  0.96718  0.49991  0.53537  1.0000
  C   C281      1.0  0.44116  0.48461  0.98208  1.0000
  S   S98       1.0  0.96533  0.55826  0.02881  1.0000
  C   C282      1.0  0.96528  0.53279  0.56233  1.0000
  Fe  Fe49      1.0  0.19253  0.89052  0.20626  1.0000
  S   S99       1.0  0.16156  0.88465  0.22748  1.0000
  S   S100      1.0  0.20454  0.89806  0.14073  1.0000
  Fe  Fe50      1.0  0.20839  0.88971  0.29581  1.0000
  S   S101      1.0  0.17848  0.88366  0.32369  1.0000
  S   S102      1.0  0.23640  0.89018  0.33007  1.0000
  Fe  Fe51      1.0  0.16542  0.86246  0.27179  1.0000
  S   S103      1.0  0.14481  0.83034  0.27794  1.0000
  Fe  Fe52      1.0  0.17698  0.90611  0.27742  1.0000
  S   S104      1.0  0.16555  0.92919  0.29374  1.0000
  S   S105      1.0  0.19576  0.86706  0.24670  1.0000
  S   S106      1.0  0.20757  0.91348  0.25341  1.0000
  H   H292      1.0  0.05470  0.79870  0.28993  1.0000
  C   C283      1.0  0.21041  0.86698  0.03462  1.0000
  H   H293      1.0  0.18036  0.97079  0.17389  1.0000
  N   N24       1.0  0.27684  0.96802  0.28908  1.0000
  H   H294      1.0  0.44001  0.98134  0.39915  1.0000
  S   S107      1.0  0.06258  0.77647  0.36190  1.0000
  C   C284      1.0  0.44345  0.97350  0.11009  1.0000
  C   C285      1.0  0.21280  0.95217  0.14008  1.0000
  C   C286      1.0  0.27155  0.94857  0.29479  1.0000
  H   H295      1.0  0.26247  0.96875  0.18868  1.0000
  C   C287      1.0  0.17964  0.93499  0.16842  1.0000
  C   C288      1.0  0.20523  0.98180  0.25586  1.0000
  H   H296      1.0  0.45412  0.95471  0.46830  1.0000
  H   H297      1.0  0.24217  0.96869  0.11702  1.0000
  C   C289      1.0  0.17694  0.95353  0.27805  1.0000
  C   C290      1.0  0.16518  0.96465  0.27653  1.0000
  H   H298      1.0  0.25765  0.92030  0.26786  1.0000
  C   C291      1.0  0.19706  0.96212  0.26770  1.0000
  H   H299      1.0  0.14967  0.95818  0.28458  1.0000
  C   C292      1.0  0.41116  0.96079  0.49295  1.0000
  H   H300      1.0  0.20633  0.95370  0.26932  1.0000
  C   C293      1.0  0.12181  0.81575  0.30142  1.0000
  C   C294      1.0  0.11485  0.79555  0.29710  1.0000
  C   C295      1.0  0.09700  0.78329  0.31562  1.0000
  C   C296      1.0  0.08573  0.79103  0.33888  1.0000
  C   C297      1.0  0.09275  0.81123  0.34337  1.0000
  C   C298      1.0  0.11062  0.82349  0.32492  1.0000
  H   H301      1.0  0.12334  0.78929  0.27922  1.0000
  H   H302      1.0  0.09203  0.76784  0.31199  1.0000
  H   H303      1.0  0.08426  0.81748  0.36129  1.0000
  H   H304      1.0  0.11569  0.83894  0.32878  1.0000
  C   C299      1.0  0.25087  0.90723  0.36724  1.0000
  C   C300      1.0  0.26847  0.90581  0.38299  1.0000
  C   C301      1.0  0.28064  0.91924  0.41196  1.0000
  C   C302      1.0  0.27532  0.93430  0.42546  1.0000
  C   C303      1.0  0.25770  0.93572  0.40965  1.0000
  C   C304      1.0  0.24549  0.92224  0.38085  1.0000
  H   H305      1.0  0.27280  0.89428  0.37264  1.0000
  H   H306      1.0  0.29416  0.91798  0.42369  1.0000
  H   H307      1.0  0.25340  0.94728  0.41995  1.0000
  H   H308      1.0  0.23198  0.92353  0.36908  1.0000
  H   H309      1.0  0.23624  0.88172  0.07294  1.0000
  C   C305      1.0  0.42381  0.95229  0.47699  1.0000
  C   C306      1.0  0.44460  0.96143  0.48079  1.0000
  H   H310      1.0  0.41748  0.93850  0.46167  1.0000
  C   C307      1.0  0.03970  0.78839  0.28511  1.0000
  H   H311      1.0  0.16487  0.93602  0.16402  1.0000
  H   H312      1.0  0.21440  0.93845  0.13622  1.0000
  C   C308      1.0  0.19692  0.90186  0.05773  1.0000
  C   C309      1.0  0.18870  0.89479  0.09665  1.0000
  C   C310      1.0  0.16824  0.88476  0.09937  1.0000
  C   C311      1.0  0.15616  0.88154  0.06338  1.0000
  H   H313      1.0  0.21274  0.90973  0.05534  1.0000
  H   H314      1.0  0.16171  0.87921  0.12907  1.0000
  H   H315      1.0  0.14034  0.87364  0.06575  1.0000
  H   H316      1.0  0.45505  0.96912  0.34274  1.0000
  C   C312      1.0  0.23080  0.87606  0.04232  1.0000
  H   H317      1.0  0.06634  0.78006  0.24519  1.0000
  N   N25       1.0  0.45812  0.96759  0.12436  1.0000
  N   N26       1.0  0.19562  0.95283  0.15531  1.0000
  C   C313      1.0  0.41956  0.97857  0.51288  1.0000
  C   C314      1.0  0.28677  0.98124  0.32287  1.0000
  H   H318      1.0  0.18160  0.93208  0.20184  1.0000
  H   H319      1.0  0.01489  0.74426  0.24643  1.0000
  C   C315      1.0  0.25863  0.94297  0.22452  1.0000
  C   C316      1.0  0.45301  0.97923  0.50065  1.0000
  N   N27       1.0  0.18208  0.83330  0.35572  1.0000
  C   C317      1.0  0.19943  0.84794  0.36646  1.0000
  C   C318      1.0  0.16475  0.83146  0.37460  1.0000
  C   C319      1.0  0.19979  0.86106  0.39728  1.0000
  C   C320      1.0  0.16453  0.84443  0.40523  1.0000
  C   C321      1.0  0.18220  0.85929  0.41669  1.0000
  C   C322      1.0  0.18216  0.82001  0.32281  1.0000
  H   H320      1.0  0.21309  0.84974  0.35075  1.0000
  H   H321      1.0  0.15088  0.82013  0.36550  1.0000
  H   H322      1.0  0.21358  0.87281  0.40521  1.0000
  H   H323      1.0  0.15066  0.84311  0.41943  1.0000
  H   H324      1.0  0.18223  0.86963  0.43996  1.0000
  H   H325      1.0  0.16769  0.80768  0.32013  1.0000
  H   H326      1.0  0.18479  0.82771  0.29237  1.0000
  H   H327      1.0  0.19391  0.81414  0.32895  1.0000
  S   S108      1.0  0.29026  0.95206  0.46088  1.0000
  C   C323      1.0  0.19372  0.97017  0.16063  1.0000
  H   H328      1.0  0.17948  0.92245  0.15009  1.0000
  C   C324      1.0  0.01751  0.75800  0.26105  1.0000
  C   C325      1.0  0.00135  0.76163  0.27616  1.0000
  S   S109      1.0  0.34815  0.97642  0.47709  1.0000
  C   C326      1.0  0.00462  0.77888  0.29657  1.0000
  H   H329      1.0  0.27460  0.94285  0.32417  1.0000
  H   H330      1.0  0.02674  0.80563  0.31790  1.0000
  H   H331      1.0  0.99225  0.78160  0.30944  1.0000
  Fe  Fe53      1.0  0.04030  0.74488  0.36824  1.0000
  C   C327      1.0  0.22855  0.96917  0.12924  1.0000
  H   H332      1.0  0.25137  0.93314  0.19947  1.0000
  H   H333      1.0  0.41345  0.96476  0.08581  1.0000
  C   C328      1.0  0.42493  0.96001  0.09797  1.0000
  H   H334      1.0  0.98644  0.75087  0.27301  1.0000
  C   C329      1.0  0.26467  0.96286  0.21855  1.0000
  C   C330      1.0  0.05316  0.76677  0.25152  1.0000
  Fe  Fe54      1.0  0.31843  0.95603  0.49940  1.0000
  H   H335      1.0  0.28256  0.97415  0.35381  1.0000
  S   S110      1.0  0.00821  0.74149  0.37483  1.0000
  C   C331      1.0  0.02392  0.79237  0.30116  1.0000
  H   H336      1.0  0.40751  0.92989  0.08922  1.0000
  C   C332      1.0  0.27383  0.97526  0.25133  1.0000
  N   N28       1.0  0.03637  0.77136  0.26541  1.0000
  Fe  Fe55      1.0  0.36156  0.95844  0.51425  1.0000
  C   C333      1.0  0.26215  0.93575  0.26285  1.0000
  C   C334      1.0  0.43671  0.93451  0.11421  1.0000
  S   S111      1.0  0.38505  0.94824  0.48874  1.0000
  C   C335      1.0  0.42162  0.94041  0.09979  1.0000
  H   H337      1.0  0.05732  0.75836  0.27622  1.0000
  H   H338      1.0  0.27785  0.98219  0.48443  1.0000
  H   H339      1.0  0.04935  0.75817  0.22259  1.0000
  H   H340      1.0  0.20026  0.86554  0.05986  1.0000
  C   C336      1.0  0.45494  0.94837  0.12674  1.0000
  H   H341      1.0  0.43442  0.91932  0.11532  1.0000
  H   H342      1.0  0.31043  0.98251  0.05845  1.0000
  H   H343      1.0  0.28736  0.98071  0.11565  1.0000
  C   C337      1.0  0.46388  0.98205  0.35950  1.0000
  C   C338      1.0  0.21509  0.96308  0.85861  1.0000
  C   C339      1.0  0.41736  0.97922  0.99626  1.0000
  S   S112      1.0  0.05876  0.75625  0.82734  1.0000
  Fe  Fe56      1.0  0.15810  0.88574  0.91267  1.0000
  S   S113      1.0  0.16226  0.86066  0.88207  1.0000
  S   S114      1.0  0.14852  0.88293  0.97996  1.0000
  Fe  Fe57      1.0  0.16515  0.90962  0.83131  1.0000
  S   S115      1.0  0.16958  0.88618  0.79549  1.0000
  S   S116      1.0  0.16633  0.93813  0.80242  1.0000
  Fe  Fe58      1.0  0.14333  0.86506  0.82970  1.0000
  S   S117      1.0  0.11819  0.84299  0.79135  1.0000
  Fe  Fe59      1.0  0.18778  0.88394  0.85119  1.0000
  S   S118      1.0  0.21794  0.88267  0.84277  1.0000
  S   S119      1.0  0.13763  0.88892  0.86206  1.0000
  S   S120      1.0  0.18487  0.90867  0.88519  1.0000
  H   H344      1.0  0.40358  0.93156  0.55695  1.0000
  S   S121      1.0  0.31971  0.97289  0.55760  1.0000
  H   H345      1.0  0.28323  0.95202  0.87351  1.0000
  H   H346      1.0  0.13367  0.91659  0.74687  1.0000
  N   N29       1.0  0.40307  0.96331  0.88189  1.0000
  H   H347      1.0  0.37741  0.93771  0.88893  1.0000
  Fe  Fe60      1.0  0.33517  0.95539  0.58895  1.0000
  S   S122      1.0  0.32630  0.94233  0.65340  1.0000
  Fe  Fe61      1.0  0.03046  0.73576  0.79486  1.0000
  Fe  Fe62      1.0  0.31562  0.94935  0.95339  1.0000
  S   S123      1.0  0.28515  0.92853  0.97102  1.0000
  Fe  Fe63      1.0  0.36044  0.96063  0.96547  1.0000
  S   S124      1.0  0.38305  0.94705  0.98234  1.0000
  C   C340      1.0  0.11958  0.87968  0.72558  1.0000
  S   S125      1.0  0.33914  0.94609  0.91323  1.0000
  N   N30       1.0  0.23357  0.95963  0.86373  1.0000
  C   C341      1.0  0.40877  0.95921  0.99187  1.0000
  H   H348      1.0  0.43024  0.96306  0.90786  1.0000
  C   C342      1.0  0.36720  0.93070  0.62056  1.0000
  H   H349      1.0  0.36022  0.91446  0.53456  1.0000
  S   S126      1.0  0.36584  0.97562  0.57266  1.0000
  C   C343      1.0  0.33364  0.95509  0.70075  1.0000
  C   C344      1.0  0.32602  0.94569  0.73839  1.0000
  C   C345      1.0  0.33165  0.95531  0.77667  1.0000
  C   C346      1.0  0.34498  0.97448  0.77760  1.0000
  C   C347      1.0  0.21621  0.86264  0.96384  1.0000
  H   H350      1.0  0.42235  0.96020  0.59875  1.0000
  H   H351      1.0  0.31567  0.93088  0.73798  1.0000
  H   H352      1.0  0.32564  0.94791  0.80537  1.0000
  C   C348      1.0  0.23718  0.94692  0.83813  1.0000
  C   C349      1.0  0.23684  0.89697  0.87650  1.0000
  C   C350      1.0  0.23230  0.90479  0.91219  1.0000
  C   C351      1.0  0.24740  0.91509  0.94024  1.0000
  C   C352      1.0  0.26717  0.91784  0.93253  1.0000
  C   C353      1.0  0.27187  0.91052  0.89628  1.0000
  C   C354      1.0  0.25667  0.89993  0.86849  1.0000
  H   H353      1.0  0.21709  0.90208  0.91948  1.0000
  H   H354      1.0  0.09878  0.78336  0.71985  1.0000
  H   H355      1.0  0.28709  0.91238  0.89050  1.0000
  H   H356      1.0  0.26025  0.89379  0.84102  1.0000
  C   C355      1.0  0.18512  0.95279  0.76841  1.0000
  C   C356      1.0  0.18542  0.97103  0.75609  1.0000
  H   H357      1.0  0.35323  0.98154  0.67303  1.0000
  C   C357      1.0  0.19992  0.94682  0.75414  1.0000
  C   C358      1.0  0.08960  0.76812  0.71863  1.0000
  H   H358      1.0  0.19969  0.93269  0.76269  1.0000
  Fe  Fe64      1.0  0.34415  0.97613  0.89089  1.0000
  C   C359      1.0  0.07374  0.78105  0.81871  1.0000
  C   C360      1.0  0.07175  0.79111  0.78296  1.0000
  C   C361      1.0  0.08534  0.81008  0.77542  1.0000
  C   C362      1.0  0.10094  0.81939  0.80372  1.0000
  C   C363      1.0  0.10265  0.80948  0.83990  1.0000
  C   C364      1.0  0.08920  0.79044  0.84720  1.0000
  H   H359      1.0  0.05996  0.78414  0.76074  1.0000
  H   H360      1.0  0.08379  0.81756  0.74735  1.0000
  H   H361      1.0  0.11451  0.81638  0.86204  1.0000
  H   H362      1.0  0.09093  0.78284  0.87498  1.0000
  C   C365      1.0  0.36544  0.90899  0.56295  1.0000
  C   C366      1.0  0.10001  0.90497  0.82400  1.0000
  H   H363      1.0  0.09058  0.86165  0.77922  1.0000
  H   H364      1.0  0.22633  0.95427  0.71750  1.0000
  H   H365      1.0  0.07461  0.77114  0.66176  1.0000
  C   C367      1.0  0.20039  0.98324  0.72995  1.0000
  C   C368      1.0  0.18194  0.85269  0.98703  1.0000
  C   C369      1.0  0.37752  0.94671  0.64517  1.0000
  H   H366      1.0  0.24687  0.87297  0.94533  1.0000
  C   C370      1.0  0.45005  0.97739  0.00755  1.0000
  H   H367      1.0  0.19136  0.90366  0.99172  1.0000
  H   H368      1.0  0.27934  0.96563  0.65831  1.0000
  H   H369      1.0  0.39483  0.93671  0.85032  1.0000
  C   C371      1.0  0.10580  0.76289  0.78295  1.0000
  S   S127      1.0  0.33152  0.93660  0.53267  1.0000
  C   C372      1.0  0.39626  0.93553  0.58224  1.0000
  C   C373      1.0  0.23672  0.87107  0.97080  1.0000
  H   H370      1.0  0.21066  0.85817  0.93257  1.0000
  H   H371      1.0  0.37797  0.96768  0.85503  1.0000
  N   N31       1.0  0.37665  0.92522  0.58978  1.0000
  H   H372      1.0  0.22611  0.93877  0.81545  1.0000
  C   C374      1.0  0.21498  0.95907  0.72835  1.0000
  C   C375      1.0  0.39339  0.94225  0.88134  1.0000
  C   C376      1.0  0.06411  0.74177  0.68391  1.0000
  H   H373      1.0  0.05344  0.73625  0.65859  1.0000
  C   C377      1.0  0.39749  0.95737  0.63749  1.0000
  C   C378      1.0  0.40695  0.95178  0.60580  1.0000
  S   S128      1.0  0.01940  0.73954  0.73091  1.0000
  C   C379      1.0  0.09095  0.88522  0.81678  1.0000
  H   H374      1.0  0.09552  0.91141  0.84995  1.0000
  H   H375      1.0  0.10880  0.86504  0.71772  1.0000
  C   C380      1.0  0.12136  0.90772  0.76586  1.0000
  C   C381      1.0  0.25513  0.94412  0.84099  1.0000
  H   H376      1.0  0.39989  0.93547  0.90551  1.0000
  H   H377      1.0  0.25988  0.88570  0.01515  1.0000
  H   H378      1.0  0.12292  0.93161  0.80439  1.0000
  C   C382      1.0  0.24402  0.87818  0.01007  1.0000
  H   H379      1.0  0.21139  0.96915  0.88709  1.0000
  N   N32       1.0  0.11232  0.88838  0.75882  1.0000
  C   C383      1.0  0.27565  0.97828  0.66643  1.0000
  C   C384      1.0  0.44147  0.95740  0.00276  1.0000
  C   C385      1.0  0.09737  0.87710  0.78391  1.0000
  H   H380      1.0  0.20242  0.94939  0.85214  1.0000
  H   H381      1.0  0.24369  0.92048  0.96860  1.0000
  H   H382      1.0  0.12230  0.88870  0.69692  1.0000
  C   C386      1.0  0.07600  0.76133  0.68568  1.0000
  C   C387      1.0  0.11530  0.91632  0.79839  1.0000
  H   H383      1.0  0.09913  0.75681  0.81334  1.0000
  H   H384      1.0  0.35151  0.92288  0.62591  1.0000
  H   H385      1.0  0.40550  0.97014  0.65556  1.0000
  H   H386      1.0  0.25783  0.93385  0.82097  1.0000
  H   H387      1.0  0.07938  0.87614  0.83709  1.0000
  N   N33       1.0  0.09102  0.75582  0.74936  1.0000
  C   C388      1.0  0.16439  0.88813  0.02430  1.0000
  N   N34       1.0  0.20336  0.86064  0.99564  1.0000
  H   H388      1.0  0.36987  0.95107  0.66925  1.0000
  H   H389      1.0  0.13363  0.87819  0.73588  1.0000
  C   C389      1.0  0.34708  0.97421  0.70170  1.0000
  S   S129      1.0  0.33630  0.96107  0.00774  1.0000
  C   C390      1.0  0.26551  0.96713  0.89666  1.0000
  C   C391      1.0  0.26936  0.95431  0.87048  1.0000
  S   S130      1.0  0.31881  0.97826  0.92682  1.0000
  H   H390      1.0  0.26576  0.97425  0.69376  1.0000
  C   C392      1.0  0.42224  0.97179  0.89599  1.0000
  H   H391      1.0  0.17405  0.97583  0.76693  1.0000
  C   C393      1.0  0.24751  0.96979  0.89254  1.0000
  H   H392      1.0  0.17759  0.86357  0.97000  1.0000
  S   S131      1.0  0.96672  0.74161  0.74387  1.0000
  C   C394      1.0  0.21531  0.97734  0.71597  1.0000
  H   H393      1.0  0.26725  0.98148  0.63996  1.0000
  H   H394      1.0  0.11863  0.75867  0.77734  1.0000
  H   H395      1.0  0.17774  0.83950  0.96786  1.0000
  H   H396      1.0  0.11120  0.77884  0.78569  1.0000
  C   C395      1.0  0.39308  0.97437  0.86678  1.0000
  H   H397      1.0  0.27639  0.97490  0.92011  1.0000
  H   H398      1.0  0.24478  0.97999  0.91266  1.0000
  C   C396      1.0  0.18486  0.89839  0.02159  1.0000
  H   H399      1.0  0.41440  0.93287  0.99169  1.0000
  H   H400      1.0  0.37485  0.90108  0.55321  1.0000
  H   H401      1.0  0.31373  0.98231  0.65870  1.0000
  H   H402      1.0  0.35234  0.89856  0.57904  1.0000
  H   H403      1.0  0.21633  0.97319  0.83216  1.0000
  C   C397      1.0  0.42092  0.94837  0.99504  1.0000
  H   H404      1.0  0.17318  0.84886  0.01601  1.0000
  C   C398      1.0  0.07928  0.73665  0.74803  1.0000
  H   H405      1.0  0.45064  0.94887  0.00541  1.0000
  Fe  Fe65      1.0  0.69960  0.04773  0.08056  1.0000
  S   S132      1.0  0.69624  0.07336  0.11022  1.0000
  Fe  Fe66      1.0  0.68786  0.02259  0.16078  1.0000
  S   S133      1.0  0.68444  0.04677  0.19611  1.0000
  C   C399      1.0  0.61121  0.02082  0.04644  1.0000
  Fe  Fe67      1.0  0.66879  0.05117  0.13809  1.0000
  S   S134      1.0  0.63883  0.05326  0.14533  1.0000
  Fe  Fe68      1.0  0.71244  0.06688  0.16509  1.0000
  S   S135      1.0  0.73895  0.08886  0.20023  1.0000
  S   S136      1.0  0.67097  0.02614  0.10400  1.0000
  S   S137      1.0  0.71715  0.04210  0.13419  1.0000
  Fe  Fe69      1.0  0.82114  0.19736  0.19796  1.0000
  C   C400      1.0  0.49914  0.03094  0.42940  1.0000
  S   S138      1.0  0.79379  0.17696  0.16242  1.0000
  H   H406      1.0  0.89480  0.22443  0.39186  1.0000
  C   C401      1.0  0.78445  0.11976  0.09730  1.0000
  S   S139      1.0  0.83181  0.18985  0.25925  1.0000
  H   H407      1.0  0.51096  0.01484  0.36695  1.0000
  H   H408      1.0  0.58671  0.99590  0.16297  1.0000
  H   H409      1.0  0.60930  0.02131  0.20633  1.0000
  N   N35       1.0  0.76651  0.17816  0.25315  1.0000
  H   H410      1.0  0.79249  0.10487  0.14813  1.0000
  C   C402      1.0  0.48389  0.99163  0.35039  1.0000
  S   S140      1.0  0.82108  0.22601  0.21969  1.0000
  C   C403      1.0  0.83110  0.21766  0.38773  1.0000
  S   S141      1.0  0.85543  0.20197  0.50979  1.0000
  N   N36       1.0  0.48684  0.01454  0.40408  1.0000
  C   C404      1.0  0.78511  0.17542  0.31385  1.0000
  S   S142      1.0  0.53156  0.00220  0.45478  1.0000
  H   H411      1.0  0.49073  0.04006  0.43773  1.0000
  H   H412      1.0  0.64130  0.03707  0.06566  1.0000
  H   H413      1.0  0.49075  0.98624  0.32649  1.0000
  C   C405      1.0  0.49527  0.00784  0.37340  1.0000
  C   C406      1.0  0.78085  0.18658  0.28263  1.0000
  C   C407      1.0  0.75558  0.15878  0.25479  1.0000
  H   H414      1.0  0.91865  0.18673  0.28052  1.0000
  H   H415      1.0  0.54253  0.00416  0.24946  1.0000
  H   H416      1.0  0.90286  0.21796  0.15787  1.0000
  S   S143      1.0  0.53385  0.99421  0.33528  1.0000
  Fe  Fe70      1.0  0.86246  0.20614  0.23484  1.0000
  S   S144      1.0  0.57651  0.99155  0.51754  1.0000
  C   C408      1.0  0.84582  0.20813  0.46326  1.0000
  C   C409      1.0  0.85269  0.20455  0.42502  1.0000
  C   C410      1.0  0.84541  0.20934  0.38735  1.0000
  Fe  Fe71      1.0  0.83349  0.21895  0.27962  1.0000
  H   H417      1.0  0.86360  0.19792  0.42455  1.0000
  H   H418      1.0  0.85071  0.20640  0.35805  1.0000
  C   C411      1.0  0.62052  0.03923  0.11001  1.0000
  C   C412      1.0  0.62587  0.03269  0.07351  1.0000
  N   N37       1.0  0.61708  0.00032  0.17479  1.0000
  H   H419      1.0  0.79678  0.18217  0.33666  1.0000
  C   C413      1.0  0.58562  0.02199  0.09200  1.0000
  C   C414      1.0  0.60036  0.03416  0.11887  1.0000
  C   C415      1.0  0.61901  0.01290  0.21040  1.0000
  C   C416      1.0  0.75370  0.08499  0.08108  1.0000
  C   C417      1.0  0.76696  0.08615  0.11395  1.0000
  H   H420      1.0  0.59614  0.03946  0.14676  1.0000
  C   C418      1.0  0.75394  0.11333  0.18878  1.0000
  C   C419      1.0  0.74874  0.12409  0.15800  1.0000
  C   C420      1.0  0.76116  0.14348  0.15027  1.0000
  C   C421      1.0  0.77895  0.15236  0.17302  1.0000
  C   C422      1.0  0.78420  0.14158  0.20363  1.0000
  C   C423      1.0  0.77173  0.12224  0.21152  1.0000
  H   H421      1.0  0.73512  0.11749  0.14026  1.0000
  H   H422      1.0  0.75692  0.15165  0.12649  1.0000
  H   H423      1.0  0.79782  0.14815  0.22138  1.0000
  H   H424      1.0  0.77595  0.11407  0.23534  1.0000
  H   H425      1.0  0.89016  0.22194  0.33634  1.0000
  C   C424      1.0  0.76226  0.19013  0.22074  1.0000
  H   H426      1.0  0.57010  0.01802  0.09899  1.0000
  H   H427      1.0  0.75116  0.13171  0.28581  1.0000
  H   H428      1.0  0.65350  0.04593  0.51561  1.0000
  C   C425      1.0  0.75944  0.14718  0.28558  1.0000
  S   S145      1.0  0.68106  0.99144  0.18292  1.0000
  C   C426      1.0  0.83146  0.21639  0.46365  1.0000
  H   H429      1.0  0.95197  0.20683  0.30688  1.0000
  H   H430      1.0  0.74175  0.07133  0.07489  1.0000
  C   C427      1.0  0.59932  0.99250  0.15395  1.0000
  H   H431      1.0  0.51264  0.04022  0.41268  1.0000
  C   C428      1.0  0.91416  0.23241  0.15698  1.0000
  H   H432      1.0  0.91069  0.21748  0.35833  1.0000
  H   H433      1.0  0.76488  0.07367  0.13374  1.0000
  H   H434      1.0  0.64689  0.00191  0.18034  1.0000
  C   C429      1.0  0.92360  0.20228  0.27842  1.0000
  C   C430      1.0  0.46720  0.00532  0.41299  1.0000
  H   H435      1.0  0.53161  0.98571  0.18398  1.0000
  H   H436      1.0  0.61518  0.00418  0.23943  1.0000
  H   H437      1.0  0.75617  0.18165  0.19214  1.0000
  H   H438      1.0  0.79614  0.13357  0.10405  1.0000
  H   H439      1.0  0.72591  0.09262  0.03502  1.0000
  H   H440      1.0  0.47526  0.99028  0.16420  1.0000
  H   H441      1.0  0.77229  0.13080  0.04636  1.0000
  C   C431      1.0  0.78244  0.10366  0.12201  1.0000
  H   H442      1.0  0.81294  0.22743  0.42642  1.0000
  C   C432      1.0  0.77442  0.15557  0.31506  1.0000
  C   C433      1.0  0.65747  0.98539  0.25343  1.0000
  H   H443      1.0  0.78926  0.20201  0.28195  1.0000
  S   S146      1.0  0.85196  0.21124  0.17142  1.0000
  C   C434      1.0  0.91749  0.23097  0.25916  1.0000
  S   S147      1.0  0.88726  0.19542  0.24423  1.0000
  H   H444      1.0  0.66018  0.00062  0.25217  1.0000
  C   C435      1.0  0.94252  0.21367  0.29317  1.0000
  H   H445      1.0  0.74420  0.15206  0.23145  1.0000
  C   C436      1.0  0.91091  0.21079  0.26178  1.0000
  H   H446      1.0  0.75156  0.19622  0.23219  1.0000
  C   C437      1.0  0.59110  0.01527  0.05580  1.0000
  H   H447      1.0  0.77781  0.14671  0.33869  1.0000
  H   H448      1.0  0.63441  0.02374  0.21329  1.0000
  C   C438      1.0  0.82413  0.22114  0.42598  1.0000
  C   C439      1.0  0.63287  0.99584  0.16368  1.0000
  H   H449      1.0  0.93786  0.22309  0.17416  1.0000
  N   N38       1.0  0.75561  0.10088  0.05731  1.0000
  C   C440      1.0  0.77079  0.11812  0.06490  1.0000
  S   S148      1.0  0.47914  0.99176  0.50460  1.0000
  S   S149      1.0  0.82139  0.22359  0.34107  1.0000
  H   H450      1.0  0.77610  0.20207  0.21116  1.0000
  H   H451      1.0  0.81627  0.17041  0.52172  1.0000
  C   C441      1.0  0.90190  0.22679  0.36098  1.0000
  H   H452      1.0  0.50380  0.02556  0.45858  1.0000
  S   S150      1.0  0.52067  0.98760  0.08255  1.0000
  H   H453      1.0  0.82588  0.21896  0.49295  1.0000
  C   C442      1.0  0.53255  0.98921  0.25072  1.0000
  H   H454      1.0  0.48368  0.99230  0.11115  1.0000
  C   C443      1.0  0.94933  0.23375  0.29018  1.0000
  C   C444      1.0  0.79487  0.14917  0.56044  1.0000
  H   H455      1.0  0.74320  0.11326  0.00886  1.0000
  S   S151      1.0  0.83618  0.22323  0.68293  1.0000
  H   H456      1.0  0.65659  0.98647  0.72764  1.0000
  Fe  Fe72      1.0  0.84708  0.20963  0.57266  1.0000
  S   S152      1.0  0.81620  0.20531  0.59188  1.0000
  C   C445      1.0  0.65462  0.05615  0.54002  1.0000
  Fe  Fe73      1.0  0.82396  0.19390  0.65216  1.0000
  S   S153      1.0  0.80495  0.16549  0.68502  1.0000
  H   H457      1.0  0.64676  0.08685  0.66224  1.0000
  S   S154      1.0  0.85450  0.19658  0.63103  1.0000
  Fe  Fe74      1.0  0.67354  0.05313  0.78365  1.0000
  S   S155      1.0  0.70339  0.05781  0.75686  1.0000
  S   S156      1.0  0.66288  0.05029  0.85027  1.0000
  Fe  Fe75      1.0  0.65258  0.04704  0.69796  1.0000
  S   S157      1.0  0.68069  0.05091  0.66473  1.0000
  S   S158      1.0  0.62224  0.04374  0.67086  1.0000
  Fe  Fe76      1.0  0.68575  0.03264  0.71646  1.0000
  S   S159      1.0  0.69802  0.00964  0.70571  1.0000
  Fe  Fe77      1.0  0.69622  0.07607  0.70719  1.0000
  S   S160      1.0  0.71470  0.10468  0.67423  1.0000
  S   S161      1.0  0.65658  0.02681  0.74630  1.0000
  S   S162      1.0  0.66744  0.07323  0.73748  1.0000
  C   C446      1.0  0.67306  0.06729  0.55724  1.0000
  H   H458      1.0  0.78982  0.11228  0.65414  1.0000
  N   N39       1.0  0.80839  0.13425  0.61315  1.0000
  C   C447      1.0  0.59369  0.01909  0.87538  1.0000
  H   H459      1.0  0.67289  0.09888  0.65553  1.0000
  C   C448      1.0  0.60929  0.02831  0.62964  1.0000
  C   C449      1.0  0.61758  0.01714  0.60806  1.0000
  C   C450      1.0  0.60724  0.00592  0.57406  1.0000
  C   C451      1.0  0.58844  0.00555  0.56145  1.0000
  C   C452      1.0  0.58010  0.01662  0.58323  1.0000
  C   C453      1.0  0.59052  0.02799  0.61701  1.0000
  H   H460      1.0  0.63205  0.01732  0.61722  1.0000
  C   C454      1.0  0.90360  0.22757  0.75290  1.0000
  H   H461      1.0  0.60079  0.02871  0.79477  1.0000
  H   H462      1.0  0.58397  0.03660  0.63339  1.0000
  C   C455      1.0  0.77942  0.14952  0.68322  1.0000
  C   C456      1.0  0.77319  0.13299  0.70905  1.0000
  C   C457      1.0  0.75355  0.11922  0.70700  1.0000
  C   C458      1.0  0.73969  0.12177  0.67909  1.0000
  C   C459      1.0  0.74588  0.13837  0.65342  1.0000
  C   C460      1.0  0.76553  0.15216  0.65549  1.0000
  H   H463      1.0  0.78368  0.13078  0.73086  1.0000
  H   H464      1.0  0.74913  0.10664  0.72710  1.0000
  H   H465      1.0  0.73535  0.14064  0.63182  1.0000
  H   H466      1.0  0.76995  0.16477  0.63547  1.0000
  S   S163      1.0  0.71235  0.05005  0.01582  1.0000
  C   C461      1.0  0.61879  0.05025  0.88294  1.0000
  C   C462      1.0  0.61391  0.05069  0.92463  1.0000
  H   H467      1.0  0.68316  0.02329  0.82228  1.0000
  H   H468      1.0  0.65606  0.10734  0.62707  1.0000
  C   C463      1.0  0.79232  0.13611  0.59349  1.0000
  C   C464      1.0  0.80573  0.12101  0.64860  1.0000
  C   C465      1.0  0.58838  0.01908  0.91694  1.0000
  C   C466      1.0  0.65830  0.09428  0.63894  1.0000
  C   C467      1.0  0.69838  0.04996  0.97006  1.0000
  C   C468      1.0  0.70767  0.05267  0.93129  1.0000
  C   C469      1.0  0.69705  0.05287  0.89426  1.0000
  C   C470      1.0  0.67700  0.05024  0.89576  1.0000
  C   C471      1.0  0.66769  0.04739  0.93450  1.0000
  C   C472      1.0  0.67832  0.04732  0.97151  1.0000
  H   H469      1.0  0.72319  0.05474  0.92992  1.0000
  H   H470      1.0  0.70445  0.05524  0.86471  1.0000
  H   H471      1.0  0.65217  0.04524  0.93604  1.0000
  H   H472      1.0  0.67099  0.04517  0.00114  1.0000
  H   H473      1.0  0.95188  0.21121  0.77103  1.0000
  H   H474      1.0  0.57655  0.00675  0.93021  1.0000
  N   N40       1.0  0.67189  0.99287  0.83451  1.0000
  H   H475      1.0  0.91024  0.21364  0.80724  1.0000
  H   H476      1.0  0.59456  0.03520  0.97386  1.0000
  C   C473      1.0  0.83025  0.15796  0.56707  1.0000
  N   N41       1.0  0.65718  0.08129  0.60454  1.0000
  H   H477      1.0  0.62265  0.02453  0.81276  1.0000
  H   H478      1.0  0.81188  0.12941  0.67727  1.0000
  C   C474      1.0  0.68840  0.01124  0.82744  1.0000
  C   C475      1.0  0.81398  0.16008  0.54709  1.0000
  H   H479      1.0  0.68848  0.08845  0.60304  1.0000
  H   H480      1.0  0.56569  0.01653  0.57386  1.0000
  H   H481      1.0  0.63099  0.06238  0.87024  1.0000
  H   H482      1.0  0.84518  0.16658  0.55722  1.0000
  C   C476      1.0  0.63910  0.07078  0.58713  1.0000
  H   H483      1.0  0.77742  0.12784  0.60399  1.0000
  S   S164      1.0  0.47562  0.98937  0.01920  1.0000
  H   H484      1.0  0.58582  0.00655  0.85654  1.0000
  H   H485      1.0  0.62371  0.04859  0.80367  1.0000
  H   H486      1.0  0.83994  0.14401  0.61688  1.0000
  C   C477      1.0  0.67410  0.08001  0.58945  1.0000
  H   H487      1.0  0.65106  0.00599  0.84665  1.0000
  H   H488      1.0  0.62566  0.07163  0.59941  1.0000
  C   C478      1.0  0.82718  0.14509  0.60059  1.0000
  N   N42       1.0  0.60859  0.03464  0.85878  1.0000
  C   C479      1.0  0.63752  0.05802  0.55474  1.0000
  H   H489      1.0  0.62215  0.06299  0.94383  1.0000
  H   H490      1.0  0.61386  0.99746  0.55735  1.0000
  C   C480      1.0  0.61415  0.03407  0.81539  1.0000
  H   H491      1.0  0.88948  0.21607  0.74667  1.0000
  H   H492      1.0  0.69670  0.01047  0.79927  1.0000
  H   H493      1.0  0.78213  0.15100  0.54576  1.0000
  C   C481      1.0  0.59853  0.03504  0.94158  1.0000
  C   C482      1.0  0.65354  0.99260  0.84425  1.0000
  H   H494      1.0  0.69864  0.01479  0.85481  1.0000
  C   C483      1.0  0.68546  0.98525  0.71959  1.0000
  H   H495      1.0  0.81345  0.11096  0.64327  1.0000
  H   H496      1.0  0.74299  0.08949  0.99889  1.0000
  Fe  Fe78      1.0  0.86592  0.22659  0.65728  1.0000
  H   H497      1.0  0.62304  0.04916  0.54215  1.0000
  H   H498      1.0  0.61553  0.01584  0.01824  1.0000
  H   H499      1.0  0.68646  0.06588  0.54627  1.0000
  C   C484      1.0  0.91540  0.22624  0.78721  1.0000
  C   C485      1.0  0.74132  0.09911  0.02330  1.0000
  S   S165      1.0  0.57342  0.00046  0.02053  1.0000
  C   C486      1.0  0.95828  0.35579  0.43245  1.0000
  C   C487      1.0  0.89943  0.31566  0.50388  1.0000
  C   C488      1.0  0.93832  0.28590  0.34463  1.0000
  C   C489      1.0  0.86861  0.34953  0.11857  1.0000
  S   S166      1.0  0.87274  0.26881  0.17384  1.0000
  H   H500      1.0  0.83193  0.28852  0.47959  1.0000
  H   H501      1.0  0.89675  0.32410  0.07791  1.0000
  S   S167      1.0  0.93072  0.42717  0.48342  1.0000
  H   H502      1.0  0.87026  0.33916  0.14085  1.0000
  C   C490      1.0  0.93038  0.45062  0.49092  1.0000
  C   C491      1.0  0.93354  0.46327  0.45656  1.0000
  N   N43       1.0  0.87982  0.43317  0.49896  1.0000
  H   H503      1.0  0.93698  0.45885  0.42680  1.0000
  H   H504      1.0  0.91947  0.27905  0.14077  1.0000
  C   C492      1.0  0.88055  0.28076  0.50450  1.0000
  N   N44       1.0  0.91447  0.24720  0.35547  1.0000
  C   C493      1.0  0.94322  0.26924  0.15722  1.0000
  H   H505      1.0  0.94050  0.24375  0.37986  1.0000
  H   H506      1.0  0.86391  0.40497  0.52235  1.0000
  C   C494      1.0  0.92352  0.26674  0.14782  1.0000
  N   N45       1.0  0.88073  0.29903  0.49944  1.0000
  H   H507      1.0  0.95452  0.28370  0.15689  1.0000
  H   H508      1.0  0.89930  0.30414  0.13857  1.0000
  H   H509      1.0  0.87399  0.47515  0.51782  1.0000
  C   C495      1.0  0.87010  0.28230  0.12983  1.0000
  C   C496      1.0  0.85279  0.27657  0.10534  1.0000
  C   C497      1.0  0.85131  0.28806  0.07123  1.0000
  C   C498      1.0  0.86716  0.30521  0.06096  1.0000
  C   C499      1.0  0.86504  0.37499  0.05832  1.0000
  C   C500      1.0  0.88588  0.29954  0.11972  1.0000
  H   H510      1.0  0.84053  0.26338  0.11280  1.0000
  H   H511      1.0  0.86377  0.31635  0.48514  1.0000
  Fe  Fe79      1.0  0.92667  0.40155  0.52790  1.0000
  H   H512      1.0  0.90729  0.31915  0.47382  1.0000
  C   C501      1.0  0.84518  0.26752  0.49186  1.0000
  C   C502      1.0  0.91826  0.27924  0.33339  1.0000
  C   C503      1.0  0.95797  0.34215  0.46286  1.0000
  H   H513      1.0  0.93069  0.47438  0.09750  1.0000
  H   H514      1.0  0.94200  0.25799  0.27025  1.0000
  S   S168      1.0  0.95002  0.34336  0.51384  1.0000
  C   C504      1.0  0.93402  0.25370  0.36749  1.0000
  N   N46       1.0  0.94815  0.25368  0.16695  1.0000
  H   H515      1.0  0.86264  0.25024  0.50498  1.0000
  H   H516      1.0  0.95331  0.36731  0.43980  1.0000
  C   C505      1.0  0.87574  0.44690  0.52034  1.0000
  C   C506      1.0  0.88072  0.46658  0.45830  1.0000
  C   C507      1.0  0.87938  0.41562  0.52059  1.0000
  C   C508      1.0  0.85331  0.34370  0.08875  1.0000
  H   H517      1.0  0.88745  0.42485  0.44068  1.0000
  H   H518      1.0  0.89359  0.24611  0.14092  1.0000
  C   C509      1.0  0.88028  0.38144  0.08819  1.0000
  H   H519      1.0  0.89679  0.32856  0.51447  1.0000
  S   S169      1.0  0.91313  0.37169  0.50033  1.0000
  H   H520      1.0  0.96191  0.27795  0.37007  1.0000
  H   H521      1.0  0.89434  0.37320  0.14062  1.0000
  H   H522      1.0  0.88853  0.40887  0.50451  1.0000
  C   C510      1.0  0.88386  0.43558  0.45745  1.0000
  H   H523      1.0  0.94773  0.30093  0.33959  1.0000
  C   C511      1.0  0.90894  0.24820  0.14782  1.0000
  H   H524      1.0  0.90779  0.23768  0.24623  1.0000
  C   C512      1.0  0.94626  0.27308  0.36195  1.0000
  C   C513      1.0  0.86280  0.26473  0.50065  1.0000
  C   C514      1.0  0.84558  0.28617  0.48587  1.0000
  H   H525      1.0  0.88188  0.47999  0.44293  1.0000
  H   H526      1.0  0.91195  0.28907  0.31970  1.0000
  C   C515      1.0  0.88448  0.31090  0.08536  1.0000
  C   C516      1.0  0.88215  0.36856  0.11827  1.0000
  H   H527      1.0  0.83122  0.25526  0.49000  1.0000
  C   C517      1.0  0.88439  0.45231  0.43651  1.0000
  C   C518      1.0  0.93398  0.23543  0.16631  1.0000
  C   C519      1.0  0.86365  0.30185  0.48915  1.0000
  N   N47       1.0  0.85173  0.35637  0.05905  1.0000
  C   C520      1.0  0.87630  0.46387  0.50044  1.0000
  C   C521      1.0  0.93691  0.24246  0.27248  1.0000
  H   H528      1.0  0.89085  0.25470  0.33064  1.0000
  S   S170      1.0  0.86489  0.23439  0.26050  1.0000
  H   H529      1.0  0.88829  0.45448  0.40398  1.0000
  H   H530      1.0  0.84330  0.32870  0.08825  1.0000
  C   C522      1.0  0.92600  0.45657  0.52920  1.0000
  H   H531      1.0  0.89101  0.39615  0.08685  1.0000
  C   C523      1.0  0.90643  0.25976  0.33941  1.0000
  H   H532      1.0  0.90940  0.31287  0.52760  1.0000
  H   H533      1.0  0.89413  0.27850  0.51214  1.0000
  H   H534      1.0  0.83783  0.28357  0.05257  1.0000
  Fe  Fe80      1.0  0.85274  0.23917  0.19815  1.0000
  C   C524      1.0  0.93176  0.48137  0.45999  1.0000
  H   H535      1.0  0.86421  0.38490  0.03399  1.0000
  H   H536      1.0  0.82358  0.33704  0.03637  1.0000
  S   S171      1.0  0.86426  0.31958  0.01884  1.0000
  C   C525      1.0  0.94031  0.25727  0.76967  1.0000
  C   C526      1.0  0.93185  0.32777  0.85806  1.0000
  Fe  Fe81      1.0  0.90490  0.36408  0.90773  1.0000
  S   S172      1.0  0.92954  0.38960  0.93566  1.0000
  S   S173      1.0  0.89655  0.35459  0.84082  1.0000
  Fe  Fe82      1.0  0.93328  0.36748  0.97990  1.0000
  Fe  Fe83      1.0  0.93668  0.36475  0.53521  1.0000
  Fe  Fe84      1.0  0.90667  0.39034  0.98154  1.0000
  S   S174      1.0  0.89925  0.41540  0.00633  1.0000
  S   S175      1.0  0.91064  0.34208  0.94858  1.0000
  S   S176      1.0  0.88168  0.36626  0.95030  1.0000
  S   S177      1.0  0.81854  0.25805  0.61370  1.0000
  Fe  Fe85      1.0  0.93153  0.38513  0.61344  1.0000
  S   S178      1.0  0.90737  0.39338  0.58429  1.0000
  H   H537      1.0  0.92368  0.44711  0.55601  1.0000
  C   C527      1.0  0.49935  0.48169  0.93476  1.0000
  Fe  Fe86      1.0  0.89607  0.36313  0.55939  1.0000
  C   C528      1.0  0.90418  0.45353  0.01489  1.0000
  S   S179      1.0  0.91854  0.35436  0.59291  1.0000
  C   C529      1.0  0.83237  0.28169  0.59617  1.0000
  C   C530      1.0  0.82177  0.29305  0.58341  1.0000
  H   H538      1.0  0.93116  0.28410  0.89118  1.0000
  C   C531      1.0  0.85235  0.32065  0.57279  1.0000
  C   C532      1.0  0.86322  0.30945  0.58597  1.0000
  C   C533      1.0  0.85321  0.28982  0.59694  1.0000
  H   H539      1.0  0.80571  0.28695  0.58288  1.0000
  H   H540      1.0  0.90766  0.48338  0.02259  1.0000
  H   H541      1.0  0.87924  0.31582  0.58731  1.0000
  H   H542      1.0  0.86156  0.28119  0.60703  1.0000
  H   H543      1.0  0.95574  0.47393  0.96407  1.0000
  H   H544      1.0  0.92041  0.47889  0.56224  1.0000
  H   H545      1.0  0.48175  0.44378  0.96640  1.0000
  C   C534      1.0  0.94131  0.46830  0.97828  1.0000
  N   N48       1.0  0.48015  0.46939  0.94020  1.0000
  H   H546      1.0  0.51096  0.48127  0.95599  1.0000
  C   C535      1.0  0.91428  0.47368  0.01120  1.0000
  C   C536      1.0  0.94884  0.30114  0.84140  1.0000
  C   C537      1.0  0.91249  0.44065  0.00002  1.0000
  C   C538      1.0  0.83166  0.31227  0.57138  1.0000
  C   C539      1.0  0.90964  0.36627  0.79622  1.0000
  C   C540      1.0  0.90229  0.35871  0.75692  1.0000
  C   C541      1.0  0.91247  0.36721  0.72056  1.0000
  C   C542      1.0  0.93022  0.38328  0.72331  1.0000
  C   C543      1.0  0.93763  0.39076  0.76265  1.0000
  C   C544      1.0  0.92732  0.38238  0.79900  1.0000
  H   H547      1.0  0.88857  0.34631  0.75474  1.0000
  H   H548      1.0  0.90664  0.36143  0.69041  1.0000
  C   C545      1.0  0.93376  0.24108  0.79581  1.0000
  H   H549      1.0  0.93308  0.38836  0.82908  1.0000
  H   H550      1.0  0.93967  0.34819  0.77903  1.0000
  S   S180      1.0  0.94371  0.39413  0.67848  1.0000
  H   H551      1.0  0.91567  0.30789  0.90597  1.0000
  H   H552      1.0  0.83833  0.31712  0.66584  1.0000
  C   C546      1.0  0.92416  0.47463  0.53261  1.0000
  N   N49       1.0  0.94568  0.33156  0.82762  1.0000
  S   S181      1.0  0.86091  0.23964  0.59672  1.0000
  S   S182      1.0  0.94844  0.23836  0.83826  1.0000
  C   C547      1.0  0.88783  0.29160  0.69876  1.0000
  H   H553      1.0  0.84305  0.34509  0.99884  1.0000
  C   C548      1.0  0.83640  0.30561  0.68956  1.0000
  C   C549      1.0  0.92643  0.31069  0.88143  1.0000
  H   H554      1.0  0.82314  0.32075  0.56122  1.0000
  H   H555      1.0  0.90090  0.28787  0.70075  1.0000
  H   H556      1.0  0.82314  0.29298  0.67967  1.0000
  H   H557      1.0  0.93774  0.43848  0.97005  1.0000
  C   C550      1.0  0.92853  0.25859  0.73536  1.0000
  H   H558      1.0  0.87398  0.32983  0.68369  1.0000
  S   S183      1.0  0.95183  0.39511  0.55848  1.0000
  C   C551      1.0  0.85224  0.28201  0.69961  1.0000
  C   C552      1.0  0.87250  0.31500  0.68916  1.0000
  N   N50       1.0  0.85412  0.30070  0.69241  1.0000
  H   H559      1.0  0.83137  0.36117  0.01574  1.0000
  S   S184      1.0  0.89614  0.24629  0.68292  1.0000
  H   H560      1.0  0.83767  0.27063  0.70199  1.0000
  H   H561      1.0  0.86754  0.26235  0.70807  1.0000
  C   C553      1.0  0.88962  0.31067  0.69204  1.0000
  S   S185      1.0  0.96155  0.36392  0.99938  1.0000
  H   H562      1.0  0.83356  0.31062  0.72017  1.0000
  H   H563      1.0  0.93375  0.27114  0.71518  1.0000
  S   S186      1.0  0.91237  0.36991  0.02787  1.0000
  C   C554      1.0  0.86904  0.27720  0.70281  1.0000
  H   H564      1.0  0.90415  0.32204  0.68897  1.0000
  C   C555      1.0  0.93506  0.29734  0.87308  1.0000
  S   S187      1.0  0.86345  0.34483  0.55581  1.0000
  Fe  Fe87      1.0  0.88928  0.34588  0.99313  1.0000
  H   H565      1.0  0.92509  0.33810  0.86462  1.0000
  H   H566      1.0  0.88574  0.41898  0.55252  1.0000
  C   C556      1.0  0.91013  0.24377  0.72679  1.0000
  C   C557      1.0  0.93114  0.44817  0.98163  1.0000
  H   H567      1.0  0.95453  0.26866  0.77553  1.0000
  H   H568      1.0  0.95133  0.40321  0.76497  1.0000
  C   C558      1.0  0.47564  0.45491  0.97365  1.0000
  H   H569      1.0  0.87263  0.44504  0.55327  1.0000
  C   C559      1.0  0.93295  0.48117  0.99289  1.0000
  C   C560      1.0  0.95106  0.34956  0.80359  1.0000
  C   C561      1.0  0.83664  0.34962  0.02594  1.0000
  H   H570      1.0  0.95578  0.29095  0.83496  1.0000
  C   C562      1.0  0.95396  0.31839  0.81872  1.0000
  H   H571      1.0  0.95207  0.36172  0.82413  1.0000
  H   H572      1.0  0.48219  0.46192  0.00354  1.0000
  Fe  Fe88      1.0  0.83094  0.23468  0.62073  1.0000
  H   H573      1.0  0.95686  0.23421  0.71251  1.0000
  C   C563      1.0  0.46542  0.47022  0.91400  1.0000
  H   H574      1.0  0.88975  0.44789  0.02908  1.0000
  H   H575      1.0  0.84732  0.69567  0.23534  1.0000
  H   H576      1.0  0.66269  0.56020  0.17721  1.0000
  S   S188      1.0  0.91880  0.53544  0.05515  1.0000
  Fe  Fe89      1.0  0.57308  0.68183  0.32948  1.0000
  S   S189      1.0  0.59579  0.70905  0.35632  1.0000
  S   S190      1.0  0.56160  0.65046  0.35228  1.0000
  Fe  Fe90      1.0  0.57540  0.70063  0.24240  1.0000
  S   S191      1.0  0.56178  0.69277  0.17815  1.0000
  Fe  Fe91      1.0  0.61212  0.71093  0.29702  1.0000
  C   C564      1.0  0.95814  0.49790  0.08390  1.0000
  S   S192      1.0  0.59094  0.68301  0.27248  1.0000
  S   S193      1.0  0.55587  0.69777  0.29729  1.0000
  H   H577      1.0  0.55336  0.58505  0.48995  1.0000
  S   S194      1.0  0.51291  0.54573  0.50096  1.0000
  Fe  Fe92      1.0  0.85122  0.61336  0.13543  1.0000
  S   S195      1.0  0.88202  0.63483  0.12616  1.0000
  S   S196      1.0  0.84937  0.58322  0.14753  1.0000
  Fe  Fe93      1.0  0.83241  0.64339  0.13384  1.0000
  S   S197      1.0  0.86210  0.66742  0.12446  1.0000
  S   S198      1.0  0.80593  0.65252  0.13846  1.0000
  Fe  Fe94      1.0  0.86732  0.64750  0.07806  1.0000
  Fe  Fe95      1.0  0.87414  0.65252  0.17311  1.0000
  S   S199      1.0  0.89001  0.66313  0.23508  1.0000
  S   S200      1.0  0.83691  0.62459  0.08417  1.0000
  S   S201      1.0  0.84400  0.62992  0.18547  1.0000
  Fe  Fe96      1.0  0.67428  0.64027  0.20793  1.0000
  S   S202      1.0  0.64451  0.61937  0.22753  1.0000
  S   S203      1.0  0.67921  0.67022  0.18568  1.0000
  Fe  Fe97      1.0  0.69539  0.61264  0.22162  1.0000
  S   S204      1.0  0.66710  0.58926  0.24261  1.0000
  S   S205      1.0  0.72259  0.60438  0.22029  1.0000
  Fe  Fe98      1.0  0.65193  0.59824  0.18926  1.0000
  S   S206      1.0  0.63056  0.57461  0.14869  1.0000
  Fe  Fe99      1.0  0.66195  0.61217  0.27935  1.0000
  S   S207      1.0  0.64812  0.60509  0.34309  1.0000
  S   S208      1.0  0.68059  0.61981  0.16534  1.0000
  S   S209      1.0  0.69131  0.63496  0.26271  1.0000
  C   C565      1.0  0.60515  0.58192  0.49219  1.0000
  Fe  Fe100     1.0  0.91771  0.57218  0.45764  1.0000
  C   C566      1.0  0.95644  0.69677  0.26303  1.0000
  H   H578      1.0  0.93637  0.62265  0.32152  1.0000
  Fe  Fe101     1.0  0.92375  0.55371  0.37674  1.0000
  C   C567      1.0  0.93353  0.50027  0.13026  1.0000
  S   S210      1.0  0.91066  0.54632  0.31131  1.0000
  Fe  Fe102     1.0  0.92779  0.53530  0.46097  1.0000
  C   C568      1.0  0.83537  0.65388  0.26696  1.0000
  H   H579      1.0  0.85879  0.67966  0.21725  1.0000
  S   S211      1.0  0.90302  0.54244  0.43077  1.0000
  S   S212      1.0  0.93643  0.58396  0.40115  1.0000
  C   C569      1.0  0.58841  0.56544  0.48405  1.0000
  H   H580      1.0  0.94983  0.66784  0.47115  1.0000
  C   C570      1.0  0.65976  0.61747  0.38855  1.0000
  C   C571      1.0  0.67706  0.63404  0.38695  1.0000
  C   C572      1.0  0.68545  0.64390  0.42374  1.0000
  C   C573      1.0  0.67677  0.63713  0.46237  1.0000
  C   C574      1.0  0.65957  0.62047  0.46402  1.0000
  C   C575      1.0  0.65102  0.61079  0.42715  1.0000
  H   H581      1.0  0.68399  0.63925  0.35744  1.0000
  H   H582      1.0  0.69880  0.65674  0.42231  1.0000
  H   H583      1.0  0.65291  0.61509  0.49367  1.0000
  H   H584      1.0  0.63768  0.59795  0.42841  1.0000
  C   C576      1.0  0.61147  0.57759  0.11768  1.0000
  C   C577      1.0  0.59813  0.56174  0.09586  1.0000
  N   N51       1.0  0.91796  0.61964  0.05726  1.0000
  C   C578      1.0  0.58112  0.58160  0.06636  1.0000
  C   C579      1.0  0.59453  0.59746  0.08807  1.0000
  C   C580      1.0  0.60959  0.59546  0.11372  1.0000
  H   H585      1.0  0.59327  0.61137  0.08490  1.0000
  H   H586      1.0  0.65497  0.70865  0.15684  1.0000
  H   H587      1.0  0.61982  0.60768  0.13031  1.0000
  H   H588      1.0  0.54096  0.71602  0.22435  1.0000
  C   C581      1.0  0.91577  0.67573  0.24469  1.0000
  C   C582      1.0  0.92913  0.68347  0.21251  1.0000
  C   C583      1.0  0.94932  0.69405  0.22171  1.0000
  H   H589      1.0  0.92387  0.68172  0.18059  1.0000
  C   C584      1.0  0.60293  0.59944  0.49899  1.0000
  C   C585      1.0  0.78257  0.63847  0.15963  1.0000
  C   C586      1.0  0.76768  0.64622  0.16028  1.0000
  C   C587      1.0  0.74924  0.63600  0.17874  1.0000
  C   C588      1.0  0.74556  0.61793  0.19698  1.0000
  C   C589      1.0  0.76042  0.61013  0.19621  1.0000
  C   C590      1.0  0.77882  0.62031  0.17756  1.0000
  H   H590      1.0  0.77047  0.66028  0.14657  1.0000
  H   H591      1.0  0.73793  0.64215  0.17903  1.0000
  H   H592      1.0  0.75766  0.59611  0.21009  1.0000
  H   H593      1.0  0.79016  0.61420  0.17739  1.0000
  C   C591      1.0  0.65381  0.70491  0.26569  1.0000
  C   C592      1.0  0.67272  0.71346  0.24892  1.0000
  C   C593      1.0  0.68041  0.70267  0.22446  1.0000
  C   C594      1.0  0.66960  0.68306  0.21818  1.0000
  C   C595      1.0  0.65084  0.67430  0.23575  1.0000
  C   C596      1.0  0.64273  0.68536  0.25859  1.0000
  H   H594      1.0  0.89666  0.59989  0.09707  1.0000
  H   H595      1.0  0.69489  0.70950  0.21079  1.0000
  H   H596      1.0  0.64235  0.65917  0.23073  1.0000
  H   H597      1.0  0.62822  0.67857  0.27178  1.0000
  C   C597      1.0  0.57560  0.70241  0.13319  1.0000
  C   C598      1.0  0.69921  0.57973  0.13410  1.0000
  C   C599      1.0  0.59454  0.71682  0.13584  1.0000
  H   H598      1.0  0.58982  0.55165  0.47968  1.0000
  H   H599      1.0  0.60215  0.68643  0.18061  1.0000
  C   C600      1.0  0.55134  0.63790  0.39884  1.0000
  C   C601      1.0  0.55009  0.64739  0.43511  1.0000
  C   C602      1.0  0.54206  0.63667  0.47135  1.0000
  C   C603      1.0  0.53513  0.61639  0.47177  1.0000
  C   C604      1.0  0.53644  0.60691  0.43551  1.0000
  C   C605      1.0  0.54459  0.61763  0.39938  1.0000
  H   H600      1.0  0.55522  0.66295  0.43523  1.0000
  H   H601      1.0  0.54113  0.64415  0.49924  1.0000
  H   H602      1.0  0.54541  0.61013  0.37143  1.0000
  H   H603      1.0  0.95946  0.70035  0.19661  1.0000
  C   C606      1.0  0.60495  0.72466  0.09941  1.0000
  C   C607      1.0  0.85458  0.58142  0.06413  1.0000
  C   C608      1.0  0.85759  0.57498  0.10376  1.0000
  C   C609      1.0  0.86848  0.56308  0.10858  1.0000
  C   C610      1.0  0.87678  0.55805  0.07380  1.0000
  C   C611      1.0  0.95565  0.62541  0.49045  1.0000
  S   S213      1.0  0.59824  0.72903  0.26190  1.0000
  H   H604      1.0  0.87094  0.55818  0.13924  1.0000
  H   H605      1.0  0.88545  0.54911  0.07764  1.0000
  C   C612      1.0  0.92261  0.55343  0.18769  1.0000
  C   C613      1.0  0.91307  0.54771  0.22608  1.0000
  C   C614      1.0  0.92346  0.55380  0.26387  1.0000
  S   S214      1.0  0.52586  0.60379  0.51889  1.0000
  H   H606      1.0  0.91443  0.54855  0.15891  1.0000
  H   H607      1.0  0.89754  0.53843  0.22651  1.0000
  C   C615      1.0  0.79558  0.64851  0.25972  1.0000
  S   S215      1.0  0.94087  0.56442  0.49176  1.0000
  H   H608      1.0  0.93388  0.49074  0.43308  1.0000
  H   H609      1.0  0.63336  0.64270  0.12971  1.0000
  H   H610      1.0  0.52847  0.73289  0.22463  1.0000
  N   N52       1.0  0.67951  0.57179  0.12355  1.0000
  C   C616      1.0  0.58296  0.56370  0.07040  1.0000
  C   C617      1.0  0.67193  0.57981  0.09238  1.0000
  H   H611      1.0  0.70513  0.57380  0.15973  1.0000
  C   C618      1.0  0.68424  0.59609  0.07061  1.0000
  H   H612      1.0  0.59569  0.62961  0.51976  1.0000
  C   C619      1.0  0.66638  0.55521  0.14733  1.0000
  C   C620      1.0  0.91223  0.60770  0.09117  1.0000
  H   H613      1.0  0.95165  0.57077  0.29168  1.0000
  H   H614      1.0  0.84610  0.59053  0.06028  1.0000
  C   C621      1.0  0.70441  0.60415  0.08091  1.0000
  C   C622      1.0  0.53313  0.61461  0.03681  1.0000
  C   C623      1.0  0.94537  0.51959  0.13678  1.0000
  H   H615      1.0  0.65217  0.54757  0.13036  1.0000
  C   C624      1.0  0.92674  0.48703  0.49795  1.0000
  N   N53       1.0  0.64848  0.66848  0.34624  1.0000
  C   C625      1.0  0.63489  0.67536  0.36107  1.0000
  C   C626      1.0  0.64257  0.64988  0.33286  1.0000
  C   C627      1.0  0.61475  0.66356  0.36204  1.0000
  C   C628      1.0  0.62258  0.63768  0.33357  1.0000
  C   C629      1.0  0.60859  0.64461  0.34814  1.0000
  C   C630      1.0  0.66959  0.68083  0.34587  1.0000
  H   H616      1.0  0.63952  0.69017  0.37134  1.0000
  H   H617      1.0  0.65334  0.64440  0.32130  1.0000
  H   H618      1.0  0.60393  0.66909  0.37318  1.0000
  H   H619      1.0  0.61806  0.62290  0.32308  1.0000
  H   H620      1.0  0.59298  0.63536  0.34860  1.0000
  H   H621      1.0  0.67671  0.67824  0.31751  1.0000
  H   H622      1.0  0.91270  0.67228  0.31116  1.0000
  H   H623      1.0  0.67808  0.60258  0.04648  1.0000
  C   C631      1.0  0.81011  0.66366  0.23893  1.0000
  H   H624      1.0  0.67175  0.69636  0.34529  1.0000
  C   C632      1.0  0.55197  0.62910  0.03501  1.0000
  H   H625      1.0  0.59946  0.54785  0.09879  1.0000
  C   C633      1.0  0.94599  0.63808  0.48210  1.0000
  C   C634      1.0  0.54227  0.73070  0.23388  1.0000
  H   H626      1.0  0.53100  0.59133  0.43510  1.0000
  H   H627      1.0  0.71411  0.61696  0.06481  1.0000
  H   H628      1.0  0.78002  0.64633  0.25580  1.0000
  H   H629      1.0  0.94841  0.69060  0.32711  1.0000
  H   H630      1.0  0.72756  0.60220  0.12144  1.0000
  C   C635      1.0  0.94648  0.61500  0.11062  1.0000
  C   C636      1.0  0.87350  0.56428  0.03411  1.0000
  C   C637      1.0  0.95303  0.57161  0.22450  1.0000
  H   H631      1.0  0.78996  0.62361  0.29925  1.0000
  C   C638      1.0  0.95711  0.65777  0.47766  1.0000
  H   H632      1.0  0.67355  0.54468  0.15387  1.0000
  S   S216      1.0  0.92306  0.50910  0.50390  1.0000
  N   N54       1.0  0.91494  0.61311  0.27233  1.0000
  C   C639      1.0  0.90372  0.61952  0.24581  1.0000
  C   C640      1.0  0.90917  0.59388  0.28163  1.0000
  C   C641      1.0  0.88596  0.60659  0.22873  1.0000
  C   C642      1.0  0.89150  0.58058  0.26502  1.0000
  C   C643      1.0  0.87986  0.58701  0.23842  1.0000
  H   H633      1.0  0.93379  0.64164  0.29033  1.0000
  H   H634      1.0  0.90840  0.63470  0.23782  1.0000
  H   H635      1.0  0.91819  0.58866  0.30205  1.0000
  H   H636      1.0  0.87695  0.61170  0.20812  1.0000
  H   H637      1.0  0.49611  0.64715  0.03787  1.0000
  C   C644      1.0  0.59658  0.71809  0.06017  1.0000
  H   H638      1.0  0.87791  0.60963  0.51771  1.0000
  C   C645      1.0  0.62623  0.65214  0.14051  1.0000
  H   H639      1.0  0.55659  0.55375  0.47744  1.0000
  H   H640      1.0  0.92177  0.59518  0.14441  1.0000
  C   C646      1.0  0.92292  0.67819  0.28601  1.0000
  H   H641      1.0  0.80556  0.67311  0.21884  1.0000
  H   H642      1.0  0.85091  0.65583  0.26988  1.0000
  H   H643      1.0  0.60107  0.72209  0.16588  1.0000
  C   C647      1.0  0.80118  0.63572  0.28396  1.0000
  C   C648      1.0  0.63627  0.67214  0.13868  1.0000
  H   H644      1.0  0.65622  0.57383  0.08463  1.0000
  S   S217      1.0  0.90175  0.59098  0.48171  1.0000
  H   H645      1.0  0.82575  0.62858  0.30656  1.0000
  C   C649      1.0  0.84450  0.68181  0.21947  1.0000
  C   C650      1.0  0.94317  0.68856  0.29519  1.0000
  H   H646      1.0  0.67717  0.67775  0.37382  1.0000
  Fe  Fe103     1.0  0.94413  0.56251  0.07404  1.0000
  N   N55       1.0  0.62783  0.68420  0.15392  1.0000
  H   H647      1.0  0.94709  0.61007  0.49379  1.0000
  S   S218      1.0  0.68772  0.64997  0.50780  1.0000
  C   C651      1.0  0.94348  0.56591  0.26289  1.0000
  H   H648      1.0  0.63615  0.71093  0.12183  1.0000
  C   C652      1.0  0.71198  0.59589  0.11270  1.0000
  H   H649      1.0  0.96272  0.48947  0.06213  1.0000
  S   S219      1.0  0.95571  0.57235  0.13947  1.0000
  C   C653      1.0  0.63878  0.70510  0.15236  1.0000
  H   H650      1.0  0.86614  0.57682  0.22527  1.0000
  C   C654      1.0  0.56971  0.56662  0.48291  1.0000
  C   C655      1.0  0.60725  0.64452  0.15716  1.0000
  C   C656      1.0  0.94272  0.56528  0.18676  1.0000
  H   H651      1.0  0.58371  0.65128  0.18426  1.0000
  H   H652      1.0  0.59938  0.62901  0.15911  1.0000
  S   S220      1.0  0.64504  0.71878  0.29732  1.0000
  C   C657      1.0  0.60904  0.67689  0.16934  1.0000
  C   C658      1.0  0.82121  0.63847  0.28791  1.0000
  S   S221      1.0  0.94748  0.54458  0.40533  1.0000
  C   C659      1.0  0.59850  0.65696  0.17141  1.0000
  C   C660      1.0  0.56718  0.69586  0.09398  1.0000
  C   C661      1.0  0.57766  0.70365  0.05751  1.0000
  H   H653      1.0  0.63420  0.71243  0.17768  1.0000
  H   H654      1.0  0.55246  0.68482  0.09183  1.0000
  N   N56       1.0  0.82966  0.66596  0.24210  1.0000
  H   H655      1.0  0.83921  0.68270  0.18708  1.0000
  C   C662      1.0  0.56799  0.58431  0.49028  1.0000
  H   H656      1.0  0.54376  0.73118  0.26840  1.0000
  H   H657      1.0  0.94050  0.52831  0.15712  1.0000
  H   H658      1.0  0.88690  0.56536  0.27269  1.0000
  H   H659      1.0  0.65115  0.67792  0.12631  1.0000
  C   C663      1.0  0.93995  0.48931  0.10372  1.0000
  C   C664      1.0  0.92636  0.60515  0.11829  1.0000
  H   H660      1.0  0.57274  0.55139  0.05388  1.0000
  N   N57       1.0  0.58447  0.60039  0.49842  1.0000
  H   H661      1.0  0.68139  0.72855  0.25444  1.0000
  Fe  Fe104     1.0  0.58014  0.72534  0.31930  1.0000
  H   H662      1.0  0.61606  0.61219  0.50509  1.0000
  H   H663      1.0  0.92992  0.63256  0.47906  1.0000
  C   C665      1.0  0.93375  0.62675  0.28921  1.0000
  H   H664      1.0  0.53149  0.59989  0.04425  1.0000
  H   H665      1.0  0.91930  0.49390  0.14533  1.0000
  Fe  Fe105     1.0  0.95851  0.57417  0.43372  1.0000
  H   H666      1.0  0.94621  0.62692  0.26956  1.0000
  H   H667      1.0  0.56500  0.62559  0.04099  1.0000
  H   H668      1.0  0.61973  0.58106  0.49379  1.0000
  C   C666      1.0  0.95221  0.62720  0.07601  1.0000
  C   C667      1.0  0.93766  0.62925  0.04931  1.0000
  C   C668      1.0  0.58224  0.61881  0.50510  1.0000
  C   C669      1.0  0.96337  0.52779  0.11607  1.0000
  H   H669      1.0  0.57920  0.62471  0.47494  1.0000
  H   H670      1.0  0.56961  0.61680  0.52606  1.0000
  S   S222      1.0  0.93631  0.58227  0.02990  1.0000
  S   S223      1.0  0.56258  0.58513  0.03441  1.0000
  H   H671      1.0  0.55812  0.72892  0.16075  1.0000
  H   H672      1.0  0.88892  0.61926  0.04347  1.0000
  H   H673      1.0  0.73555  0.61695  0.52631  1.0000
  H   H674      1.0  0.95759  0.61275  0.13083  1.0000
  H   H675      1.0  0.86289  0.58084  0.87574  1.0000
  C   C670      1.0  0.52543  0.59512  0.83394  1.0000
  S   S224      1.0  0.52975  0.56559  0.59283  1.0000
  H   H676      1.0  0.51506  0.59373  0.85980  1.0000
  Fe  Fe106     1.0  0.49963  0.54790  0.61692  1.0000
  S   S225      1.0  0.48856  0.54940  0.68159  1.0000
  H   H677      1.0  0.47548  0.61800  0.90314  1.0000
  S   S226      1.0  0.49782  0.52023  0.58776  1.0000
  H   H678      1.0  0.93886  0.58355  0.88769  1.0000
  Fe  Fe107     1.0  0.52275  0.54569  0.91014  1.0000
  S   S227      1.0  0.49073  0.53908  0.92383  1.0000
  S   S228      1.0  0.53317  0.53988  0.84759  1.0000
  C   C671      1.0  0.91290  0.71591  0.83277  1.0000
  C   C672      1.0  0.57114  0.57574  0.67865  1.0000
  C   C673      1.0  0.58844  0.53209  0.58619  1.0000
  Fe  Fe108     1.0  0.49741  0.52852  0.98604  1.0000
  C   C674      1.0  0.77048  0.64716  0.59117  1.0000
  Fe  Fe109     1.0  0.50246  0.56861  0.95250  1.0000
  S   S229      1.0  0.48837  0.59038  0.94093  1.0000
  S   S230      1.0  0.52931  0.53350  0.97079  1.0000
  S   S231      1.0  0.53376  0.57581  0.93421  1.0000
  Fe  Fe110     1.0  0.60651  0.70092  0.87228  1.0000
  S   S232      1.0  0.58311  0.70690  0.83481  1.0000
  H   H679      1.0  0.48112  0.55292  0.76734  1.0000
  Fe  Fe111     1.0  0.56474  0.69671  0.89208  1.0000
  S   S233      1.0  0.53256  0.67739  0.88542  1.0000
  S   S234      1.0  0.58729  0.68866  0.92772  1.0000
  Fe  Fe112     1.0  0.65585  0.60415  0.62854  1.0000
  S   S235      1.0  0.64514  0.62451  0.59356  1.0000
  S   S236      1.0  0.63786  0.57240  0.63389  1.0000
  Fe  Fe113     1.0  0.69481  0.63534  0.65636  1.0000
  S   S237      1.0  0.68630  0.65839  0.62489  1.0000
  S   S238      1.0  0.72518  0.64529  0.68926  1.0000
  Fe  Fe114     1.0  0.65576  0.64310  0.65031  1.0000
  S   S239      1.0  0.63384  0.65638  0.67048  1.0000
  Fe  Fe115     1.0  0.67645  0.63786  0.57137  1.0000
  S   S240      1.0  0.66487  0.62177  0.68665  1.0000
  S   S241      1.0  0.68648  0.61571  0.60145  1.0000
  Fe  Fe116     1.0  0.86327  0.65787  0.72566  1.0000
  S   S242      1.0  0.87943  0.64005  0.75262  1.0000
  S   S243      1.0  0.87571  0.69015  0.72083  1.0000
  Fe  Fe117     1.0  0.82558  0.62378  0.70578  1.0000
  S   S244      1.0  0.83905  0.60294  0.73086  1.0000
  S   S245      1.0  0.79398  0.61175  0.67833  1.0000
  Fe  Fe118     1.0  0.85070  0.62360  0.78393  1.0000
  S   S246      1.0  0.84809  0.61076  0.84912  1.0000
  Fe  Fe119     1.0  0.86686  0.62093  0.69729  1.0000
  S   S247      1.0  0.88863  0.60897  0.66988  1.0000
  S   S248      1.0  0.83525  0.64302  0.76134  1.0000
  S   S249      1.0  0.85265  0.64019  0.66795  1.0000
  H   H680      1.0  0.95106  0.61913  0.95125  1.0000
  C   C675      1.0  0.90748  0.58985  0.56737  1.0000
  C   C676      1.0  0.90439  0.59408  0.60859  1.0000
  C   C677      1.0  0.89155  0.60366  0.61735  1.0000
  C   C678      1.0  0.88206  0.60927  0.58432  1.0000
  S   S250      1.0  0.94703  0.50638  0.98970  1.0000
  C   C679      1.0  0.93250  0.60486  0.85061  1.0000
  H   H681      1.0  0.91183  0.58971  0.63392  1.0000
  H   H682      1.0  0.87216  0.61667  0.59049  1.0000
  C   C680      1.0  0.92763  0.58914  0.87786  1.0000
  C   C681      1.0  0.74400  0.63558  0.68602  1.0000
  C   C682      1.0  0.76247  0.64526  0.70574  1.0000
  C   C683      1.0  0.77800  0.63834  0.70337  1.0000
  C   C684      1.0  0.77520  0.62153  0.68135  1.0000
  C   C685      1.0  0.75673  0.61182  0.66168  1.0000
  C   C686      1.0  0.74121  0.61877  0.66400  1.0000
  H   H683      1.0  0.76480  0.65829  0.72287  1.0000
  H   H684      1.0  0.79210  0.64598  0.71869  1.0000
  H   H685      1.0  0.75440  0.59884  0.64442  1.0000
  H   H686      1.0  0.72712  0.61117  0.64860  1.0000
  C   C687      1.0  0.62782  0.67702  0.80149  1.0000
  C   C688      1.0  0.64227  0.66926  0.79374  1.0000
  C   C689      1.0  0.64423  0.66275  0.75388  1.0000
  C   C690      1.0  0.63171  0.66397  0.72136  1.0000
  C   C691      1.0  0.61709  0.67153  0.72920  1.0000
  H   H687      1.0  0.65217  0.66845  0.81863  1.0000
  H   H688      1.0  0.65555  0.65698  0.74825  1.0000
  C   C692      1.0  0.50208  0.61396  0.92315  1.0000
  C   C693      1.0  0.52281  0.62270  0.92735  1.0000
  C   C694      1.0  0.53265  0.64231  0.91620  1.0000
  C   C695      1.0  0.52175  0.65290  0.89987  1.0000
  C   C696      1.0  0.50122  0.64386  0.89468  1.0000
  C   C697      1.0  0.49145  0.62461  0.90653  1.0000
  H   H689      1.0  0.53116  0.61463  0.94049  1.0000
  H   H690      1.0  0.54854  0.64920  0.92031  1.0000
  H   H691      1.0  0.49271  0.65191  0.88198  1.0000
  H   H692      1.0  0.92714  0.70888  0.64512  1.0000
  C   C698      1.0  0.64721  0.72623  0.77374  1.0000
  C   C699      1.0  0.87143  0.64486  0.96936  1.0000
  C   C700      1.0  0.87650  0.65407  0.93047  1.0000
  C   C701      1.0  0.86914  0.64393  0.89333  1.0000
  C   C702      1.0  0.85698  0.62438  0.89485  1.0000
  C   C703      1.0  0.85209  0.61513  0.93369  1.0000
  C   C704      1.0  0.85915  0.62534  0.97078  1.0000
  H   H693      1.0  0.88594  0.66918  0.92919  1.0000
  H   H694      1.0  0.87287  0.65118  0.86359  1.0000
  H   H695      1.0  0.84267  0.60001  0.93522  1.0000
  H   H696      1.0  0.85521  0.61804  0.00044  1.0000
  C   C705      1.0  0.61446  0.56163  0.60947  1.0000
  C   C706      1.0  0.60745  0.54178  0.60280  1.0000
  C   C707      1.0  0.73487  0.67251  0.58557  1.0000
  S   S251      1.0  0.47897  0.50008  0.01912  1.0000
  C   C708      1.0  0.58263  0.56188  0.58452  1.0000
  C   C709      1.0  0.60215  0.57182  0.59965  1.0000
  H   H697      1.0  0.61681  0.53379  0.61040  1.0000
  Fe  Fe120     1.0  0.59788  0.71911  0.95064  1.0000
  H   H698      1.0  0.53849  0.66665  0.00875  1.0000
  H   H699      1.0  0.60742  0.58717  0.60488  1.0000
  C   C710      1.0  0.50139  0.54687  0.72716  1.0000
  C   C711      1.0  0.49423  0.54938  0.76594  1.0000
  C   C712      1.0  0.50385  0.54728  0.80298  1.0000
  C   C713      1.0  0.52077  0.54268  0.80155  1.0000
  C   C714      1.0  0.52796  0.54014  0.76276  1.0000
  C   C715      1.0  0.51830  0.54222  0.72564  1.0000
  H   H700      1.0  0.49812  0.54923  0.83258  1.0000
  H   H701      1.0  0.54093  0.53640  0.76146  1.0000
  H   H702      1.0  0.52373  0.53996  0.69593  1.0000
  S   S252      1.0  0.61910  0.73087  0.89814  1.0000
  H   H703      1.0  0.72122  0.66975  0.56630  1.0000
  N   N58       1.0  0.51848  0.63760  0.01792  1.0000
  C   C716      1.0  0.90122  0.70348  0.72725  1.0000
  C   C717      1.0  0.91464  0.69499  0.74007  1.0000
  C   C718      1.0  0.93494  0.70645  0.74489  1.0000
  H   H704      1.0  0.60736  0.67254  0.70415  1.0000
  H   H705      1.0  0.88779  0.60945  0.84562  1.0000
  H   H706      1.0  0.90941  0.67970  0.74646  1.0000
  H   H707      1.0  0.94514  0.69997  0.75573  1.0000
  C   C719      1.0  0.60757  0.60494  0.69390  1.0000
  H   H708      1.0  0.74547  0.68720  0.57766  1.0000
  C   C720      1.0  0.76142  0.66040  0.59772  1.0000
  C   C721      1.0  0.60504  0.58556  0.69913  1.0000
  H   H709      1.0  0.81062  0.61778  0.84419  1.0000
  C   C722      1.0  0.90890  0.67862  0.64215  1.0000
  H   H710      1.0  0.89978  0.71847  0.82248  1.0000
  C   C723      1.0  0.65718  0.73055  0.81195  1.0000
  S   S253      1.0  0.62673  0.68586  0.85169  1.0000
  C   C724      1.0  0.48934  0.49624  0.87551  1.0000
  H   H711      1.0  0.89713  0.68564  0.84294  1.0000
  H   H712      1.0  0.93668  0.67440  0.89261  1.0000
  H   H713      1.0  0.56294  0.60402  0.86057  1.0000
  C   C725      1.0  0.94640  0.70852  0.85535  1.0000
  S   S254      1.0  0.55225  0.52869  0.55602  1.0000
  H   H714      1.0  0.64634  0.71341  0.75715  1.0000
  H   H715      1.0  0.93147  0.66806  0.83869  1.0000
  H   H716      1.0  0.76835  0.67219  0.61907  1.0000
  H   H717      1.0  0.95862  0.70344  0.64375  1.0000
  H   H718      1.0  0.91148  0.66476  0.87434  1.0000
  H   H719      1.0  0.55684  0.56439  0.67249  1.0000
  H   H720      1.0  0.51952  0.50487  0.89782  1.0000
  C   C726      1.0  0.92676  0.67426  0.86576  1.0000
  H   H721      1.0  0.59885  0.54901  0.69390  1.0000
  H   H722      1.0  0.50389  0.65354  0.98470  1.0000
  C   C727      1.0  0.92693  0.69432  0.64306  1.0000
  C   C728      1.0  0.94469  0.69113  0.64259  1.0000
  C   C729      1.0  0.79892  0.60989  0.82232  1.0000
  Fe  Fe121     1.0  0.48373  0.52918  0.53264  1.0000
  C   C730      1.0  0.74308  0.62923  0.54609  1.0000
  C   C731      1.0  0.90831  0.58089  0.89288  1.0000
  N   N59       1.0  0.94451  0.67278  0.64111  1.0000
  C   C732      1.0  0.53742  0.62996  0.82160  1.0000
  C   C733      1.0  0.55230  0.64842  0.82243  1.0000
  C   C734      1.0  0.57127  0.65073  0.83685  1.0000
  H   H723      1.0  0.52255  0.62836  0.81149  1.0000
  H   H724      1.0  0.54896  0.66093  0.81315  1.0000
  C   C735      1.0  0.91810  0.61221  0.83894  1.0000
  H   H725      1.0  0.95067  0.64923  0.91788  1.0000
  H   H726      1.0  0.89494  0.64765  0.63949  1.0000
  H   H727      1.0  0.85956  0.58057  0.99865  1.0000
  H   H728      1.0  0.91722  0.58229  0.56121  1.0000
  H   H729      1.0  0.49299  0.50689  0.85055  1.0000
  H   H730      1.0  0.90469  0.56874  0.91425  1.0000
  H   H731      1.0  0.95965  0.70567  0.86324  1.0000
  H   H732      1.0  0.94753  0.61153  0.83921  1.0000
  H   H733      1.0  0.66362  0.72080  0.82562  1.0000
  H   H734      1.0  0.57837  0.54584  0.72817  1.0000
  N   N60       1.0  0.54139  0.61424  0.83452  1.0000
  C   C736      1.0  0.50083  0.64215  0.00916  1.0000
  H   H735      1.0  0.72049  0.64101  0.53787  1.0000
  H   H736      1.0  0.62190  0.61628  0.69987  1.0000
  C   C737      1.0  0.57320  0.59498  0.67278  1.0000
  C   C738      1.0  0.57513  0.63467  0.85047  1.0000
  H   H737      1.0  0.53128  0.58338  0.83733  1.0000
  H   H738      1.0  0.56064  0.59844  0.66221  1.0000
  C   C739      1.0  0.61511  0.67802  0.76910  1.0000
  C   C740      1.0  0.55989  0.61641  0.84935  1.0000
  H   H739      1.0  0.58985  0.63647  0.86209  1.0000
  H   H740      1.0  0.96161  0.65493  0.64802  1.0000
  C   C741      1.0  0.78399  0.61665  0.81146  1.0000
  H   H741      1.0  0.78444  0.57037  0.76120  1.0000
  S   S255      1.0  0.93094  0.54980  0.95752  1.0000
  C   C742      1.0  0.96334  0.66988  0.63908  1.0000
  C   C743      1.0  0.79900  0.59309  0.80428  1.0000
  C   C744      1.0  0.87424  0.57961  0.89807  1.0000
  H   H742      1.0  0.51696  0.59275  0.80404  1.0000
  H   H743      1.0  0.74512  0.56403  0.74991  1.0000
  H   H744      1.0  0.58337  0.51674  0.58062  1.0000
  H   H745      1.0  0.78427  0.64871  0.60721  1.0000
  C   C745      1.0  0.46976  0.48378  0.88154  1.0000
  S   S256      1.0  0.48385  0.55612  0.56364  1.0000
  H   H746      1.0  0.73082  0.67209  0.61880  1.0000
  C   C746      1.0  0.75343  0.57860  0.73686  1.0000
  H   H747      1.0  0.57303  0.56965  0.57759  1.0000
  H   H748      1.0  0.89959  0.60944  0.00402  1.0000
  S   S257      1.0  0.50616  0.55771  0.01615  1.0000
  H   H749      1.0  0.57433  0.54182  0.67276  1.0000
  Fe  Fe122     1.0  0.52685  0.53882  0.55897  1.0000
  H   H750      1.0  0.74273  0.58574  0.73026  1.0000
  H   H751      1.0  0.58291  0.66496  0.83808  1.0000
  Fe  Fe123     1.0  0.91259  0.55505  0.00757  1.0000
  C   C747      1.0  0.89793  0.59539  0.53434  1.0000
  C   C748      1.0  0.76118  0.63145  0.56530  1.0000
  H   H752      1.0  0.94224  0.63834  0.02186  1.0000
  H   H753      1.0  0.87363  0.58713  0.92716  1.0000
  C   C749      1.0  0.96186  0.64374  0.90939  1.0000
  C   C750      1.0  0.92687  0.65729  0.63960  1.0000
  S   S258      1.0  0.88406  0.55845  0.99049  1.0000
  H   H754      1.0  0.78403  0.62993  0.82465  1.0000
  C   C751      1.0  0.91153  0.69732  0.84417  1.0000
  C   C752      1.0  0.57586  0.54196  0.57739  1.0000
  N   N61       1.0  0.74381  0.65825  0.57835  1.0000
  S   S259      1.0  0.57365  0.72647  0.91919  1.0000
  N   N62       1.0  0.92816  0.69389  0.85562  1.0000
  H   H755      1.0  0.61771  0.58204  0.70868  1.0000
  H   H756      1.0  0.59355  0.62468  0.67581  1.0000
  Fe  Fe124     1.0  0.93938  0.53234  0.00658  1.0000
  H   H757      1.0  0.60400  0.68408  0.77453  1.0000
  C   C753      1.0  0.78404  0.58320  0.77572  1.0000
  N   N63       1.0  0.76923  0.58971  0.76586  1.0000
  H   H758      1.0  0.89501  0.68089  0.64352  1.0000
  H   H759      1.0  0.75998  0.57714  0.70676  1.0000
  H   H760      1.0  0.81073  0.58788  0.81204  1.0000
  Fe  Fe125     1.0  0.51407  0.57179  0.53661  1.0000
  H   H761      1.0  0.92655  0.64267  0.63817  1.0000
  C   C754      1.0  0.76910  0.60628  0.78313  1.0000
  H   H762      1.0  0.89781  0.72995  0.70940  1.0000
  N   N64       1.0  0.58703  0.57125  0.69108  1.0000
  H   H763      1.0  0.92181  0.62452  0.81798  1.0000
  C   C755      1.0  0.89891  0.60361  0.85461  1.0000
  H   H764      1.0  0.75764  0.61173  0.77458  1.0000
  H   H765      1.0  0.87012  0.56403  0.90543  1.0000
  N   N65       1.0  0.89420  0.58801  0.88084  1.0000
  S   S260      1.0  0.88151  0.65792  0.01530  1.0000
  C   C756      1.0  0.90885  0.65999  0.64026  1.0000
  C   C757      1.0  0.59158  0.60965  0.68042  1.0000
  C   C758      1.0  0.58450  0.55099  0.69698  1.0000
  Fe  Fe126     1.0  0.53743  0.56343  0.99655  1.0000
  C   C759      1.0  0.93143  0.73094  0.83280  1.0000
  Fe  Fe127     1.0  0.95526  0.57592  0.98308  1.0000
  H   H766      1.0  0.95736  0.54285  0.55771  1.0000
  C   C760      1.0  0.55391  0.64797  0.02520  1.0000
  C   C761      1.0  0.90811  0.72330  0.71925  1.0000
  C   C762      1.0  0.88535  0.60525  0.54305  1.0000
  H   H767      1.0  0.48836  0.62932  0.99713  1.0000
  H   H768      1.0  0.76782  0.62082  0.56093  1.0000
  C   C763      1.0  0.96205  0.62668  0.92846  1.0000
  C   C764      1.0  0.53688  0.65201  0.01692  1.0000
  H   H769      1.0  0.95405  0.51911  0.57434  1.0000
  C   C765      1.0  0.50426  0.49516  0.90215  1.0000
  S   S261      1.0  0.61026  0.72835  0.01543  1.0000
  H   H770      1.0  0.90794  0.63528  0.01180  1.0000
  C   C766      1.0  0.94176  0.72634  0.73665  1.0000
  H   H771      1.0  0.56850  0.65937  0.02368  1.0000
  C   C767      1.0  0.94831  0.72726  0.84409  1.0000
  C   C768      1.0  0.73458  0.64288  0.55289  1.0000
  C   C769      1.0  0.90293  0.62096  0.02760  1.0000
  H   H772      1.0  0.57108  0.69866  0.02735  1.0000
  C   C770      1.0  0.51643  0.61914  0.02828  1.0000
  H   H773      1.0  0.50187  0.60765  0.02878  1.0000
  C   C771      1.0  0.86219  0.57576  0.02926  1.0000
  Fe  Fe128     1.0  0.57766  0.87786  0.37649  1.0000
  S   S262      1.0  0.59783  0.90460  0.40806  1.0000
  S   S263      1.0  0.54455  0.86817  0.37109  1.0000
  Fe  Fe129     1.0  0.61077  0.86486  0.35309  1.0000
  S   S264      1.0  0.63404  0.89133  0.38210  1.0000
  S   S265      1.0  0.61915  0.84116  0.32421  1.0000
  Fe  Fe130     1.0  0.61274  0.88568  0.43509  1.0000
  S   S266      1.0  0.62359  0.88550  0.50176  1.0000
  Fe  Fe131     1.0  0.61738  0.90850  0.35219  1.0000
  S   S267      1.0  0.62736  0.93999  0.32947  1.0000
  S   S268      1.0  0.59086  0.85839  0.40802  1.0000
  S   S269      1.0  0.59582  0.88254  0.31894  1.0000
  H   H774      1.0  0.58126  0.81803  0.36268  1.0000
  N   N66       1.0  0.56951  0.93951  0.33266  1.0000
  S   S270      1.0  0.57215  0.75009  0.34368  1.0000
  S   S271      1.0  0.49930  0.91464  0.45725  1.0000
  S   S272      1.0  0.53688  0.95273  0.06433  1.0000
  H   H775      1.0  0.58398  0.96781  0.35822  1.0000
  S   S273      1.0  0.48943  0.94425  0.05419  1.0000
  Fe  Fe132     1.0  0.51332  0.95689  0.10300  1.0000
  S   S274      1.0  0.50510  0.94575  0.16902  1.0000
  H   H776      1.0  0.51851  0.90019  0.52113  1.0000
  H   H777      1.0  0.58349  0.97514  0.10208  1.0000
  Fe  Fe133     1.0  0.50216  0.98109  0.47830  1.0000
  C   C772      1.0  0.63519  0.82088  0.41043  1.0000
  C   C773      1.0  0.66269  0.95766  0.22705  1.0000
  H   H778      1.0  0.66930  0.95133  0.20464  1.0000
  C   C774      1.0  0.55455  0.90747  0.30543  1.0000
  C   C775      1.0  0.50682  0.95072  0.25357  1.0000
  C   C776      1.0  0.51349  0.95947  0.21483  1.0000
  H   H779      1.0  0.50759  0.95432  0.32029  1.0000
  H   H780      1.0  0.49678  0.93580  0.25481  1.0000
  Fe  Fe134     1.0  0.52627  0.98199  0.40067  1.0000
  H   H781      1.0  0.64063  0.86460  0.44922  1.0000
  H   H782      1.0  0.59605  0.78227  0.42951  1.0000
  H   H783      1.0  0.59811  0.96054  0.32119  1.0000
  H   H784      1.0  0.52274  0.89635  0.29864  1.0000
  C   C777      1.0  0.53275  0.88203  0.39414  1.0000
  C   C778      1.0  0.51207  0.87429  0.39631  1.0000
  C   C779      1.0  0.50201  0.88459  0.41526  1.0000
  C   C780      1.0  0.51249  0.90293  0.43123  1.0000
  C   C781      1.0  0.53321  0.91093  0.42852  1.0000
  C   C782      1.0  0.54337  0.90040  0.41024  1.0000
  H   H785      1.0  0.50380  0.86013  0.38387  1.0000
  H   H786      1.0  0.48602  0.87831  0.41755  1.0000
  H   H787      1.0  0.54143  0.92495  0.44158  1.0000
  H   H788      1.0  0.55932  0.90651  0.40856  1.0000
  C   C783      1.0  0.64238  0.95390  0.28838  1.0000
  C   C784      1.0  0.65094  0.94595  0.25895  1.0000
  C   C785      1.0  0.64568  0.97368  0.28525  1.0000
  H   H789      1.0  0.61749  0.78395  0.40123  1.0000
  H   H790      1.0  0.64860  0.93080  0.26084  1.0000
  S   S275      1.0  0.51656  0.96393  0.51562  1.0000
  C   C786      1.0  0.51297  0.96116  0.29072  1.0000
  C   C787      1.0  0.60561  0.81589  0.32908  1.0000
  C   C788      1.0  0.61348  0.80300  0.31248  1.0000
  C   C789      1.0  0.60351  0.78285  0.31668  1.0000
  C   C790      1.0  0.58543  0.77533  0.33739  1.0000
  C   C791      1.0  0.57751  0.78822  0.35371  1.0000
  C   C792      1.0  0.58756  0.80835  0.34984  1.0000
  H   H791      1.0  0.62746  0.80865  0.29644  1.0000
  H   H792      1.0  0.60983  0.77316  0.30394  1.0000
  H   H793      1.0  0.56349  0.78259  0.36961  1.0000
  Fe  Fe135     1.0  0.51250  0.94694  0.45705  1.0000
  N   N67       1.0  0.62007  0.80934  0.43482  1.0000
  H   H794      1.0  0.54979  0.95396  0.34485  1.0000
  C   C793      1.0  0.64277  0.84091  0.41518  1.0000
  H   H795      1.0  0.61338  0.84357  0.49355  1.0000
  H   H796      1.0  0.65417  0.85006  0.39460  1.0000
  C   C794      1.0  0.56844  0.76293  0.23395  1.0000
  C   C795      1.0  0.63497  0.84908  0.44542  1.0000
  C   C796      1.0  0.58735  0.95542  0.34691  1.0000
  C   C797      1.0  0.61230  0.81725  0.46451  1.0000
  C   C798      1.0  0.52594  0.98044  0.28944  1.0000
  S   S276      1.0  0.54217  0.96481  0.43167  1.0000
  C   C799      1.0  0.61255  0.78832  0.43051  1.0000
  H   H797      1.0  0.58789  0.89436  0.50961  1.0000
  H   H798      1.0  0.59192  0.79108  0.23160  1.0000
  H   H799      1.0  0.60029  0.80813  0.48377  1.0000
  H   H800      1.0  0.58699  0.75386  0.12784  1.0000
  H   H801      1.0  0.60423  0.78518  0.16351  1.0000
  H   H802      1.0  0.64114  0.81474  0.38627  1.0000
  C   C800      1.0  0.55128  0.94093  0.33394  1.0000
  C   C801      1.0  0.53589  0.90864  0.30733  1.0000
  H   H803      1.0  0.52699  0.87592  0.48218  1.0000
  Fe  Fe136     1.0  0.54222  0.98247  0.03973  1.0000
  H   H804      1.0  0.61783  0.78174  0.45702  1.0000
  C   C802      1.0  0.53420  0.92546  0.32159  1.0000
  Fe  Fe137     1.0  0.49770  0.97475  0.03192  1.0000
  H   H805      1.0  0.58571  0.92195  0.31757  1.0000
  H   H806      1.0  0.51972  0.92639  0.32371  1.0000
  S   S277      1.0  0.49607  0.96258  0.42165  1.0000
  C   C803      1.0  0.66607  0.97744  0.22402  1.0000
  H   H807      1.0  0.63933  0.98007  0.30803  1.0000
  C   C804      1.0  0.57129  0.92311  0.31843  1.0000
  C   C805      1.0  0.59155  0.77412  0.17772  1.0000
  H   H808      1.0  0.55597  0.89427  0.29531  1.0000
  C   C806      1.0  0.58470  0.77742  0.21592  1.0000
  C   C807      1.0  0.61964  0.83722  0.47029  1.0000
  C   C808      1.0  0.61353  0.97626  0.10768  1.0000
  C   C809      1.0  0.56567  0.74244  0.17665  1.0000
  C   C810      1.0  0.58192  0.75657  0.15776  1.0000
  H   H809      1.0  0.59463  0.95039  0.37283  1.0000
  H   H810      1.0  0.56313  0.76559  0.26358  1.0000
  H   H811      1.0  0.61228  0.96722  0.08095  1.0000
  C   C811      1.0  0.52638  0.97879  0.21355  1.0000
  C   C812      1.0  0.59735  0.98062  0.11967  1.0000
  N   N68       1.0  0.55942  0.74558  0.21469  1.0000
  H   H812      1.0  0.61954  0.73594  0.10152  1.0000
  H   H813      1.0  0.64409  0.98039  0.12151  1.0000
  H   H814      1.0  0.48812  0.97551  0.14671  1.0000
  H   H815      1.0  0.46660  0.94364  0.13787  1.0000
  C   C813      1.0  0.52766  0.87602  0.51584  1.0000
  C   C814      1.0  0.47724  0.98211  0.13731  1.0000
  Fe  Fe138     1.0  0.54550  0.98349  0.48795  1.0000
  H   H816      1.0  0.53737  0.85228  0.52030  1.0000
  C   C815      1.0  0.63135  0.98370  0.13014  1.0000
  C   C816      1.0  0.56880  0.89862  0.96132  1.0000
  H   H817      1.0  0.62732  0.87768  0.58813  1.0000
  H   H818      1.0  0.93340  0.75001  0.71768  1.0000
  H   H819      1.0  0.63313  0.92842  0.68185  1.0000
  S   S278      1.0  0.60133  0.76306  0.82283  1.0000
  H   H820      1.0  0.66226  0.94493  0.83688  1.0000
  Fe  Fe139     1.0  0.58571  0.88889  0.72394  1.0000
  S   S279      1.0  0.60852  0.87620  0.74013  1.0000
  S   S280      1.0  0.57284  0.88834  0.65867  1.0000
  Fe  Fe140     1.0  0.58868  0.90733  0.81027  1.0000
  S   S281      1.0  0.61203  0.89618  0.83139  1.0000
  S   S282      1.0  0.58488  0.92939  0.85362  1.0000
  Fe  Fe141     1.0  0.62499  0.90529  0.76846  1.0000
  S   S283      1.0  0.65750  0.92154  0.75762  1.0000
  Fe  Fe142     1.0  0.59303  0.86811  0.80154  1.0000
  S   S284      1.0  0.58456  0.84086  0.84221  1.0000
  S   S285      1.0  0.60316  0.91827  0.74911  1.0000
  S   S286      1.0  0.56867  0.87890  0.78359  1.0000
  C   C817      1.0  0.57278  0.87578  0.91371  1.0000
  S   S287      1.0  0.51180  0.91860  0.97048  1.0000
  H   H821      1.0  0.66168  0.91980  0.66520  1.0000
  C   C818      1.0  0.56380  0.92648  0.88366  1.0000
  C   C819      1.0  0.54604  0.91048  0.87957  1.0000
  C   C820      1.0  0.52998  0.90844  0.90560  1.0000
  C   C821      1.0  0.53159  0.92228  0.93600  1.0000
  C   C822      1.0  0.54926  0.93839  0.93957  1.0000
  C   C823      1.0  0.56524  0.94048  0.91347  1.0000
  H   H822      1.0  0.54473  0.89966  0.85660  1.0000
  H   H823      1.0  0.51632  0.89599  0.90252  1.0000
  H   H824      1.0  0.55068  0.94915  0.96280  1.0000
  H   H825      1.0  0.57889  0.95291  0.91684  1.0000
  C   C824      1.0  0.59662  0.78462  0.82920  1.0000
  C   C825      1.0  0.60328  0.79928  0.79874  1.0000
  C   C826      1.0  0.59985  0.81659  0.80223  1.0000
  C   C827      1.0  0.58965  0.81946  0.83630  1.0000
  C   C828      1.0  0.58306  0.80483  0.86684  1.0000
  C   C829      1.0  0.58653  0.78755  0.86340  1.0000
  H   H826      1.0  0.61105  0.79722  0.77209  1.0000
  H   H827      1.0  0.60501  0.82765  0.77847  1.0000
  H   H828      1.0  0.57517  0.80684  0.89336  1.0000
  H   H829      1.0  0.58130  0.77645  0.88709  1.0000
  H   H830      1.0  0.56911  0.89646  0.57170  1.0000
  H   H831      1.0  0.62865  0.94413  0.85294  1.0000
  H   H832      1.0  0.69634  0.94509  0.73427  1.0000
  C   C830      1.0  0.66739  0.94602  0.74224  1.0000
  H   H833      1.0  0.64029  0.77170  0.86635  1.0000
  C   C831      1.0  0.65613  0.95773  0.74007  1.0000
  C   C832      1.0  0.54933  0.88604  0.96797  1.0000
  H   H834      1.0  0.64061  0.95180  0.74777  1.0000
  H   H835      1.0  0.59820  0.93455  0.60335  1.0000
  C   C833      1.0  0.63697  0.92812  0.64961  1.0000
  C   C834      1.0  0.58154  0.89194  0.57535  1.0000
  C   C835      1.0  0.58710  0.88760  0.61519  1.0000
  C   C836      1.0  0.60365  0.88245  0.61948  1.0000
  C   C837      1.0  0.61444  0.88154  0.58435  1.0000
  H   H836      1.0  0.60813  0.87906  0.64982  1.0000
  C   C838      1.0  0.63105  0.93204  0.57787  1.0000
  C   C839      1.0  0.58063  0.89351  0.93398  1.0000
  H   H837      1.0  0.62972  0.73466  0.72839  1.0000
  C   C840      1.0  0.63928  0.75465  0.77940  1.0000
  C   C841      1.0  0.60936  0.93779  0.62911  1.0000
  H   H838      1.0  0.52989  0.83707  0.90380  1.0000
  H   H839      1.0  0.54166  0.85070  0.63620  1.0000
  C   C842      1.0  0.54583  0.84529  0.89772  1.0000
  H   H840      1.0  0.53982  0.89022  0.98810  1.0000
  C   C843      1.0  0.52951  0.87586  0.60191  1.0000
  H   H841      1.0  0.59560  0.90344  0.92763  1.0000
  H   H842      1.0  0.54754  0.84798  0.86364  1.0000
  H   H843      1.0  0.58203  0.87185  0.89251  1.0000
  H   H844      1.0  0.66557  0.75014  0.86317  1.0000
  H   H845      1.0  0.64584  0.78614  0.82005  1.0000
  H   H846      1.0  0.67058  0.91860  0.59121  1.0000
  C   C844      1.0  0.67516  0.97604  0.83253  1.0000
  H   H847      1.0  0.52659  0.85906  0.95144  1.0000
  C   C845      1.0  0.66522  0.97742  0.72904  1.0000
  N   N69       1.0  0.55361  0.86362  0.92002  1.0000
  H   H848      1.0  0.52033  0.90022  0.59825  1.0000
  C   C846      1.0  0.60878  0.88569  0.54452  1.0000
  H   H849      1.0  0.53053  0.87617  0.63559  1.0000
  C   C847      1.0  0.54188  0.86852  0.94677  1.0000
  C   C848      1.0  0.52382  0.88958  0.58102  1.0000
  Fe  Fe143     1.0  0.59410  0.73626  0.86481  1.0000
  C   C849      1.0  0.65822  0.92265  0.59892  1.0000
  H   H850      1.0  0.63175  0.76370  0.76691  1.0000
  H   H851      1.0  0.71205  0.97931  0.71381  1.0000
  C   C850      1.0  0.68752  0.95398  0.73270  1.0000
  H   H852      1.0  0.55552  0.84988  0.59161  1.0000
  N   N70       1.0  0.62601  0.93225  0.61855  1.0000
  C   C851      1.0  0.59222  0.89084  0.54008  1.0000
  H   H853      1.0  0.93285  0.74527  0.82244  1.0000
  H   H854      1.0  0.61484  0.95344  0.63595  1.0000
  H   H855      1.0  0.55432  0.83616  0.90705  1.0000
  H   H856      1.0  0.60144  0.92951  0.65663  1.0000
  C   C852      1.0  0.54054  0.84847  0.60200  1.0000
  H   H857      1.0  0.57447  0.91259  0.97624  1.0000
  H   H858      1.0  0.96286  0.73872  0.84258  1.0000
  H   H859      1.0  0.66583  0.78421  0.85118  1.0000
  H   H860      1.0  0.62237  0.93526  0.55314  1.0000
  C   C853      1.0  0.65318  0.92321  0.64032  1.0000
  S   S288      1.0  0.52016  0.97278  0.98695  1.0000
  H   H861      1.0  0.65064  0.92631  0.53505  1.0000
  C   C854      1.0  0.65818  0.74711  0.83303  1.0000
  C   C855      1.0  0.64714  0.92713  0.56743  1.0000
  C   C856      1.0  0.65051  0.77613  0.83960  1.0000
  C   C857      1.0  0.65973  0.95828  0.83958  1.0000
  C   C858      1.0  0.63801  0.73822  0.75748  1.0000
  N   N71       1.0  0.64950  0.75905  0.81643  1.0000
  C   C859      1.0  0.92827  0.73466  0.72385  1.0000
  N   N72       1.0  0.53429  0.86266  0.58015  1.0000
  C   C860      1.0  0.53342  0.86261  0.53765  1.0000
  C   C861      1.0  0.52287  0.88960  0.53770  1.0000
  C   C862      1.0  0.64086  0.95783  0.84839  1.0000
  H   H862      1.0  0.52980  0.83365  0.59578  1.0000
  H   H863      1.0  0.62304  0.97473  0.85794  1.0000
  C   C863      1.0  0.69644  0.97339  0.72119  1.0000
  H   H864      1.0  0.68965  0.97623  0.82444  1.0000
  C   C864      1.0  0.63771  0.97507  0.85095  1.0000
  Fe  Fe144     1.0  0.51392  0.94322  0.01330  1.0000
