data_image0
_chemical_formula_structural       FeS2FeS2FeSFeS3FeS2FeS2FeSFeS3FeSHFeS2FeSFeS3CHCNHC7HC6H5CH2C6H4CHC2HC5HNCHCH2C3H4CHC2HC2HCH6C2H6SCHCHCHNHCH4NH2NC6H8CH2C3HCHCHC3HNC6HCH2CHCH2CHCH3CH2CHCFeS2FeS2FeSFeS3FeS2FeS2FeSFeS3FeS2FeS2FeSFeS3CH2C6H4C2HC2H2C3H2C7H5C2NH2C3H3C3H4C2H3NC6H8C5HC2H5C2NH3CH2NC6H8CHC2H2CHC5HC2HC2HCH2CH3C2H3C2HNH3CFeS2FeS2FeSFeS3FeS2FeS2FeSFeS3FeS2FeS2FeSFeS3C3HCHC3H3C3HC7H4C2HC6H4C2H2C3HC2HNHC4HCNC6H12CH3CNCHCHC2H4CH2CHCHC3H2NHC2NHCH3CH3CHCNCHCHC3HCH2NC2HC3H2CH2CHCHCHCH2NH3CH2FeS2FeS2FeSFeS3FeS2FeS2FeSFeS3FeSCFeS2FeSFeS3C4H2C7H4C3HC2H3C2NHC6H4C2HC2H3C4H2CHC3HNC6H8NC6H5CH2C2HC2H2CH2CHCHC2H3CNH5CNH3CHCH2CSH2CHC2H4C2FeS2FeS2FeHFeS3FeS2FeS2FeSFeCS2HCSCHC2NHCHCH3C2H3CHCH2C6H4CHSC4H5CHCH3NC6H8C3H2C4HCHCHC2FeS2FeS2FeSFeS3FeS2FeS2FeSFeS3HCH2C6HNH2C6H4CH3C2H2C2NHCNC6H6NC6H9NHCH2CH4CHC5H2C2HCH2CH2C4HCH4CFeS2FeS2FeSFeHS2FeS2FeS2FeSFeS3CH2C2HC2H3C3H5C4HC2H2CHC6H10C4HCH3NC5HCHNHCH3CHCH2CHCNHC2HCH3CHC4HSCHC2HFeS2FeSCFeSFeS3FeS2FeS2FeSFeS3CH2C2H2CHCH2CH2C10H5C3HNCH4C3HC3H2NC6H2CH6CHSHNH2CHC2HCHCH3NHCHFeS2FeS2FeSFeS3FeSHFeS2FeSFeS3FeS2FeS2FeSFeS3C2H3C3HNHC2HCHC6H4CH2CH2C6H4C2H3CHCNH3C4HCH2NHC2H2C5HC6HCH4CNC6H8CH5C2NHCHSCNHCHNH4C3H5NHC2HC4HC2H2CHCHCH3CFeS2FeS2FeSFeS3FeS2FeS2FeSFeS3FeS2FeS2FeSFeS3HC3H2C7H5C2HC3HC2H3CH3C6H6NCHCHCHC2H3C3H3C2H2CHC3H3CNC6H8C2H3C2HNC2HC2H2CHNC3H2CH2CHC6HCHNC4HCHCH2CH3CH2CH2CHCHCNH2FeS2FeS2FeSFeS3FeS2FeS2FeSFeS3FeS2FeS2FeSFeS3C2HCHC3H4C3NHC6H4C3NH3C6H4C4H4C2HC3H6CH2CHNC6H8CH2CH3C2HCHC4H4CNH3C2H2CHCH2C2HC2HNC5HCH3C2NCH4NH2CHC2H2C2HCHFeS2FeS2FeSFeS3FeSHFeS2FeSFeS3FeS2FeS2FeSFeS3CHC2H3C6H4C4H3C3H2C3H2C6H5C2HC3HC2H2C2H5C7HCNC6H8NC3HC2H2CH2NCH2C2HCHNH3SNC2H6CHC3HC2H6C2
_chemical_formula_sum              "Fe128 S256 H768 C768 N64"
_cell_length_a       59.6863
_cell_length_b       59.14
_cell_length_c       38.774
_cell_angle_alpha    89.5461
_cell_angle_beta     89.8553
_cell_angle_gamma    88.1535

_space_group_name_H-M_alt    "P 1"
_space_group_IT_number       1

loop_
  _space_group_symop_operation_xyz
  'x, y, z'

loop_
  _atom_site_type_symbol
  _atom_site_label
  _atom_site_symmetry_multiplicity
  _atom_site_fract_x
  _atom_site_fract_y
  _atom_site_fract_z
  _atom_site_occupancy
  Fe  Fe1       1.0  0.25048  0.08651  0.17971  1.0000
  S   S1        1.0  0.21925  0.10806  0.16930  1.0000
  S   S2        1.0  0.25009  0.04758  0.18213  1.0000
  Fe  Fe2       1.0  0.28054  0.12804  0.17168  1.0000
  S   S3        1.0  0.25156  0.15199  0.16050  1.0000
  S   S4        1.0  0.31668  0.13890  0.17485  1.0000
  Fe  Fe3       1.0  0.23430  0.13404  0.20383  1.0000
  S   S5        1.0  0.21936  0.15284  0.25014  1.0000
  Fe  Fe4       1.0  0.23929  0.12413  0.12659  1.0000
  S   S6        1.0  0.22343  0.13164  0.07407  1.0000
  S   S7        1.0  0.26427  0.11129  0.21715  1.0000
  S   S8        1.0  0.26952  0.10130  0.13485  1.0000
  Fe  Fe5       1.0  0.11346  0.25251  0.37227  1.0000
  S   S9        1.0  0.09075  0.28277  0.36218  1.0000
  S   S10       1.0  0.12272  0.23782  0.42523  1.0000
  Fe  Fe6       1.0  0.12282  0.24517  0.29514  1.0000
  S   S11       1.0  0.10050  0.27514  0.27988  1.0000
  S   S12       1.0  0.13933  0.22713  0.24948  1.0000
  Fe  Fe7       1.0  0.11712  0.29280  0.32372  1.0000
  S   S13       1.0  0.12784  0.32924  0.31804  1.0000
  Fe  Fe8       1.0  0.07604  0.26245  0.31899  1.0000
  S   S14       1.0  0.03770  0.25993  0.31546  1.0000
  S   S15       1.0  0.14088  0.26379  0.33637  1.0000
  S   S16       1.0  0.09729  0.23126  0.33168  1.0000
  Fe  Fe9       1.0  0.29348  0.40156  0.32488  1.0000
  S   S17       1.0  0.26990  0.40269  0.28007  1.0000
  H   H1        1.0  0.23027  0.43872  0.49813  1.0000
  Fe  Fe10      1.0  0.25746  0.41939  0.37547  1.0000
  S   S18       1.0  0.23118  0.42126  0.33367  1.0000
  S   S19       1.0  0.24495  0.42940  0.42921  1.0000
  Fe  Fe11      1.0  0.24526  0.38747  0.31670  1.0000
  S   S20       1.0  0.23026  0.35367  0.30432  1.0000
  Fe  Fe12      1.0  0.25811  0.43680  0.30070  1.0000
  S   S21       1.0  0.24837  0.46528  0.26227  1.0000
  S   S22       1.0  0.26948  0.38460  0.36065  1.0000
  S   S23       1.0  0.28368  0.43676  0.34352  1.0000
  C   C1        1.0  0.25428  0.41829  0.46948  1.0000
  H   H2        1.0  0.25345  0.04484  0.03502  1.0000
  C   C2        1.0  0.27199  0.40231  0.47204  1.0000
  N   N1        1.0  0.27962  0.18588  0.26067  1.0000
  H   H3        1.0  0.28006  0.39593  0.44888  1.0000
  C   C3        1.0  0.25514  0.49446  0.26086  1.0000
  C   C4        1.0  0.24406  0.42641  0.49987  1.0000
  C   C5        1.0  0.32646  0.30496  0.20571  1.0000
  C   C6        1.0  0.11373  0.24794  0.46628  1.0000
  C   C7        1.0  0.03954  0.24679  0.40271  1.0000
  C   C8        1.0  0.09737  0.26528  0.46967  1.0000
  C   C9        1.0  0.06915  0.21893  0.41778  1.0000
  H   H4        1.0  0.09044  0.27349  0.44689  1.0000
  C   C10       1.0  0.15643  0.33599  0.31625  1.0000
  C   C11       1.0  0.16225  0.35863  0.31124  1.0000
  C   C12       1.0  0.18489  0.36448  0.30873  1.0000
  C   C13       1.0  0.20183  0.34763  0.31079  1.0000
  C   C14       1.0  0.19601  0.32505  0.31592  1.0000
  C   C15       1.0  0.17343  0.31926  0.31895  1.0000
  H   H5        1.0  0.14917  0.37165  0.30885  1.0000
  H   H6        1.0  0.18922  0.38189  0.30422  1.0000
  H   H7        1.0  0.20903  0.31191  0.31736  1.0000
  H   H8        1.0  0.16919  0.30180  0.32270  1.0000
  H   H9        1.0  0.22099  0.06574  0.12881  1.0000
  C   C16       1.0  0.02734  0.26348  0.24523  1.0000
  H   H10       1.0  0.04503  0.26575  0.24078  1.0000
  H   H11       1.0  0.29470  0.44437  0.48356  1.0000
  C   C17       1.0  0.19706  0.17344  0.24933  1.0000
  C   C18       1.0  0.18680  0.18056  0.21857  1.0000
  C   C19       1.0  0.16913  0.19697  0.21915  1.0000
  C   C20       1.0  0.16152  0.20641  0.25042  1.0000
  C   C21       1.0  0.17199  0.19954  0.28115  1.0000
  C   C22       1.0  0.18968  0.18314  0.28056  1.0000
  H   H12       1.0  0.19232  0.17327  0.19435  1.0000
  H   H13       1.0  0.16115  0.20217  0.19522  1.0000
  H   H14       1.0  0.16634  0.20668  0.30539  1.0000
  H   H15       1.0  0.19749  0.17772  0.30451  1.0000
  C   C23       1.0  0.23622  0.12493  0.03386  1.0000
  H   H16       1.0  0.14939  0.38580  0.37855  1.0000
  C   C24       1.0  0.25645  0.11239  0.03181  1.0000
  C   C25       1.0  0.20755  0.07846  0.04561  1.0000
  H   H17       1.0  0.26515  0.10734  0.05520  1.0000
  C   C26       1.0  0.27452  0.48763  0.17402  1.0000
  C   C27       1.0  0.24646  0.02886  0.21791  1.0000
  C   C28       1.0  0.24707  0.03625  0.25208  1.0000
  C   C29       1.0  0.01224  0.26385  0.21719  1.0000
  C   C30       1.0  0.19864  0.34153  0.40268  1.0000
  H   H18       1.0  0.24873  0.05406  0.25734  1.0000
  N   N2        1.0  0.18343  0.37932  0.39450  1.0000
  C   C31       1.0  0.30316  0.15217  0.25987  1.0000
  H   H19       1.0  0.09619  0.19470  0.42776  1.0000
  C   C32       1.0  0.32156  0.31424  0.26690  1.0000
  H   H20       1.0  0.30494  0.13396  0.25702  1.0000
  H   H21       1.0  0.03329  0.21777  0.35120  1.0000
  C   C33       1.0  0.31278  0.20755  0.18404  1.0000
  C   C34       1.0  0.30688  0.18499  0.17868  1.0000
  C   C35       1.0  0.32350  0.16781  0.17708  1.0000
  H   H22       1.0  0.07361  0.22942  0.43935  1.0000
  H   H23       1.0  0.29976  0.22062  0.18617  1.0000
  H   H24       1.0  0.28945  0.18084  0.17672  1.0000
  H   H25       1.0  0.23328  0.33892  0.41836  1.0000
  C   C36       1.0  0.20611  0.07842  0.08163  1.0000
  H   H26       1.0  0.29380  0.38305  0.50648  1.0000
  C   C37       1.0  0.30425  0.44718  0.50768  1.0000
  C   C38       1.0  0.31029  0.32554  0.29372  1.0000
  H   H27       1.0  0.05518  0.18253  0.33910  1.0000
  C   C39       1.0  0.16503  0.39487  0.38399  1.0000
  C   C40       1.0  0.24582  0.02051  0.27958  1.0000
  H   H28       1.0  0.02280  0.24723  0.39013  1.0000
  C   C41       1.0  0.28191  0.16283  0.25930  1.0000
  H   H29       1.0  0.16980  0.40407  0.36009  1.0000
  H   H30       1.0  0.16133  0.40733  0.40469  1.0000
  H   H31       1.0  0.29855  0.01717  0.20237  1.0000
  H   H32       1.0  0.33489  0.37354  0.19762  1.0000
  H   H33       1.0  0.28301  0.34872  0.30668  1.0000
  H   H34       1.0  0.31645  0.32420  0.31998  1.0000
  C   C42       1.0  0.24394  0.50895  0.23704  1.0000
  C   C43       1.0  0.25712  0.19645  0.25815  1.0000
  H   H35       1.0  0.24619  0.18989  0.27899  1.0000
  H   H36       1.0  0.23739  0.38059  0.42067  1.0000
  H   H37       1.0  0.31758  0.39040  0.25022  1.0000
  H   H38       1.0  0.01857  0.26646  0.19134  1.0000
  H   H39       1.0  0.29642  0.47633  0.21518  1.0000
  H   H40       1.0  0.24646  0.02646  0.30586  1.0000
  S   S24       1.0  0.32783  0.38385  0.32337  1.0000
  C   C44       1.0  0.33116  0.37794  0.25258  1.0000
  H   H41       1.0  0.03699  0.24968  0.43075  1.0000
  C   C45       1.0  0.20347  0.38798  0.40394  1.0000
  H   H42       1.0  0.28115  0.49232  0.29914  1.0000
  C   C46       1.0  0.31965  0.18872  0.26428  1.0000
  H   H43       1.0  0.26722  0.15264  0.25703  1.0000
  N   N3        1.0  0.05173  0.22528  0.39660  1.0000
  H   H44       1.0  0.29073  0.33283  0.19948  1.0000
  C   C47       1.0  0.29813  0.19885  0.26333  1.0000
  H   H45       1.0  0.32703  0.31551  0.18186  1.0000
  H   H46       1.0  0.26996  0.35292  0.24632  1.0000
  H   H47       1.0  0.04919  0.26090  0.39169  1.0000
  H   H48       1.0  0.25731  0.21514  0.26019  1.0000
  N   N4        1.0  0.22439  0.06648  0.02925  1.0000
  H   H49       1.0  0.16493  0.34944  0.38658  1.0000
  H   H50       1.0  0.33634  0.30377  0.27282  1.0000
  N   N5        1.0  0.17282  0.28532  0.23210  1.0000
  C   C48       1.0  0.18592  0.30385  0.23404  1.0000
  C   C49       1.0  0.14999  0.28792  0.23058  1.0000
  C   C50       1.0  0.17618  0.32570  0.23383  1.0000
  C   C51       1.0  0.13969  0.30950  0.23088  1.0000
  C   C52       1.0  0.15290  0.32848  0.23247  1.0000
  C   C53       1.0  0.18305  0.26245  0.23343  1.0000
  H   H51       1.0  0.20397  0.30187  0.23642  1.0000
  H   H52       1.0  0.13960  0.27322  0.22957  1.0000
  H   H53       1.0  0.18657  0.34035  0.23618  1.0000
  H   H54       1.0  0.12155  0.31148  0.23084  1.0000
  H   H55       1.0  0.14506  0.34526  0.23388  1.0000
  H   H56       1.0  0.20130  0.26236  0.22791  1.0000
  H   H57       1.0  0.18032  0.25483  0.25937  1.0000
  H   H58       1.0  0.17520  0.25143  0.21402  1.0000
  C   C54       1.0  0.23910  0.05387  0.08406  1.0000
  H   H59       1.0  0.29650  0.21715  0.26341  1.0000
  H   H60       1.0  0.24946  0.19216  0.23297  1.0000
  C   C55       1.0  0.27233  0.50319  0.28077  1.0000
  C   C56       1.0  0.07680  0.18585  0.38316  1.0000
  C   C57       1.0  0.05898  0.19242  0.36166  1.0000
  H   H61       1.0  0.20563  0.40615  0.40420  1.0000
  C   C58       1.0  0.24005  0.05425  0.04797  1.0000
  H   H62       1.0  0.33872  0.15722  0.26105  1.0000
  C   C59       1.0  0.08192  0.19916  0.41143  1.0000
  H   H63       1.0  0.07692  0.28509  0.50505  1.0000
  C   C60       1.0  0.04664  0.21239  0.36869  1.0000
  C   C61       1.0  0.22156  0.37360  0.41314  1.0000
  C   C62       1.0  0.21918  0.35023  0.41208  1.0000
  H   H64       1.0  0.19660  0.32338  0.40143  1.0000
  N   N6        1.0  0.31462  0.31707  0.23350  1.0000
  C   C63       1.0  0.27976  0.39505  0.50474  1.0000
  C   C64       1.0  0.29618  0.33056  0.22596  1.0000
  C   C65       1.0  0.18077  0.35640  0.39418  1.0000
  C   C66       1.0  0.28440  0.34195  0.25221  1.0000
  C   C67       1.0  0.29162  0.33949  0.28623  1.0000
  C   C68       1.0  0.01952  0.26023  0.27890  1.0000
  H   H65       1.0  0.08695  0.17078  0.37749  1.0000
  C   C69       1.0  0.29191  0.49008  0.19752  1.0000
  H   H66       1.0  0.25160  0.04443  0.09912  1.0000
  H   H67       1.0  0.19323  0.08861  0.09455  1.0000
  C   C70       1.0  0.12255  0.23754  0.49629  1.0000
  H   H68       1.0  0.26772  0.47372  0.49768  1.0000
  C   C71       1.0  0.22191  0.06592  0.10087  1.0000
  H   H69       1.0  0.13515  0.22406  0.49398  1.0000
  H   H70       1.0  0.26560  0.47193  0.17335  1.0000
  C   C72       1.0  0.32212  0.16524  0.26222  1.0000
  H   H71       1.0  0.29990  0.02319  0.26530  1.0000
  C   C73       1.0  0.08974  0.27183  0.50271  1.0000
  H   H72       1.0  0.23057  0.50244  0.22157  1.0000
  H   H73       1.0  0.33433  0.19910  0.26473  1.0000
  H   H74       1.0  0.31829  0.28877  0.20020  1.0000
  C   C74       1.0  0.26806  0.50589  0.15268  1.0000
  H   H75       1.0  0.19548  0.08868  0.03095  1.0000
  H   H76       1.0  0.31859  0.45804  0.50167  1.0000
  C   C75       1.0  0.33534  0.21319  0.18764  1.0000
  H   H77       1.0  0.25430  0.50401  0.13483  1.0000
  C   C76       1.0  0.30264  0.51064  0.19939  1.0000
  Fe  Fe13      1.0  0.23932  0.09124  0.80452  1.0000
  S   S25       1.0  0.21893  0.10492  0.84960  1.0000
  S   S26       1.0  0.22621  0.06060  0.77537  1.0000
  Fe  Fe14      1.0  0.27211  0.13062  0.80893  1.0000
  S   S27       1.0  0.25409  0.14661  0.85350  1.0000
  S   S28       1.0  0.30201  0.14712  0.78367  1.0000
  Fe  Fe15      1.0  0.25209  0.11133  0.87492  1.0000
  S   S29       1.0  0.26480  0.10181  0.92893  1.0000
  Fe  Fe16      1.0  0.22260  0.13910  0.82424  1.0000
  S   S30       1.0  0.19646  0.16797  0.82109  1.0000
  S   S31       1.0  0.27221  0.09535  0.83144  1.0000
  S   S32       1.0  0.24082  0.12535  0.77797  1.0000
  Fe  Fe17      1.0  0.23004  0.40513  0.67778  1.0000
  S   S33       1.0  0.25871  0.38061  0.66727  1.0000
  S   S34       1.0  0.19363  0.39509  0.67792  1.0000
  Fe  Fe18      1.0  0.26014  0.44642  0.67858  1.0000
  S   S35       1.0  0.29080  0.42458  0.66688  1.0000
  S   S36       1.0  0.26617  0.48441  0.68044  1.0000
  Fe  Fe19      1.0  0.26930  0.40688  0.62853  1.0000
  S   S37       1.0  0.28196  0.39585  0.57551  1.0000
  Fe  Fe20      1.0  0.27751  0.40052  0.70646  1.0000
  S   S38       1.0  0.29896  0.38910  0.75227  1.0000
  S   S39       1.0  0.23974  0.43041  0.63694  1.0000
  S   S40       1.0  0.24779  0.42333  0.72017  1.0000
  Fe  Fe21      1.0  0.12076  0.22733  0.68089  1.0000
  S   S41       1.0  0.11950  0.25305  0.72270  1.0000
  S   S42       1.0  0.13552  0.19192  0.69047  1.0000
  Fe  Fe22      1.0  0.10090  0.26077  0.62742  1.0000
  S   S43       1.0  0.09875  0.28903  0.66650  1.0000
  S   S44       1.0  0.08766  0.26987  0.57361  1.0000
  Fe  Fe23      1.0  0.13327  0.27670  0.68285  1.0000
  S   S45       1.0  0.16673  0.29235  0.69480  1.0000
  Fe  Fe24      1.0  0.08497  0.26265  0.70272  1.0000
  S   S46       1.0  0.05756  0.26932  0.74363  1.0000
  S   S47       1.0  0.13618  0.25025  0.64162  1.0000
  S   S48       1.0  0.08530  0.23514  0.66303  1.0000
  C   C77       1.0  0.02933  0.26059  0.74814  1.0000
  H   H78       1.0  0.21629  0.05055  0.98224  1.0000
  H   H79       1.0  0.02780  0.24286  0.70001  1.0000
  C   C78       1.0  0.18610  0.36669  0.68453  1.0000
  C   C79       1.0  0.20214  0.34976  0.69269  1.0000
  C   C80       1.0  0.19575  0.32719  0.69654  1.0000
  C   C81       1.0  0.17337  0.32124  0.69175  1.0000
  C   C82       1.0  0.15731  0.33812  0.68341  1.0000
  C   C83       1.0  0.16365  0.36080  0.68012  1.0000
  H   H80       1.0  0.21943  0.35408  0.69631  1.0000
  H   H81       1.0  0.20829  0.31425  0.70306  1.0000
  H   H82       1.0  0.14002  0.33375  0.67970  1.0000
  H   H83       1.0  0.15113  0.37383  0.67386  1.0000
  C   C84       1.0  0.28410  0.50450  0.83275  1.0000
  C   C85       1.0  0.24736  0.49678  0.74376  1.0000
  H   H84       1.0  0.24051  0.48007  0.74482  1.0000
  C   C86       1.0  0.25186  0.41921  0.53256  1.0000
  C   C87       1.0  0.27000  0.40373  0.53515  1.0000
  H   H85       1.0  0.31235  0.35601  0.69979  1.0000
  H   H86       1.0  0.24421  0.42610  0.55568  1.0000
  C   C88       1.0  0.18984  0.35167  0.60333  1.0000
  C   C89       1.0  0.11514  0.24431  0.52935  1.0000
  C   C90       1.0  0.09854  0.26141  0.53275  1.0000
  H   H87       1.0  0.18950  0.38807  0.59781  1.0000
  H   H88       1.0  0.12200  0.23607  0.55216  1.0000
  C   C91       1.0  0.19236  0.31032  0.61098  1.0000
  C   C92       1.0  0.18021  0.17431  0.78402  1.0000
  C   C93       1.0  0.17778  0.15876  0.75741  1.0000
  C   C94       1.0  0.16406  0.16436  0.72884  1.0000
  C   C95       1.0  0.15304  0.18567  0.72634  1.0000
  C   C96       1.0  0.15589  0.20134  0.75266  1.0000
  C   C97       1.0  0.16920  0.19560  0.78148  1.0000
  H   H89       1.0  0.18613  0.14226  0.75915  1.0000
  H   H90       1.0  0.16200  0.15209  0.70862  1.0000
  H   H91       1.0  0.14762  0.21780  0.75113  1.0000
  H   H92       1.0  0.17105  0.20775  0.80191  1.0000
  H   H93       1.0  0.25428  0.48818  0.60441  1.0000
  C   C98       1.0  0.23846  0.03379  0.76377  1.0000
  C   C99       1.0  0.26143  0.02872  0.76692  1.0000
  N   N7        1.0  0.20279  0.33218  0.60541  1.0000
  H   H94       1.0  0.20027  0.01185  0.63908  1.0000
  H   H95       1.0  0.27229  0.04115  0.77765  1.0000
  C   C100      1.0  0.19970  0.37253  0.59770  1.0000
  C   C101      1.0  0.31674  0.36446  0.75315  1.0000
  C   C102      1.0  0.29880  0.49163  0.77662  1.0000
  H   H96       1.0  0.20685  0.02102  0.74722  1.0000
  H   H97       1.0  0.02114  0.32846  0.69614  1.0000
  H   H98       1.0  0.32477  0.36822  0.80695  1.0000
  C   C103      1.0  0.23594  0.35339  0.59539  1.0000
  C   C104      1.0  0.31855  0.16728  0.80462  1.0000
  C   C105      1.0  0.31677  0.17119  0.84009  1.0000
  H   H99       1.0  0.31994  0.10318  0.82655  1.0000
  H   H100      1.0  0.17440  0.31237  0.61850  1.0000
  H   H101      1.0  0.30409  0.16283  0.85502  1.0000
  H   H102      1.0  0.25296  0.19783  0.76119  1.0000
  C   C106      1.0  0.23404  0.12511  0.97070  1.0000
  C   C107      1.0  0.25407  0.11224  0.96870  1.0000
  H   H103      1.0  0.21678  0.08104  0.97980  1.0000
  H   H104      1.0  0.22519  0.12992  0.94730  1.0000
  H   H105      1.0  0.20946  0.14100  0.00443  1.0000
  N   N8        1.0  0.09163  0.19029  0.75175  1.0000
  C   C108      1.0  0.08257  0.21133  0.75863  1.0000
  C   C109      1.0  0.10684  0.18025  0.77388  1.0000
  C   C110      1.0  0.08919  0.22315  0.78781  1.0000
  C   C111      1.0  0.11378  0.19155  0.80337  1.0000
  C   C112      1.0  0.10499  0.21321  0.81018  1.0000
  C   C113      1.0  0.08422  0.17813  0.72124  1.0000
  H   H106      1.0  0.07034  0.21927  0.74132  1.0000
  H   H107      1.0  0.11424  0.16367  0.76830  1.0000
  H   H108      1.0  0.08227  0.24004  0.79273  1.0000
  H   H109      1.0  0.12637  0.18377  0.82025  1.0000
  H   H110      1.0  0.11054  0.22235  0.83260  1.0000
  H   H111      1.0  0.06780  0.17047  0.72635  1.0000
  H   H112      1.0  0.08273  0.18979  0.69869  1.0000
  H   H113      1.0  0.09666  0.16464  0.71365  1.0000
  C   C114      1.0  0.23179  0.02050  0.66170  1.0000
  C   C115      1.0  0.02053  0.31253  0.71138  1.0000
  C   C116      1.0  0.28232  0.46508  0.81446  1.0000
  C   C117      1.0  0.22557  0.33283  0.60150  1.0000
  C   C118      1.0  0.26528  0.10606  0.99942  1.0000
  H   H114      1.0  0.02707  0.29826  0.69530  1.0000
  C   C119      1.0  0.26005  0.50321  0.71514  1.0000
  C   C120      1.0  0.33222  0.18501  0.85662  1.0000
  H   H115      1.0  0.30457  0.10497  0.88646  1.0000
  H   H116      1.0  0.23078  0.38942  0.58970  1.0000
  H   H117      1.0  0.02503  0.27698  0.79731  1.0000
  H   H118      1.0  0.20083  0.30086  0.63244  1.0000
  H   H119      1.0  0.19338  0.30009  0.58713  1.0000
  C   C121      1.0  0.33513  0.17831  0.78566  1.0000
  C   C122      1.0  0.22288  0.37334  0.59362  1.0000
  N   N9        1.0  0.28999  0.45785  0.53418  1.0000
  H   H120      1.0  0.27399  0.46122  0.83858  1.0000
  H   H121      1.0  0.22484  0.03484  0.67595  1.0000
  H   H122      1.0  0.32393  0.12699  0.93068  1.0000
  C   C123      1.0  0.32057  0.35133  0.72376  1.0000
  H   H123      1.0  0.33808  0.32214  0.70242  1.0000
  H   H124      1.0  0.24442  0.49307  0.54225  1.0000
  N   N10       1.0  0.21978  0.20811  0.74680  1.0000
  C   C124      1.0  0.21135  0.19890  0.71746  1.0000
  C   C125      1.0  0.21439  0.23005  0.75527  1.0000
  C   C126      1.0  0.19667  0.21157  0.69618  1.0000
  C   C127      1.0  0.19974  0.24320  0.73457  1.0000
  C   C128      1.0  0.19079  0.23381  0.70496  1.0000
  C   C129      1.0  0.23533  0.19470  0.76861  1.0000
  H   H125      1.0  0.21544  0.18145  0.71087  1.0000
  H   H126      1.0  0.22121  0.23740  0.77837  1.0000
  H   H127      1.0  0.18927  0.20395  0.67369  1.0000
  H   H128      1.0  0.19516  0.26051  0.74149  1.0000
  H   H129      1.0  0.17906  0.24369  0.68910  1.0000
  H   H130      1.0  0.23282  0.19882  0.79634  1.0000
  H   H131      1.0  0.23238  0.17629  0.76641  1.0000
  H   H132      1.0  0.24254  0.06507  0.98168  1.0000
  C   C130      1.0  0.31991  0.11340  0.87989  1.0000
  H   H133      1.0  0.25404  0.35401  0.59266  1.0000
  C   C131      1.0  0.28274  0.46602  0.59384  1.0000
  C   C132      1.0  0.29539  0.45500  0.56824  1.0000
  H   H134      1.0  0.17184  0.35131  0.60712  1.0000
  H   H135      1.0  0.30315  0.50887  0.77038  1.0000
  C   C133      1.0  0.33086  0.12578  0.90481  1.0000
  H   H136      1.0  0.23586  0.31743  0.60339  1.0000
  C   C134      1.0  0.25881  0.48250  0.54975  1.0000
  C   C135      1.0  0.01866  0.24807  0.72288  1.0000
  C   C136      1.0  0.22498  0.06566  0.99145  1.0000
  C   C137      1.0  0.01700  0.26729  0.77757  1.0000
  C   C138      1.0  0.32859  0.11223  0.84648  1.0000
  H   H137      1.0  0.30009  0.43924  0.74090  1.0000
  C   C139      1.0  0.32763  0.35816  0.78408  1.0000
  C   C140      1.0  0.30308  0.47468  0.75227  1.0000
  H   H138      1.0  0.31048  0.47878  0.72750  1.0000
  C   C141      1.0  0.22465  0.01734  0.74971  1.0000
  C   C142      1.0  0.28650  0.44769  0.79077  1.0000
  H   H139      1.0  0.28077  0.09608  0.99818  1.0000
  C   C143      1.0  0.22513  0.13131  0.00313  1.0000
  H   H140      1.0  0.33133  0.18710  0.88428  1.0000
  H   H141      1.0  0.03219  0.31345  0.73366  1.0000
  C   C144      1.0  0.29695  0.45258  0.75953  1.0000
  H   H142      1.0  0.30944  0.44396  0.57584  1.0000
  H   H143      1.0  0.28717  0.46397  0.62079  1.0000
  H   H144      1.0  0.28157  0.43049  0.79631  1.0000
  C   C145      1.0  0.33517  0.33214  0.72533  1.0000
  C   C146      1.0  0.26428  0.47974  0.58454  1.0000
  H   H145      1.0  0.26592  0.50569  0.83911  1.0000
  H   H146      1.0  0.23354  0.50689  0.79302  1.0000
  H   H147      1.0  0.26496  0.02417  0.68156  1.0000
  C   C147      1.0  0.25453  0.01434  0.66483  1.0000
  C   C148      1.0  0.27207  0.47154  0.52471  1.0000
  H   H148      1.0  0.31077  0.43029  0.51657  1.0000
  N   N11       1.0  0.28851  0.48670  0.80724  1.0000
  H   H149      1.0  0.33664  0.17542  0.75821  1.0000
  H   H150      1.0  0.32135  0.27074  0.95233  1.0000
  H   H151      1.0  0.29385  0.50092  0.85662  1.0000
  C   C149      1.0  0.33904  0.27570  0.94965  1.0000
  Fe  Fe25      1.0  0.26474  0.89287  0.30077  1.0000
  S   S49       1.0  0.24402  0.87602  0.34077  1.0000
  S   S50       1.0  0.28706  0.86930  0.26915  1.0000
  Fe  Fe26      1.0  0.24374  0.93946  0.31564  1.0000
  S   S51       1.0  0.22129  0.92550  0.35743  1.0000
  S   S52       1.0  0.24478  0.97806  0.30929  1.0000
  Fe  Fe27      1.0  0.25160  0.90517  0.37497  1.0000
  S   S53       1.0  0.26214  0.89328  0.42874  1.0000
  Fe  Fe28      1.0  0.21534  0.89723  0.32017  1.0000
  S   S54       1.0  0.18278  0.87830  0.32013  1.0000
  S   S55       1.0  0.27471  0.92072  0.33606  1.0000
  S   S56       1.0  0.23546  0.91248  0.27714  1.0000
  Fe  Fe29      1.0  0.12228  0.80541  0.18090  1.0000
  S   S57       1.0  0.10894  0.78597  0.22599  1.0000
  S   S58       1.0  0.14113  0.83813  0.18324  1.0000
  Fe  Fe30      1.0  0.11214  0.76773  0.12895  1.0000
  S   S59       1.0  0.09877  0.74527  0.17090  1.0000
  S   S60       1.0  0.11566  0.75158  0.07590  1.0000
  Fe  Fe31      1.0  0.08052  0.77669  0.19067  1.0000
  S   S61       1.0  0.04202  0.77856  0.19644  1.0000
  Fe  Fe32      1.0  0.12810  0.75638  0.20229  1.0000
  S   S62       1.0  0.15530  0.73758  0.23279  1.0000
  S   S63       1.0  0.09274  0.79864  0.14668  1.0000
  S   S64       1.0  0.14258  0.77637  0.15904  1.0000
  Fe  Fe33      1.0  0.26798  0.60908  0.12893  1.0000
  S   S65       1.0  0.24104  0.59634  0.16412  1.0000
  S   S66       1.0  0.27442  0.59146  0.07754  1.0000
  Fe  Fe34      1.0  0.28473  0.64183  0.18425  1.0000
  S   S67       1.0  0.25871  0.63173  0.22301  1.0000
  S   S68       1.0  0.31379  0.66547  0.19112  1.0000
  Fe  Fe35      1.0  0.26675  0.59571  0.20637  1.0000
  S   S69       1.0  0.27762  0.56806  0.24526  1.0000
  Fe  Fe36      1.0  0.23511  0.63319  0.17747  1.0000
  S   S70       1.0  0.19921  0.64683  0.17205  1.0000
  S   S71       1.0  0.29422  0.60595  0.17030  1.0000
  S   S72       1.0  0.26064  0.64579  0.13965  1.0000
  C   C150      1.0  0.27031  0.60423  0.03619  1.0000
  C   C151      1.0  0.26257  0.62670  0.03237  1.0000
  C   C152      1.0  0.04254  0.79475  0.10471  1.0000
  H   H152      1.0  0.25902  0.63677  0.05499  1.0000
  C   C153      1.0  0.31704  0.61483  0.26138  1.0000
  H   H153      1.0  0.27033  0.87978  0.49883  1.0000
  C   C154      1.0  0.28767  0.80752  0.31726  1.0000
  C   C155      1.0  0.26769  0.54020  0.25185  1.0000
  C   C156      1.0  0.32134  0.80028  0.36557  1.0000
  H   H154      1.0  0.29583  0.95231  0.28328  1.0000
  H   H155      1.0  0.24155  0.54239  0.21377  1.0000
  H   H156      1.0  0.32898  0.76910  0.33842  1.0000
  C   C157      1.0  0.11230  0.76586  0.03574  1.0000
  C   C158      1.0  0.10763  0.78915  0.03360  1.0000
  C   C159      1.0  0.20562  0.88298  0.47917  1.0000
  H   H157      1.0  0.10677  0.79912  0.05687  1.0000
  C   C160      1.0  0.19605  0.68571  0.10536  1.0000
  C   C161      1.0  0.16745  0.71232  0.21594  1.0000
  C   C162      1.0  0.15632  0.69986  0.19119  1.0000
  C   C163      1.0  0.16606  0.67952  0.17882  1.0000
  C   C164      1.0  0.18726  0.67175  0.19035  1.0000
  C   C165      1.0  0.19854  0.68432  0.21487  1.0000
  C   C166      1.0  0.18855  0.70445  0.22784  1.0000
  H   H158      1.0  0.13999  0.70565  0.18206  1.0000
  H   H159      1.0  0.15718  0.66981  0.16003  1.0000
  H   H160      1.0  0.21482  0.67842  0.22407  1.0000
  H   H161      1.0  0.19719  0.71392  0.24719  1.0000
  C   C167      1.0  0.02246  0.77446  0.23081  1.0000
  C   C168      1.0  0.02889  0.76591  0.26320  1.0000
  H   H162      1.0  0.04638  0.76184  0.26823  1.0000
  C   C169      1.0  0.17083  0.86788  0.28183  1.0000
  C   C170      1.0  0.15416  0.85166  0.28423  1.0000
  C   C171      1.0  0.14493  0.84233  0.25430  1.0000
  C   C172      1.0  0.15191  0.84957  0.22167  1.0000
  C   C173      1.0  0.16820  0.86617  0.21932  1.0000
  C   C174      1.0  0.17782  0.87510  0.24922  1.0000
  H   H163      1.0  0.14849  0.84613  0.30934  1.0000
  H   H164      1.0  0.13221  0.82978  0.25646  1.0000
  H   H165      1.0  0.17356  0.87200  0.19419  1.0000
  H   H166      1.0  0.19048  0.88772  0.24699  1.0000
  C   C175      1.0  0.25422  0.90621  0.46827  1.0000
  C   C176      1.0  0.24134  0.92638  0.46940  1.0000
  H   H167      1.0  0.28084  0.83856  0.34416  1.0000
  H   H168      1.0  0.23651  0.93489  0.44563  1.0000
  C   C177      1.0  0.16851  0.91759  0.40052  1.0000
  C   C178      1.0  0.24401  0.99719  0.27342  1.0000
  C   C179      1.0  0.24295  0.98984  0.23926  1.0000
  H   H169      1.0  0.24146  0.97202  0.23402  1.0000
  C   C180      1.0  0.17540  0.68649  0.08829  1.0000
  C   C181      1.0  0.32087  0.68202  0.22723  1.0000
  H   H170      1.0  0.04051  0.82593  0.07558  1.0000
  N   N12       1.0  0.27854  0.52607  0.15491  1.0000
  H   H171      1.0  0.17011  0.67201  0.07378  1.0000
  C   C182      1.0  0.31217  0.85846  0.28781  1.0000
  C   C183      1.0  0.32143  0.86868  0.31661  1.0000
  C   C184      1.0  0.16153  0.70588  0.09070  1.0000
  C   C185      1.0  0.31150  0.83597  0.39438  1.0000
  H   H172      1.0  0.31364  0.88393  0.32701  1.0000
  C   C186      1.0  0.29569  0.52859  0.17779  1.0000
  N   N13       1.0  0.18126  0.79891  0.26597  1.0000
  C   C187      1.0  0.18038  0.79673  0.23093  1.0000
  C   C188      1.0  0.19552  0.81375  0.28060  1.0000
  C   C189      1.0  0.19340  0.81017  0.20945  1.0000
  C   C190      1.0  0.20897  0.82731  0.25991  1.0000
  C   C191      1.0  0.20776  0.82557  0.22410  1.0000
  C   C192      1.0  0.16715  0.78477  0.28771  1.0000
  H   H173      1.0  0.16910  0.78494  0.21948  1.0000
  H   H174      1.0  0.19598  0.81581  0.30835  1.0000
  H   H175      1.0  0.19166  0.80926  0.18165  1.0000
  H   H176      1.0  0.21950  0.83980  0.27150  1.0000
  H   H177      1.0  0.21738  0.83665  0.20774  1.0000
  H   H178      1.0  0.15022  0.78338  0.27610  1.0000
  H   H179      1.0  0.17478  0.76742  0.28991  1.0000
  H   H180      1.0  0.16470  0.79201  0.31384  1.0000
  H   H181      1.0  0.22433  0.71350  0.16521  1.0000
  H   H182      1.0  0.33486  0.79757  0.38392  1.0000
  H   H183      1.0  0.24356  0.99965  0.18546  1.0000
  H   H184      1.0  0.25288  0.54806  0.13436  1.0000
  C   C193      1.0  0.19133  0.90128  0.48735  1.0000
  H   H185      1.0  0.31305  0.60281  0.24152  1.0000
  H   H186      1.0  0.07038  0.73241  0.09655  1.0000
  H   H187      1.0  0.21971  0.86266  0.43812  1.0000
  C   C194      1.0  0.04430  0.80787  0.07481  1.0000
  N   N14       1.0  0.05530  0.76184  0.07344  1.0000
  C   C195      1.0  0.06090  0.73753  0.07292  1.0000
  H   H188      1.0  0.20660  0.67042  0.10388  1.0000
  C   C196      1.0  0.29115  0.82312  0.34351  1.0000
  H   H189      1.0  0.28865  0.60597  0.29271  1.0000
  C   C197      1.0  0.30691  0.68418  0.25613  1.0000
  C   C198      1.0  0.05118  0.79767  0.04405  1.0000
  H   H190      1.0  0.27570  0.54118  0.10505  1.0000
  H   H191      1.0  0.29919  0.77585  0.29492  1.0000
  H   H192      1.0  0.23769  0.70768  0.12396  1.0000
  H   H193      1.0  0.04538  0.72778  0.07132  1.0000
  C   C199      1.0  0.27852  0.52589  0.27628  1.0000
  H   H194      1.0  0.30362  0.54475  0.18027  1.0000
  H   H195      1.0  0.15765  0.73920  0.11212  1.0000
  C   C200      1.0  0.04813  0.77162  0.10354  1.0000
  H   H196      1.0  0.16848  0.92691  0.46751  1.0000
  C   C201      1.0  0.16841  0.72413  0.11009  1.0000
  H   H197      1.0  0.14538  0.70682  0.07781  1.0000
  C   C202      1.0  0.31387  0.69660  0.28491  1.0000
  C   C203      1.0  0.19542  0.88764  0.41927  1.0000
  C   C204      1.0  0.26037  0.89539  0.49943  1.0000
  H   H198      1.0  0.31562  0.83086  0.25197  1.0000
  H   H199      1.0  0.22475  0.95117  0.50208  1.0000
  N   N15       1.0  0.20250  0.70358  0.12480  1.0000
  H   H200      1.0  0.27935  0.56093  0.13918  1.0000
  C   C205      1.0  0.30135  0.78796  0.31545  1.0000
  C   C206      1.0  0.18905  0.72270  0.12712  1.0000
  N   N16       1.0  0.30803  0.81953  0.36693  1.0000
  H   H201      1.0  0.01787  0.75583  0.31403  1.0000
  C   C207      1.0  0.22433  0.70251  0.14209  1.0000
  H   H202      1.0  0.29089  0.67613  0.25644  1.0000
  H   H203      1.0  0.19403  0.73684  0.14267  1.0000
  H   H204      1.0  0.03736  0.80246  0.12893  1.0000
  C   C208      1.0  0.33482  0.70688  0.28515  1.0000
  H   H205      1.0  0.22835  0.68504  0.15148  1.0000
  H   H206      1.0  0.32974  0.83792  0.39901  1.0000
  H   H207      1.0  0.29740  0.63348  0.33878  1.0000
  C   C209      1.0  0.17923  0.91242  0.46104  1.0000
  H   H208      1.0  0.27497  0.81101  0.29782  1.0000
  C   C210      1.0  0.01262  0.76250  0.28917  1.0000
  N   N17       1.0  0.29829  0.98810  0.27792  1.0000
  C   C211      1.0  0.31820  0.78421  0.33985  1.0000
  H   H209      1.0  0.16818  0.90783  0.37609  1.0000
  C   C212      1.0  0.32701  0.64506  0.31298  1.0000
  H   H210      1.0  0.17633  0.93403  0.39498  1.0000
  C   C213      1.0  0.30818  0.63180  0.31632  1.0000
  C   C214      1.0  0.29901  0.99211  0.31517  1.0000
  C   C215      1.0  0.27129  0.54490  0.13234  1.0000
  H   H211      1.0  0.30335  0.83033  0.41858  1.0000
  C   C216      1.0  0.23467  0.93555  0.50144  1.0000
  H   H212      1.0  0.15081  0.92070  0.40856  1.0000
  H   H213      1.0  0.04705  0.76162  0.12706  1.0000
  N   N18       1.0  0.18114  0.90535  0.42760  1.0000
  C   C217      1.0  0.29709  0.98086  0.20719  1.0000
  C   C218      1.0  0.32262  0.83878  0.27439  1.0000
  H   H214      1.0  0.30305  0.69805  0.30727  1.0000
  C   C219      1.0  0.05644  0.77444  0.04376  1.0000
  C   C220      1.0  0.25016  0.53163  0.23249  1.0000
  C   C221      1.0  0.24414  0.00560  0.21174  1.0000
  H   H215      1.0  0.19750  0.88243  0.39264  1.0000
  H   H216      1.0  0.30447  0.85304  0.38729  1.0000
  C   C222      1.0  0.30320  0.61647  0.29047  1.0000
  H   H217      1.0  0.29205  0.53230  0.29151  1.0000
  H   H218      1.0  0.33089  0.65734  0.33260  1.0000
  C   C223      1.0  0.29624  0.96260  0.23013  1.0000
  H   H219      1.0  0.07202  0.73309  0.05074  1.0000
  C   C224      1.0  0.29693  0.96655  0.26564  1.0000
  H   H220      1.0  0.29461  0.94552  0.22059  1.0000
  C   C225      1.0  0.20784  0.87619  0.44491  1.0000
  H   H221      1.0  0.29336  0.97719  0.33014  1.0000
  C   C226      1.0  0.29935  0.00607  0.25559  1.0000
  H   H222      1.0  0.29598  0.97814  0.17962  1.0000
  H   H223      1.0  0.28726  0.00635  0.32211  1.0000
  N   N19       1.0  0.33513  0.62830  0.25788  1.0000
  H   H224      1.0  0.31628  0.99602  0.32317  1.0000
  H   H225      1.0  0.06213  0.76675  0.01982  1.0000
  H   H226      1.0  0.05289  0.80769  0.02065  1.0000
  C   C227      1.0  0.29871  0.00275  0.21992  1.0000
  H   H227      1.0  0.31563  0.51297  0.21843  1.0000
  H   H228      1.0  0.21561  0.87464  0.49919  1.0000
  Fe  Fe37      1.0  0.21494  0.90319  0.69074  1.0000
  S   S73       1.0  0.24681  0.90222  0.72146  1.0000
  S   S74       1.0  0.18102  0.89425  0.71312  1.0000
  Fe  Fe38      1.0  0.23821  0.92119  0.62554  1.0000
  S   S75       1.0  0.27190  0.92109  0.65152  1.0000
  S   S76       1.0  0.23129  0.93650  0.57217  1.0000
  Fe  Fe39      1.0  0.26256  0.88727  0.67355  1.0000
  S   S77       1.0  0.28113  0.85306  0.67561  1.0000
  Fe  Fe40      1.0  0.25326  0.93628  0.69723  1.0000
  S   S78       1.0  0.26919  0.96554  0.72577  1.0000
  S   S79       1.0  0.23002  0.88637  0.64412  1.0000
  S   S80       1.0  0.22022  0.93835  0.66993  1.0000
  Fe  Fe41      1.0  0.13456  0.78721  0.81428  1.0000
  S   S81       1.0  0.11923  0.75696  0.79041  1.0000
  S   S82       1.0  0.16640  0.80097  0.79074  1.0000
  Fe  Fe42      1.0  0.10505  0.78362  0.87872  1.0000
  S   S83       1.0  0.08741  0.75316  0.85912  1.0000
  S   S84       1.0  0.09856  0.80047  0.93068  1.0000
  Fe  Fe43      1.0  0.12190  0.74094  0.84265  1.0000
  S   S85       1.0  0.13360  0.70461  0.85249  1.0000
  Fe  Fe44      1.0  0.08575  0.77174  0.80809  1.0000
  S   S86       1.0  0.05871  0.76762  0.76666  1.0000
  S   S87       1.0  0.13950  0.76997  0.86583  1.0000
  S   S88       1.0  0.10119  0.80343  0.82856  1.0000
  Fe  Fe45      1.0  0.29423  0.62373  0.80688  1.0000
  S   S89       1.0  0.26524  0.61403  0.77368  1.0000
  C   C228      1.0  0.31991  0.79258  0.60213  1.0000
  Fe  Fe46      1.0  0.26569  0.62244  0.87385  1.0000
  S   S90       1.0  0.23509  0.61247  0.84456  1.0000
  S   S91       1.0  0.25994  0.63645  0.92822  1.0000
  Fe  Fe47      1.0  0.25839  0.58839  0.81520  1.0000
  S   S92       1.0  0.24844  0.55156  0.80710  1.0000
  Fe  Fe48      1.0  0.24484  0.63872  0.80581  1.0000
  S   S93       1.0  0.22430  0.66820  0.78324  1.0000
  S   S94       1.0  0.28861  0.59667  0.84734  1.0000
  S   S95       1.0  0.27437  0.64992  0.83590  1.0000
  C   C229      1.0  0.09000  0.72188  0.73465  1.0000
  C   C230      1.0  0.25239  0.53381  0.77049  1.0000
  C   C231      1.0  0.26500  0.54027  0.74179  1.0000
  C   C232      1.0  0.12808  0.70703  0.73123  1.0000
  H   H229      1.0  0.05133  0.71769  0.76492  1.0000
  H   H230      1.0  0.27199  0.55692  0.74089  1.0000
  C   C233      1.0  0.12435  0.69426  0.76094  1.0000
  C   C234      1.0  0.15894  0.69477  0.83340  1.0000
  C   C235      1.0  0.16743  0.67294  0.84144  1.0000
  C   C236      1.0  0.18761  0.66468  0.82661  1.0000
  C   C237      1.0  0.19921  0.67807  0.80311  1.0000
  C   C238      1.0  0.19062  0.69984  0.79493  1.0000
  C   C239      1.0  0.17069  0.70827  0.81026  1.0000
  H   H231      1.0  0.15842  0.66239  0.85928  1.0000
  H   H232      1.0  0.19399  0.64783  0.83292  1.0000
  H   H233      1.0  0.19949  0.71030  0.77677  1.0000
  H   H234      1.0  0.16434  0.72514  0.80391  1.0000
  C   C240      1.0  0.32983  0.67604  0.79209  1.0000
  C   C241      1.0  0.02918  0.77322  0.76351  1.0000
  C   C242      1.0  0.29961  0.70789  0.72684  1.0000
  H   H235      1.0  0.27430  0.68581  0.76934  1.0000
  C   C243      1.0  0.26421  0.62343  0.96933  1.0000
  C   C244      1.0  0.27191  0.60095  0.97313  1.0000
  H   H236      1.0  0.33582  0.67023  0.66639  1.0000
  H   H237      1.0  0.27557  0.59092  0.95048  1.0000
  H   H238      1.0  0.28959  0.97067  0.65242  1.0000
  C   C245      1.0  0.10467  0.78686  0.97067  1.0000
  C   C246      1.0  0.10971  0.76362  0.97282  1.0000
  N   N20       1.0  0.26323  0.99564  0.64834  1.0000
  H   H239      1.0  0.11044  0.75366  0.94953  1.0000
  C   C247      1.0  0.17638  0.86686  0.72994  1.0000
  C   C248      1.0  0.19406  0.85103  0.73436  1.0000
  C   C249      1.0  0.19046  0.83053  0.75190  1.0000
  C   C250      1.0  0.16915  0.82553  0.76484  1.0000
  C   C251      1.0  0.15122  0.84091  0.75906  1.0000
  C   C252      1.0  0.15487  0.86152  0.74173  1.0000
  H   H240      1.0  0.21065  0.85484  0.72511  1.0000
  H   H241      1.0  0.20439  0.81866  0.75605  1.0000
  H   H242      1.0  0.13473  0.83721  0.76878  1.0000
  H   H243      1.0  0.14107  0.87363  0.73821  1.0000
  C   C253      1.0  0.25662  0.99122  0.74154  1.0000
  C   C254      1.0  0.32537  0.68103  0.68272  1.0000
  H   H244      1.0  0.11363  0.73137  0.69526  1.0000
  C   C255      1.0  0.24997  0.98319  0.62750  1.0000
  C   C256      1.0  0.30882  0.67172  0.70361  1.0000
  H   H245      1.0  0.29364  0.81792  0.61091  1.0000
  H   H246      1.0  0.31647  0.67387  0.81056  1.0000
  H   H247      1.0  0.28861  0.52150  0.82289  1.0000
  C   C257      1.0  0.32631  0.86307  0.67629  1.0000
  C   C258      1.0  0.31005  0.84680  0.68100  1.0000
  C   C259      1.0  0.31689  0.82420  0.68717  1.0000
  C   C260      1.0  0.32915  0.70416  0.68443  1.0000
  H   H248      1.0  0.32121  0.88053  0.67147  1.0000
  H   H249      1.0  0.30440  0.81154  0.69097  1.0000
  C   C261      1.0  0.27042  0.00759  0.75584  1.0000
  H   H250      1.0  0.30658  0.65357  0.70327  1.0000
  C   C262      1.0  0.24064  0.92459  0.53260  1.0000
  C   C263      1.0  0.25354  0.90445  0.53144  1.0000
  C   C264      1.0  0.11342  0.75319  0.00521  1.0000
  H   H251      1.0  0.25826  0.89587  0.55521  1.0000
  N   N21       1.0  0.19055  0.87619  0.81262  1.0000
  C   C265      1.0  0.19096  0.85578  0.82952  1.0000
  C   C266      1.0  0.17102  0.88888  0.81019  1.0000
  C   C267      1.0  0.17137  0.84735  0.84393  1.0000
  C   C268      1.0  0.15111  0.88094  0.82432  1.0000
  C   C269      1.0  0.15132  0.85999  0.84116  1.0000
  C   C270      1.0  0.21133  0.88485  0.79806  1.0000
  H   H252      1.0  0.20631  0.84549  0.83085  1.0000
  H   H253      1.0  0.17060  0.90483  0.79612  1.0000
  H   H254      1.0  0.17153  0.83066  0.85582  1.0000
  H   H255      1.0  0.13552  0.89067  0.82128  1.0000
  H   H256      1.0  0.13590  0.85324  0.85127  1.0000
  H   H257      1.0  0.22064  0.89399  0.81806  1.0000
  H   H258      1.0  0.22217  0.87085  0.78765  1.0000
  H   H259      1.0  0.20777  0.89657  0.77601  1.0000
  N   N22       1.0  0.21280  0.68774  0.89449  1.0000
  C   C271      1.0  0.20295  0.70823  0.88596  1.0000
  C   C272      1.0  0.20316  0.67396  0.91841  1.0000
  C   C273      1.0  0.18247  0.71510  0.90076  1.0000
  C   C274      1.0  0.18255  0.68020  0.93344  1.0000
  C   C275      1.0  0.17209  0.70083  0.92427  1.0000
  C   C276      1.0  0.23393  0.68038  0.87832  1.0000
  H   H260      1.0  0.21049  0.71904  0.86673  1.0000
  H   H261      1.0  0.21128  0.65784  0.92541  1.0000
  H   H262      1.0  0.17417  0.73089  0.89283  1.0000
  H   H263      1.0  0.17461  0.66891  0.95156  1.0000
  H   H264      1.0  0.15574  0.70562  0.93472  1.0000
  C   C277      1.0  0.24347  0.51204  0.77111  1.0000
  H   H265      1.0  0.23726  0.68990  0.85410  1.0000
  H   H266      1.0  0.23322  0.66226  0.87121  1.0000
  C   C278      1.0  0.01673  0.78404  0.78957  1.0000
  C   C279      1.0  0.23361  0.99617  0.73877  1.0000
  H   H267      1.0  0.02736  0.75830  0.71305  1.0000
  C   C280      1.0  0.33837  0.65740  0.77374  1.0000
  C   C281      1.0  0.10370  0.79955  0.00121  1.0000
  H   H268      1.0  0.02505  0.78927  0.81280  1.0000
  H   H269      1.0  0.09990  0.81754  0.99978  1.0000
  C   C282      1.0  0.22718  0.98890  0.62370  1.0000
  H   H270      1.0  0.19021  0.90718  0.51380  1.0000
  H   H271      1.0  0.31961  0.73554  0.70908  1.0000
  C   C283      1.0  0.27926  0.67484  0.74728  1.0000
  H   H272      1.0  0.33190  0.71188  0.80087  1.0000
  C   C284      1.0  0.10347  0.69590  0.77736  1.0000
  H   H273      1.0  0.13771  0.68354  0.77173  1.0000
  C   C285      1.0  0.11082  0.72096  0.71793  1.0000
  C   C286      1.0  0.25955  0.63620  0.99914  1.0000
  H   H274      1.0  0.28823  0.00395  0.75822  1.0000
  H   H275      1.0  0.28587  0.65863  0.75851  1.0000
  H   H276      1.0  0.25368  0.65361  0.99653  1.0000
  C   C287      1.0  0.06503  0.71128  0.78220  1.0000
  N   N23       1.0  0.29635  0.68511  0.72551  1.0000
  H   H277      1.0  0.10106  0.68663  0.80130  1.0000
  H   H278      1.0  0.07680  0.73308  0.72447  1.0000
  H   H279      1.0  0.14444  0.70640  0.71892  1.0000
  H   H280      1.0  0.27849  0.53030  0.69224  1.0000
  H   H281      1.0  0.06635  0.72345  0.80373  1.0000
  C   C288      1.0  0.26869  0.52509  0.71424  1.0000
  N   N24       1.0  0.08653  0.70936  0.76391  1.0000
  H   H282      1.0  0.28996  0.71847  0.74454  1.0000
  H   H283      1.0  0.25688  0.96851  0.61405  1.0000
  H   H284      1.0  0.31893  0.85000  0.60390  1.0000
  C   C289      1.0  0.31616  0.71772  0.70654  1.0000
  H   H285      1.0  0.22275  0.98381  0.72786  1.0000
  C   C290      1.0  0.01796  0.76660  0.73348  1.0000
  H   H286      1.0  0.06010  0.69463  0.79269  1.0000
  H   H287      1.0  0.24808  0.68230  0.89654  1.0000
  C   C291      1.0  0.31125  0.81470  0.60487  1.0000
  S   S96       1.0  0.32679  0.63028  0.77816  1.0000
  H   H288      1.0  0.21667  0.97860  0.60772  1.0000
  H   H289      1.0  0.29673  0.99658  0.63013  1.0000
  C   C292      1.0  0.33866  0.69756  0.78660  1.0000
  H   H290      1.0  0.29385  0.99545  0.67674  1.0000
  C   C293      1.0  0.27493  0.59144  0.00639  1.0000
  C   C294      1.0  0.21803  0.00756  0.64119  1.0000
  H   H291      1.0  0.30902  0.77839  0.60535  1.0000
  H   H292      1.0  0.26404  0.67151  0.73193  1.0000
  H   H293      1.0  0.28094  0.57406  0.00901  1.0000
  H   H294      1.0  0.11700  0.73516  0.00658  1.0000
  C   C295      1.0  0.28708  0.98939  0.65186  1.0000
  C   C296      1.0  0.32549  0.83277  0.60100  1.0000
  Fe  Fe49      1.0  0.61610  0.25099  0.32897  1.0000
  S   S97       1.0  0.63078  0.27616  0.36478  1.0000
  S   S98       1.0  0.62920  0.21446  0.33195  1.0000
  Fe  Fe50      1.0  0.57975  0.28471  0.30246  1.0000
  S   S99       1.0  0.59240  0.31232  0.33658  1.0000
  S   S100      1.0  0.55050  0.29535  0.26663  1.0000
  Fe  Fe51      1.0  0.62693  0.30067  0.32008  1.0000
  H   H295      1.0  0.34420  0.30111  0.21271  1.0000
  Fe  Fe52      1.0  0.59525  0.28569  0.37846  1.0000
  S   S101      1.0  0.58046  0.29315  0.43185  1.0000
  S   S102      1.0  0.61456  0.27468  0.28310  1.0000
  S   S103      1.0  0.58030  0.25893  0.34542  1.0000
  Fe  Fe53      1.0  0.40724  0.27255  0.13119  1.0000
  S   S104      1.0  0.40879  0.24439  0.17079  1.0000
  S   S105      1.0  0.42016  0.26278  0.07766  1.0000
  Fe  Fe54      1.0  0.38840  0.30638  0.18420  1.0000
  S   S106      1.0  0.38919  0.28082  0.22720  1.0000
  S   S107      1.0  0.37075  0.34093  0.18715  1.0000
  Fe  Fe55      1.0  0.42335  0.27024  0.20629  1.0000
  S   S108      1.0  0.45247  0.25790  0.24105  1.0000
  Fe  Fe56      1.0  0.37481  0.25733  0.18815  1.0000
  C   C297      1.0  0.35873  0.35221  0.22539  1.0000
  S   S109      1.0  0.42366  0.29771  0.16570  1.0000
  S   S110      1.0  0.37235  0.28352  0.14605  1.0000
  H   H296      1.0  0.66297  0.47055  0.17119  1.0000
  C   C298      1.0  0.51031  0.26391  0.16592  1.0000
  S   S111      1.0  0.34162  0.24099  0.20026  1.0000
  C   C299      1.0  0.46910  0.25440  0.13759  1.0000
  H   H297      1.0  0.35034  0.26758  0.01509  1.0000
  C   C300      1.0  0.41153  0.27467  0.03749  1.0000
  C   C301      1.0  0.39601  0.29285  0.03517  1.0000
  N   N25       1.0  0.48089  0.27213  0.12499  1.0000
  H   H298      1.0  0.38923  0.30040  0.05845  1.0000
  C   C302      1.0  0.49846  0.24567  0.17865  1.0000
  H   H299      1.0  0.50503  0.23568  0.20018  1.0000
  C   C303      1.0  0.35204  0.19617  0.18473  1.0000
  H   H300      1.0  0.36946  0.20028  0.18766  1.0000
  H   H301      1.0  0.66917  0.43697  0.20865  1.0000
  H   H302      1.0  0.52617  0.26813  0.17754  1.0000
  C   C304      1.0  0.65229  0.36179  0.22377  1.0000
  C   C305      1.0  0.64692  0.34662  0.25062  1.0000
  H   H303      1.0  0.35909  0.16039  0.17835  1.0000
  H   H304      1.0  0.64061  0.36469  0.20277  1.0000
  H   H305      1.0  0.63123  0.33795  0.25023  1.0000
  C   C306      1.0  0.59291  0.28443  0.47160  1.0000
  H   H306      1.0  0.56471  0.29665  0.50178  1.0000
  C   C307      1.0  0.61420  0.27388  0.47306  1.0000
  H   H307      1.0  0.66968  0.28869  0.25995  1.0000
  H   H308      1.0  0.62340  0.27060  0.44944  1.0000
  C   C308      1.0  0.52347  0.28439  0.25959  1.0000
  C   C309      1.0  0.50780  0.29722  0.23986  1.0000
  C   C310      1.0  0.48595  0.28956  0.23418  1.0000
  C   C311      1.0  0.47949  0.26889  0.24820  1.0000
  C   C312      1.0  0.49517  0.25606  0.26796  1.0000
  C   C313      1.0  0.51705  0.26368  0.27349  1.0000
  H   H309      1.0  0.51256  0.31329  0.22900  1.0000
  H   H310      1.0  0.47414  0.29961  0.21891  1.0000
  H   H311      1.0  0.49042  0.23996  0.27872  1.0000
  H   H312      1.0  0.52897  0.25352  0.28841  1.0000
  C   C314      1.0  0.65651  0.20547  0.31893  1.0000
  H   H313      1.0  0.50329  0.26204  0.39079  1.0000
  S   S112      1.0  0.65673  0.32336  0.31183  1.0000
  C   C315      1.0  0.62371  0.26770  0.50516  1.0000
  C   C316      1.0  0.47764  0.24097  0.16465  1.0000
  C   C317      1.0  0.34611  0.17356  0.17960  1.0000
  C   C318      1.0  0.50118  0.27711  0.13898  1.0000
  H   H314      1.0  0.49180  0.26190  0.34793  1.0000
  H   H315      1.0  0.45286  0.25067  0.12695  1.0000
  H   H316      1.0  0.46787  0.22743  0.17538  1.0000
  H   H317      1.0  0.51038  0.29143  0.12959  1.0000
  H   H318      1.0  0.36379  0.35119  0.31295  1.0000
  C   C319      1.0  0.35724  0.35586  0.28780  1.0000
  H   H319      1.0  0.65881  0.17910  0.35754  1.0000
  C   C320      1.0  0.47144  0.28583  0.09653  1.0000
  H   H320      1.0  0.45529  0.29408  0.10460  1.0000
  H   H321      1.0  0.46805  0.27490  0.07403  1.0000
  H   H322      1.0  0.48280  0.29926  0.08789  1.0000
  N   N26       1.0  0.51461  0.28836  0.35815  1.0000
  C   C321      1.0  0.50502  0.30211  0.33336  1.0000
  C   C322      1.0  0.53186  0.29578  0.37778  1.0000
  C   C323      1.0  0.51310  0.32371  0.32711  1.0000
  C   C324      1.0  0.54002  0.31745  0.37272  1.0000
  C   C325      1.0  0.53079  0.33134  0.34686  1.0000
  C   C326      1.0  0.50712  0.26519  0.36314  1.0000
  H   H323      1.0  0.49152  0.29621  0.31742  1.0000
  H   H324      1.0  0.53963  0.28480  0.39721  1.0000
  H   H325      1.0  0.50612  0.33414  0.30640  1.0000
  H   H326      1.0  0.55387  0.32315  0.38818  1.0000
  H   H327      1.0  0.53759  0.34784  0.34180  1.0000
  H   H328      1.0  0.52058  0.25299  0.35473  1.0000
  H   H329      1.0  0.38047  0.33359  0.26035  1.0000
  H   H330      1.0  0.65911  0.22945  0.27725  1.0000
  C   C327      1.0  0.34099  0.36836  0.22281  1.0000
  C   C328      1.0  0.36667  0.34580  0.25805  1.0000
  C   C329      1.0  0.66713  0.21522  0.29050  1.0000
  H   H331      1.0  0.65466  0.14449  0.29750  1.0000
  H   H332      1.0  0.65874  0.10835  0.32992  1.0000
  C   C330      1.0  0.58122  0.28855  0.50263  1.0000
  C   C331      1.0  0.66712  0.13172  0.28972  1.0000
  C   C332      1.0  0.66188  0.34280  0.27794  1.0000
  C   C333      1.0  0.66955  0.11128  0.30792  1.0000
  H   H333      1.0  0.37591  0.23731  0.03772  1.0000
  C   C334      1.0  0.66692  0.18672  0.33555  1.0000
  H   H334      1.0  0.64028  0.25974  0.50589  1.0000
  C   C335      1.0  0.67219  0.47201  0.19511  1.0000
  H   H335      1.0  0.67217  0.06938  0.33055  1.0000
  C   C336      1.0  0.33939  0.37191  0.28523  1.0000
  C   C337      1.0  0.37230  0.23834  0.01028  1.0000
  Fe  Fe57      1.0  0.61276  0.26970  0.63092  1.0000
  S   S113      1.0  0.60151  0.24010  0.66274  1.0000
  S   S114      1.0  0.62552  0.26486  0.57582  1.0000
  Fe  Fe58      1.0  0.61569  0.29995  0.69500  1.0000
  S   S115      1.0  0.60440  0.27258  0.73102  1.0000
  S   S116      1.0  0.62418  0.33512  0.71322  1.0000
  Fe  Fe59      1.0  0.62789  0.24976  0.70039  1.0000
  S   S117      1.0  0.65442  0.22756  0.72693  1.0000
  Fe  Fe60      1.0  0.57866  0.26549  0.69043  1.0000
  S   S118      1.0  0.54212  0.25521  0.69875  1.0000
  S   S119      1.0  0.64066  0.27773  0.66731  1.0000
  S   S120      1.0  0.58841  0.29457  0.65573  1.0000
  Fe  Fe61      1.0  0.39497  0.28472  0.88022  1.0000
  S   S121      1.0  0.41598  0.25302  0.87411  1.0000
  S   S122      1.0  0.38784  0.30202  0.93161  1.0000
  Fe  Fe62      1.0  0.38214  0.28588  0.80321  1.0000
  S   S123      1.0  0.40215  0.25359  0.79233  1.0000
  S   S124      1.0  0.36469  0.30187  0.75643  1.0000
  Fe  Fe63      1.0  0.38712  0.24100  0.84224  1.0000
  S   S125      1.0  0.37114  0.20843  0.86033  1.0000
  Fe  Fe64      1.0  0.42911  0.26869  0.82482  1.0000
  S   S126      1.0  0.46674  0.27368  0.81461  1.0000
  S   S127      1.0  0.36554  0.27221  0.85056  1.0000
  S   S128      1.0  0.40963  0.30152  0.83336  1.0000
  H   H336      1.0  0.35885  0.14653  0.91536  1.0000
  C   C338      1.0  0.62410  0.34549  0.62418  1.0000
  H   H337      1.0  0.38846  0.35171  0.75822  1.0000
  H   H338      1.0  0.38652  0.21358  0.93406  1.0000
  C   C339      1.0  0.60743  0.34268  0.59941  1.0000
  C   C340      1.0  0.38930  0.30135  0.00256  1.0000
  C   C341      1.0  0.37960  0.14690  0.85405  1.0000
  C   C342      1.0  0.38276  0.22319  0.98749  1.0000
  C   C343      1.0  0.64995  0.34047  0.73403  1.0000
  C   C344      1.0  0.65409  0.36243  0.74558  1.0000
  H   H339      1.0  0.61992  0.35476  0.64748  1.0000
  N   N27       1.0  0.35416  0.25756  0.96261  1.0000
  H   H340      1.0  0.64125  0.37564  0.74274  1.0000
  H   H341      1.0  0.37737  0.31548  0.00100  1.0000
  C   C345      1.0  0.52122  0.26127  0.73075  1.0000
  C   C346      1.0  0.52533  0.27451  0.75967  1.0000
  C   C347      1.0  0.50848  0.27799  0.78495  1.0000
  C   C348      1.0  0.48728  0.26839  0.78177  1.0000
  C   C349      1.0  0.48319  0.25513  0.75284  1.0000
  C   C350      1.0  0.50003  0.25164  0.72756  1.0000
  H   H342      1.0  0.54149  0.28203  0.76264  1.0000
  H   H343      1.0  0.51192  0.28824  0.80720  1.0000
  H   H344      1.0  0.46711  0.24742  0.75005  1.0000
  H   H345      1.0  0.49663  0.24131  0.70539  1.0000
  C   C351      1.0  0.65562  0.19039  0.68386  1.0000
  H   H346      1.0  0.36065  0.24374  0.91274  1.0000
  H   H347      1.0  0.63932  0.19619  0.67466  1.0000
  H   H348      1.0  0.59059  0.34956  0.60367  1.0000
  C   C352      1.0  0.39775  0.29157  0.97201  1.0000
  C   C353      1.0  0.41332  0.27344  0.97439  1.0000
  H   H349      1.0  0.35432  0.12310  0.81208  1.0000
  H   H350      1.0  0.42005  0.26583  0.95116  1.0000
  C   C354      1.0  0.59066  0.28220  0.53475  1.0000
  C   C355      1.0  0.61205  0.27184  0.53615  1.0000
  N   N28       1.0  0.35879  0.13569  0.86298  1.0000
  H   H351      1.0  0.58146  0.28543  0.55836  1.0000
  C   C356      1.0  0.42029  0.26518  0.00696  1.0000
  N   N29       1.0  0.43469  0.31739  0.75146  1.0000
  C   C357      1.0  0.41384  0.32654  0.74450  1.0000
  C   C358      1.0  0.44753  0.32617  0.77697  1.0000
  C   C359      1.0  0.40532  0.34504  0.76321  1.0000
  C   C360      1.0  0.43961  0.34478  0.79606  1.0000
  C   C361      1.0  0.41831  0.35418  0.78916  1.0000
  C   C362      1.0  0.44267  0.29702  0.73334  1.0000
  H   H352      1.0  0.46376  0.31842  0.78329  1.0000
  H   H353      1.0  0.44965  0.35135  0.81677  1.0000
  H   H354      1.0  0.41166  0.36818  0.80440  1.0000
  H   H355      1.0  0.43870  0.28183  0.74899  1.0000
  H   H356      1.0  0.43466  0.29561  0.70765  1.0000
  H   H357      1.0  0.46111  0.29718  0.72923  1.0000
  N   N30       1.0  0.56516  0.20643  0.73985  1.0000
  C   C363      1.0  0.56484  0.22263  0.76489  1.0000
  C   C364      1.0  0.58494  0.19593  0.73025  1.0000
  C   C365      1.0  0.58469  0.22862  0.78111  1.0000
  C   C366      1.0  0.60504  0.20135  0.74616  1.0000
  C   C367      1.0  0.60490  0.21789  0.77162  1.0000
  C   C368      1.0  0.54442  0.20040  0.72249  1.0000
  H   H358      1.0  0.54927  0.23135  0.77203  1.0000
  H   H359      1.0  0.58528  0.18343  0.70993  1.0000
  H   H360      1.0  0.58445  0.24187  0.80033  1.0000
  H   H361      1.0  0.62076  0.19314  0.73841  1.0000
  H   H362      1.0  0.62055  0.22269  0.78335  1.0000
  H   H363      1.0  0.39393  0.13448  0.85458  1.0000
  H   H364      1.0  0.54514  0.20565  0.69490  1.0000
  H   H365      1.0  0.54201  0.18190  0.72431  1.0000
  H   H366      1.0  0.65662  0.16030  0.65264  1.0000
  N   N31       1.0  0.64528  0.33650  0.61925  1.0000
  H   H367      1.0  0.40336  0.31919  0.72498  1.0000
  C   C369      1.0  0.61255  0.33065  0.56946  1.0000
  H   H368      1.0  0.52945  0.20920  0.73393  1.0000
  H   H369      1.0  0.36334  0.20036  0.78725  1.0000
  C   C370      1.0  0.63411  0.32136  0.56483  1.0000
  H   H370      1.0  0.64783  0.21924  0.57058  1.0000
  H   H371      1.0  0.38300  0.16089  0.87210  1.0000
  H   H372      1.0  0.66796  0.18323  0.55575  1.0000
  H   H373      1.0  0.66102  0.24196  0.61948  1.0000
  C   C371      1.0  0.37847  0.22514  0.95220  1.0000
  H   H374      1.0  0.34168  0.29165  0.96389  1.0000
  C   C372      1.0  0.67001  0.22642  0.61252  1.0000
  C   C373      1.0  0.66677  0.20286  0.70864  1.0000
  C   C374      1.0  0.66249  0.33908  0.64572  1.0000
  C   C375      1.0  0.35022  0.19258  0.80205  1.0000
  C   C376      1.0  0.35052  0.13677  0.89593  1.0000
  H   H375      1.0  0.37835  0.15475  0.82792  1.0000
  H   H376      1.0  0.65863  0.35394  0.66241  1.0000
  C   C377      1.0  0.34815  0.12354  0.83842  1.0000
  C   C378      1.0  0.36389  0.24241  0.94018  1.0000
  H   H377      1.0  0.59979  0.32819  0.55007  1.0000
  C   C379      1.0  0.34210  0.33885  0.78573  1.0000
  H   H378      1.0  0.35029  0.33416  0.80971  1.0000
  H   H379      1.0  0.43235  0.25115  0.00846  1.0000
  C   C380      1.0  0.34593  0.32575  0.75630  1.0000
  H   H380      1.0  0.66412  0.46846  0.89567  1.0000
  H   H381      1.0  0.66377  0.30658  0.72915  1.0000
  C   C381      1.0  0.35792  0.25549  0.99731  1.0000
  C   C382      1.0  0.66671  0.32357  0.73780  1.0000
  C   C383      1.0  0.66545  0.17006  0.67144  1.0000
  C   C384      1.0  0.66254  0.21356  0.58512  1.0000
  H   H382      1.0  0.66677  0.31627  0.58701  1.0000
  C   C385      1.0  0.34917  0.19557  0.83776  1.0000
  H   H383      1.0  0.34256  0.27966  0.92210  1.0000
  H   H384      1.0  0.39439  0.21019  0.99717  1.0000
  H   H385      1.0  0.66332  0.32379  0.66256  1.0000
  H   H386      1.0  0.63808  0.31147  0.54201  1.0000
  C   C386      1.0  0.65027  0.32416  0.59036  1.0000
  Fe  Fe65      1.0  0.42178  0.75632  0.30622  1.0000
  S   S129      1.0  0.40986  0.72885  0.34208  1.0000
  S   S130      1.0  0.45058  0.74541  0.26996  1.0000
  Fe  Fe66      1.0  0.38727  0.79085  0.33511  1.0000
  S   S131      1.0  0.37364  0.76594  0.37294  1.0000
  S   S132      1.0  0.37419  0.82702  0.34157  1.0000
  Fe  Fe67      1.0  0.40930  0.75548  0.38334  1.0000
  S   S133      1.0  0.42717  0.75220  0.43517  1.0000
  Fe  Fe68      1.0  0.37495  0.74162  0.32834  1.0000
  H   H387      1.0  0.60494  0.71546  0.05211  1.0000
  S   S134      1.0  0.42328  0.78206  0.34824  1.0000
  S   S135      1.0  0.38660  0.76734  0.28970  1.0000
  Fe  Fe69      1.0  0.57606  0.77297  0.21193  1.0000
  S   S136      1.0  0.57552  0.74079  0.18194  1.0000
  S   S137      1.0  0.54651  0.78757  0.24345  1.0000
  Fe  Fe70      1.0  0.62427  0.78252  0.18835  1.0000
  S   S138      1.0  0.62649  0.75101  0.15608  1.0000
  S   S139      1.0  0.65780  0.79930  0.19431  1.0000
  Fe  Fe71      1.0  0.59156  0.76053  0.13908  1.0000
  S   S140      1.0  0.57592  0.75511  0.08642  1.0000
  Fe  Fe72      1.0  0.61065  0.73411  0.20153  1.0000
  S   S141      1.0  0.62195  0.69871  0.21862  1.0000
  S   S142      1.0  0.59022  0.79348  0.16789  1.0000
  S   S143      1.0  0.61013  0.76487  0.23495  1.0000
  C   C387      1.0  0.64787  0.69413  0.24013  1.0000
  H   H388      1.0  0.56215  0.74749  0.01667  1.0000
  H   H389      1.0  0.50035  0.79258  0.38507  1.0000
  C   C388      1.0  0.65489  0.67200  0.24948  1.0000
  C   C389      1.0  0.34950  0.62624  0.22727  1.0000
  H   H390      1.0  0.34935  0.81343  0.28050  1.0000
  C   C390      1.0  0.58938  0.76036  0.04641  1.0000
  C   C391      1.0  0.61074  0.76934  0.04469  1.0000
  H   H391      1.0  0.66393  0.82258  0.26657  1.0000
  H   H392      1.0  0.61918  0.77392  0.06816  1.0000
  H   H393      1.0  0.48473  0.71128  0.30577  1.0000
  C   C392      1.0  0.50358  0.74506  0.33626  1.0000
  C   C393      1.0  0.65796  0.86702  0.17339  1.0000
  C   C394      1.0  0.65043  0.84479  0.17762  1.0000
  H   H394      1.0  0.64590  0.88094  0.17040  1.0000
  H   H395      1.0  0.63268  0.84166  0.17805  1.0000
  H   H396      1.0  0.67059  0.72136  0.09524  1.0000
  H   H397      1.0  0.54315  0.81408  0.17466  1.0000
  H   H398      1.0  0.52463  0.77392  0.34050  1.0000
  C   C395      1.0  0.65666  0.85838  0.26133  1.0000
  C   C396      1.0  0.47669  0.76584  0.38587  1.0000
  C   C397      1.0  0.62122  0.77244  0.01246  1.0000
  C   C398      1.0  0.41428  0.74933  0.47628  1.0000
  H   H399      1.0  0.46593  0.77374  0.40528  1.0000
  C   C399      1.0  0.39198  0.74309  0.47995  1.0000
  C   C400      1.0  0.50966  0.76584  0.34978  1.0000
  H   H400      1.0  0.38193  0.74042  0.45725  1.0000
  H   H401      1.0  0.48448  0.69937  0.34911  1.0000
  C   C401      1.0  0.49602  0.77633  0.37461  1.0000
  H   H402      1.0  0.45598  0.73710  0.38054  1.0000
  C   C402      1.0  0.52014  0.77531  0.25119  1.0000
  C   C403      1.0  0.50336  0.78798  0.26873  1.0000
  C   C404      1.0  0.48202  0.77912  0.27487  1.0000
  C   C405      1.0  0.47716  0.75748  0.26333  1.0000
  C   C406      1.0  0.49394  0.74481  0.24580  1.0000
  C   C407      1.0  0.51534  0.75359  0.23990  1.0000
  H   H403      1.0  0.50687  0.80480  0.27759  1.0000
  H   H404      1.0  0.46930  0.78907  0.28839  1.0000
  H   H405      1.0  0.49037  0.72806  0.23669  1.0000
  H   H406      1.0  0.52803  0.74365  0.22633  1.0000
  H   H407      1.0  0.66315  0.71239  0.17060  1.0000
  H   H408      1.0  0.35703  0.64271  0.22074  1.0000
  H   H409      1.0  0.64420  0.65804  0.24405  1.0000
  H   H410      1.0  0.51815  0.81973  0.19837  1.0000
  H   H411      1.0  0.64350  0.72976  0.04808  1.0000
  H   H412      1.0  0.65953  0.68240  0.16811  1.0000
  C   C408      1.0  0.63873  0.71945  0.07005  1.0000
  C   C409      1.0  0.52457  0.81453  0.17255  1.0000
  C   C410      1.0  0.65395  0.71457  0.09670  1.0000
  C   C411      1.0  0.62643  0.69418  0.12716  1.0000
  H   H413      1.0  0.65503  0.89447  0.25260  1.0000
  C   C412      1.0  0.47107  0.74511  0.37168  1.0000
  H   H414      1.0  0.45952  0.71254  0.33016  1.0000
  H   H415      1.0  0.51410  0.73719  0.31660  1.0000
  H   H416      1.0  0.65915  0.65326  0.37385  1.0000
  N   N32       1.0  0.51647  0.79228  0.16314  1.0000
  C   C413      1.0  0.49601  0.78564  0.17480  1.0000
  C   C414      1.0  0.52892  0.77871  0.14144  1.0000
  C   C415      1.0  0.48783  0.76463  0.16556  1.0000
  C   C416      1.0  0.52128  0.75758  0.13175  1.0000
  C   C417      1.0  0.50065  0.75048  0.14405  1.0000
  H   H417      1.0  0.44442  0.75728  0.50359  1.0000
  C   C418      1.0  0.47806  0.71343  0.33238  1.0000
  H   H418      1.0  0.54495  0.78410  0.13157  1.0000
  N   N33       1.0  0.48424  0.73521  0.34675  1.0000
  H   H419      1.0  0.53141  0.74681  0.11485  1.0000
  C   C419      1.0  0.57865  0.75451  0.01562  1.0000
  H   H420      1.0  0.48613  0.79634  0.19208  1.0000
  H   H421      1.0  0.59367  0.69336  0.10364  1.0000
  H   H422      1.0  0.63771  0.77949  0.01137  1.0000
  C   C420      1.0  0.34169  0.82887  0.29050  1.0000
  H   H423      1.0  0.47187  0.75920  0.17569  1.0000
  C   C421      1.0  0.67084  0.83934  0.26541  1.0000
  H   H424      1.0  0.36472  0.71284  0.25582  1.0000
  H   H425      1.0  0.49463  0.73404  0.13697  1.0000
  C   C422      1.0  0.35086  0.83908  0.31942  1.0000
  H   H426      1.0  0.51925  0.82736  0.15294  1.0000
  C   C423      1.0  0.61073  0.69895  0.10116  1.0000
  N   N34       1.0  0.64779  0.70179  0.12455  1.0000
  H   H427      1.0  0.35247  0.69119  0.20493  1.0000
  C   C424      1.0  0.42713  0.75254  0.50612  1.0000
  C   C425      1.0  0.66595  0.82685  0.18282  1.0000
  H   H428      1.0  0.63868  0.85648  0.25959  1.0000
  C   C426      1.0  0.61703  0.71149  0.07232  1.0000
  H   H429      1.0  0.65668  0.72915  0.24003  1.0000
  H   H430      1.0  0.36299  0.61323  0.23169  1.0000
  H   H431      1.0  0.35469  0.65382  0.28066  1.0000
  C   C427      1.0  0.66371  0.69771  0.15285  1.0000
  H   H432      1.0  0.62129  0.68466  0.14970  1.0000
  C   C428      1.0  0.34861  0.70496  0.25606  1.0000
  C   C429      1.0  0.66580  0.87968  0.25754  1.0000
  C   C430      1.0  0.66185  0.71203  0.24715  1.0000
  C   C431      1.0  0.34044  0.64300  0.28347  1.0000
  H   H433      1.0  0.65368  0.63727  0.43630  1.0000
  S   S144      1.0  0.34339  0.72103  0.32284  1.0000
  C   C432      1.0  0.67179  0.63321  0.43241  1.0000
  H   H434      1.0  0.34811  0.86737  0.35402  1.0000
  C   C433      1.0  0.34162  0.69264  0.22726  1.0000
  C   C434      1.0  0.34094  0.85925  0.33190  1.0000
  H   H435      1.0  0.33956  0.62167  0.20425  1.0000
  Fe  Fe73      1.0  0.39862  0.74664  0.63569  1.0000
  S   S145      1.0  0.42132  0.77544  0.64479  1.0000
  S   S146      1.0  0.38392  0.73672  0.58397  1.0000
  Fe  Fe74      1.0  0.38837  0.74151  0.71309  1.0000
  S   S147      1.0  0.41046  0.77034  0.72729  1.0000
  C   C435      1.0  0.38071  0.80282  0.58576  1.0000
  Fe  Fe75      1.0  0.39492  0.78835  0.68157  1.0000
  S   S148      1.0  0.38473  0.82566  0.67905  1.0000
  Fe  Fe76      1.0  0.43520  0.75485  0.68979  1.0000
  S   S149      1.0  0.47356  0.75514  0.69476  1.0000
  S   S150      1.0  0.37141  0.76091  0.67003  1.0000
  S   S151      1.0  0.41400  0.72463  0.67803  1.0000
  Fe  Fe77      1.0  0.61995  0.78353  0.81592  1.0000
  S   S152      1.0  0.64136  0.76112  0.84981  1.0000
  S   S153      1.0  0.63284  0.81585  0.79197  1.0000
  Fe  Fe78      1.0  0.57809  0.75627  0.82917  1.0000
  S   S154      1.0  0.59695  0.73216  0.86528  1.0000
  S   S155      1.0  0.54022  0.75134  0.82402  1.0000
  Fe  Fe79      1.0  0.61266  0.76281  0.88750  1.0000
  S   S156      1.0  0.62464  0.77078  0.94186  1.0000
  Fe  Fe80      1.0  0.62416  0.73234  0.82490  1.0000
  S   S157      1.0  0.64508  0.69992  0.81692  1.0000
  S   S158      1.0  0.59200  0.78701  0.85471  1.0000
  S   S159      1.0  0.60454  0.75453  0.78746  1.0000
  C   C436      1.0  0.65546  0.68723  0.77859  1.0000
  H   H436      1.0  0.39086  0.81292  0.60365  1.0000
  H   H437      1.0  0.36286  0.64613  0.73613  1.0000
  C   C437      1.0  0.64805  0.69409  0.74582  1.0000
  C   C438      1.0  0.34836  0.82846  0.59513  1.0000
  H   H438      1.0  0.63575  0.70784  0.74326  1.0000
  H   H439      1.0  0.56056  0.69718  0.84696  1.0000
  C   C439      1.0  0.66026  0.82501  0.80019  1.0000
  H   H440      1.0  0.51660  0.70751  0.74892  1.0000
  C   C440      1.0  0.53197  0.70020  0.73643  1.0000
  H   H441      1.0  0.49115  0.80095  0.73366  1.0000
  H   H442      1.0  0.38463  0.80749  0.55866  1.0000
  C   C441      1.0  0.36471  0.68211  0.74445  1.0000
  H   H443      1.0  0.34465  0.80019  0.69204  1.0000
  H   H444      1.0  0.37808  0.68433  0.72597  1.0000
  C   C442      1.0  0.35605  0.66048  0.75027  1.0000
  C   C443      1.0  0.35590  0.70078  0.76245  1.0000
  C   C444      1.0  0.67163  0.66952  0.78142  1.0000
  C   C445      1.0  0.38289  0.73951  0.51310  1.0000
  C   C446      1.0  0.49174  0.75371  0.73111  1.0000
  C   C447      1.0  0.48401  0.74934  0.76451  1.0000
  C   C448      1.0  0.49907  0.74889  0.79256  1.0000
  C   C449      1.0  0.52200  0.75292  0.78771  1.0000
  C   C450      1.0  0.52974  0.75732  0.75433  1.0000
  C   C451      1.0  0.51470  0.75765  0.72625  1.0000
  H   H445      1.0  0.46643  0.74627  0.76872  1.0000
  H   H446      1.0  0.49289  0.74537  0.81826  1.0000
  H   H447      1.0  0.54730  0.76045  0.75014  1.0000
  H   H448      1.0  0.52087  0.76116  0.70055  1.0000
  H   H449      1.0  0.47541  0.79694  0.79263  1.0000
  C   C452      1.0  0.61051  0.76659  0.98163  1.0000
  C   C453      1.0  0.58915  0.75759  0.98337  1.0000
  C   C454      1.0  0.35599  0.83374  0.68172  1.0000
  H   H450      1.0  0.58072  0.75304  0.95987  1.0000
  N   N35       1.0  0.35675  0.80673  0.59267  1.0000
  C   C455      1.0  0.39584  0.74246  0.54291  1.0000
  H   H451      1.0  0.63391  0.81840  0.86958  1.0000
  H   H452      1.0  0.42813  0.75158  0.56195  1.0000
  H   H453      1.0  0.57401  0.68724  0.72214  1.0000
  H   H454      1.0  0.36174  0.86908  0.67225  1.0000
  C   C456      1.0  0.57093  0.68923  0.74955  1.0000
  C   C457      1.0  0.56358  0.69447  0.81967  1.0000
  C   C458      1.0  0.54630  0.69845  0.79588  1.0000
  H   H455      1.0  0.60505  0.67954  0.76346  1.0000
  C   C459      1.0  0.41792  0.74935  0.53928  1.0000
  C   C460      1.0  0.66608  0.84708  0.79071  1.0000
  C   C461      1.0  0.58484  0.68763  0.80793  1.0000
  H   H456      1.0  0.52750  0.68416  0.72384  1.0000
  H   H457      1.0  0.59850  0.68470  0.82606  1.0000
  N   N36       1.0  0.43061  0.82239  0.75309  1.0000
  C   C462      1.0  0.44328  0.81247  0.77879  1.0000
  C   C463      1.0  0.43903  0.82405  0.72032  1.0000
  C   C464      1.0  0.46533  0.80486  0.77232  1.0000
  C   C465      1.0  0.46088  0.81633  0.71286  1.0000
  C   C466      1.0  0.65692  0.85537  0.87640  1.0000
  C   C467      1.0  0.40746  0.83007  0.76022  1.0000
  H   H458      1.0  0.43636  0.81030  0.80444  1.0000
  H   H459      1.0  0.42882  0.83123  0.69965  1.0000
  C   C468      1.0  0.47418  0.80702  0.73918  1.0000
  H   H460      1.0  0.65383  0.85812  0.77798  1.0000
  H   H461      1.0  0.38595  0.78479  0.58962  1.0000
  H   H462      1.0  0.39580  0.81628  0.75467  1.0000
  H   H463      1.0  0.40525  0.83532  0.78748  1.0000
  H   H464      1.0  0.40251  0.84486  0.74369  1.0000
  H   H465      1.0  0.35946  0.84259  0.59334  1.0000
  C   C469      1.0  0.58855  0.68488  0.77268  1.0000
  H   H466      1.0  0.52994  0.70409  0.80534  1.0000
  S   S160      1.0  0.36498  0.72863  0.75479  1.0000
  H   H467      1.0  0.53715  0.71256  0.71643  1.0000
  N   N37       1.0  0.55015  0.69600  0.76129  1.0000
  H   H468      1.0  0.64098  0.85857  0.86356  1.0000
  H   H469      1.0  0.46736  0.81715  0.68672  1.0000
  C   C470      1.0  0.65628  0.68276  0.71628  1.0000
  H   H470      1.0  0.65014  0.68776  0.69102  1.0000
  C   C471      1.0  0.64417  0.81791  0.89349  1.0000
  C   C472      1.0  0.34283  0.78887  0.59567  1.0000
  H   H471      1.0  0.34261  0.71144  0.66957  1.0000
  C   C473      1.0  0.34925  0.85652  0.67662  1.0000
  H   H472      1.0  0.36582  0.73410  0.51562  1.0000
  C   C474      1.0  0.33973  0.81768  0.68755  1.0000
  H   H473      1.0  0.65176  0.80055  0.89557  1.0000
  H   H474      1.0  0.63301  0.82072  0.91613  1.0000
  H   H475      1.0  0.34943  0.77162  0.59344  1.0000
  N   N38       1.0  0.66143  0.83499  0.89228  1.0000
  H   H476      1.0  0.66974  0.88789  0.86187  1.0000
  C   C475      1.0  0.67245  0.66500  0.71919  1.0000
  H   H477      1.0  0.67215  0.79376  0.82338  1.0000
  Fe  Fe81      1.0  0.79178  0.13044  0.30334  1.0000
  S   S161      1.0  0.76232  0.12116  0.27085  1.0000
  S   S162      1.0  0.82491  0.13560  0.27563  1.0000
  Fe  Fe82      1.0  0.76429  0.12905  0.37052  1.0000
  S   S163      1.0  0.73291  0.11997  0.34228  1.0000
  S   S164      1.0  0.76397  0.14064  0.42669  1.0000
  Fe  Fe83      1.0  0.75548  0.09549  0.31227  1.0000
  S   S165      1.0  0.74279  0.05967  0.30380  1.0000
  Fe  Fe84      1.0  0.74264  0.14623  0.30332  1.0000
  S   S166      1.0  0.72198  0.17379  0.27571  1.0000
  S   S167      1.0  0.78632  0.10307  0.34327  1.0000
  S   S168      1.0  0.77259  0.15695  0.33295  1.0000
  Fe  Fe85      1.0  0.71424  0.40474  0.18110  1.0000
  S   S169      1.0  0.73882  0.40482  0.22420  1.0000
  H   H478      1.0  0.99010  0.25471  0.30988  1.0000
  Fe  Fe86      1.0  0.74804  0.42388  0.12989  1.0000
  S   S170      1.0  0.77520  0.42499  0.17058  1.0000
  S   S171      1.0  0.75832  0.43518  0.07574  1.0000
  Fe  Fe87      1.0  0.76358  0.39051  0.18591  1.0000
  S   S172      1.0  0.78123  0.35758  0.20212  1.0000
  Fe  Fe88      1.0  0.74792  0.43949  0.20524  1.0000
  S   S173      1.0  0.75072  0.46484  0.24952  1.0000
  S   S174      1.0  0.73832  0.38849  0.14332  1.0000
  S   S175      1.0  0.72146  0.44039  0.16387  1.0000
  Fe  Fe89      1.0  0.88552  0.24483  0.19969  1.0000
  S   S176      1.0  0.90534  0.27564  0.21220  1.0000
  S   S177      1.0  0.86251  0.23306  0.24273  1.0000
  Fe  Fe90      1.0  0.89940  0.24610  0.12361  1.0000
  S   S178      1.0  0.91994  0.27665  0.13098  1.0000
  S   S179      1.0  0.89536  0.22829  0.07216  1.0000
  Fe  Fe91      1.0  0.93276  0.25975  0.17980  1.0000
  S   S180      1.0  0.97089  0.26236  0.18583  1.0000
  Fe  Fe92      1.0  0.89099  0.28991  0.16290  1.0000
  S   S181      1.0  0.87971  0.32658  0.15565  1.0000
  S   S182      1.0  0.91399  0.22779  0.17032  1.0000
  S   S183      1.0  0.86947  0.26046  0.15234  1.0000
  C   C476      1.0  0.89945  0.24141  0.03131  1.0000
  C   C477      1.0  0.90733  0.26336  0.02839  1.0000
  H   H479      1.0  0.74986  0.33036  0.24595  1.0000
  H   H480      1.0  0.90972  0.27323  0.05135  1.0000
  H   H481      1.0  0.95956  0.26125  0.01476  1.0000
  C   C478      1.0  0.81946  0.11934  0.42223  1.0000
  C   C479      1.0  0.98915  0.26087  0.22228  1.0000
  C   C480      1.0  0.98131  0.25750  0.25593  1.0000
  H   H482      1.0  0.71284  0.08722  0.26462  1.0000
  N   N39       1.0  0.94671  0.32211  0.20815  1.0000
  H   H483      1.0  0.96364  0.25510  0.26038  1.0000
  C   C481      1.0  0.74548  0.42881  0.03592  1.0000
  C   C482      1.0  0.74959  0.49498  0.25050  1.0000
  H   H484      1.0  0.69064  0.28846  0.29234  1.0000
  C   C483      1.0  0.91056  0.33435  0.22968  1.0000
  H   H485      1.0  0.71664  0.41314  0.05787  1.0000
  C   C484      1.0  0.80845  0.34925  0.18808  1.0000
  C   C485      1.0  0.81678  0.32738  0.19634  1.0000
  C   C486      1.0  0.83846  0.32016  0.18611  1.0000
  C   C487      1.0  0.85208  0.33485  0.16775  1.0000
  C   C488      1.0  0.84379  0.35674  0.15952  1.0000
  C   C489      1.0  0.82199  0.36390  0.16946  1.0000
  H   H486      1.0  0.80643  0.31599  0.21082  1.0000
  H   H487      1.0  0.84471  0.30331  0.19272  1.0000
  H   H488      1.0  0.85427  0.36821  0.14543  1.0000
  H   H489      1.0  0.81578  0.38081  0.16314  1.0000
  C   C490      1.0  0.94656  0.20455  0.06591  1.0000
  H   H490      1.0  0.81324  0.13514  0.40917  1.0000
  H   H491      1.0  0.72902  0.01380  0.29617  1.0000
  C   C491      1.0  0.68761  0.36913  0.25113  1.0000
  H   H492      1.0  0.95611  0.30931  0.15927  1.0000
  H   H493      1.0  0.70343  0.37744  0.25154  1.0000
  C   C492      1.0  0.83611  0.16259  0.26800  1.0000
  C   C493      1.0  0.82766  0.18186  0.28487  1.0000
  C   C494      1.0  0.83643  0.20316  0.27741  1.0000
  C   C495      1.0  0.85339  0.20554  0.25255  1.0000
  C   C496      1.0  0.86197  0.18627  0.23577  1.0000
  C   C497      1.0  0.85350  0.16485  0.24377  1.0000
  H   H494      1.0  0.81443  0.18034  0.30376  1.0000
  H   H495      1.0  0.82984  0.21795  0.29075  1.0000
  H   H496      1.0  0.87513  0.18785  0.21674  1.0000
  H   H497      1.0  0.86021  0.14999  0.23075  1.0000
  C   C498      1.0  0.76861  0.10205  0.46805  1.0000
  C   C499      1.0  0.76389  0.12535  0.46628  1.0000
  H   H498      1.0  0.67472  0.30888  0.20702  1.0000
  H   H499      1.0  0.77067  0.09246  0.44456  1.0000
  H   H500      1.0  0.92245  0.34099  0.17844  1.0000
  C   C500      1.0  0.69777  0.18679  0.29449  1.0000
  H   H501      1.0  0.96587  0.22165  0.14355  1.0000
  C   C501      1.0  0.96396  0.26307  0.04248  1.0000
  N   N40       1.0  0.68814  0.45454  0.24596  1.0000
  H   H502      1.0  0.69540  0.16315  0.33671  1.0000
  H   H503      1.0  0.68111  0.43501  0.29057  1.0000
  H   H504      1.0  0.96743  0.30269  0.24288  1.0000
  C   C502      1.0  0.75070  0.03829  0.27332  1.0000
  C   C503      1.0  0.95157  0.31181  0.23910  1.0000
  C   C504      1.0  0.74879  0.50824  0.22047  1.0000
  C   C505      1.0  0.76603  0.04203  0.24667  1.0000
  H   H505      1.0  0.94801  0.18885  0.11623  1.0000
  C   C506      1.0  0.70320  0.32904  0.19620  1.0000
  H   H506      1.0  0.77378  0.05825  0.24439  1.0000
  H   H507      1.0  0.78326  0.02786  0.20234  1.0000
  N   N41       1.0  0.68546  0.09534  0.29836  1.0000
  H   H508      1.0  0.69990  0.51012  0.24286  1.0000
  C   C507      1.0  0.95091  0.22410  0.04681  1.0000
  C   C508      1.0  0.95193  0.20363  0.10090  1.0000
  H   H509      1.0  0.75741  0.15551  0.49602  1.0000
  H   H510      1.0  0.68022  0.15212  0.24851  1.0000
  C   C509      1.0  0.68091  0.49268  0.20459  1.0000
  C   C510      1.0  0.99639  0.25727  0.28400  1.0000
  C   C511      1.0  0.68753  0.20572  0.27809  1.0000
  C   C512      1.0  0.69977  0.09954  0.27158  1.0000
  C   C513      1.0  0.68809  0.28666  0.26408  1.0000
  H   H511      1.0  0.69518  0.21280  0.25530  1.0000
  C   C514      1.0  0.69282  0.49421  0.23534  1.0000
  C   C515      1.0  0.69137  0.31317  0.21535  1.0000
  C   C516      1.0  0.82489  0.10308  0.47991  1.0000
  C   C517      1.0  0.72116  0.30964  0.25574  1.0000
  C   C518      1.0  0.92654  0.33327  0.20323  1.0000
  C   C519      1.0  0.96576  0.24142  0.09647  1.0000
  H   H512      1.0  0.77606  0.07342  0.50153  1.0000
  C   C520      1.0  0.74088  0.01697  0.27570  1.0000
  H   H513      1.0  0.69373  0.26941  0.25614  1.0000
  H   H514      1.0  0.94592  0.22492  0.01991  1.0000
  H   H515      1.0  0.98183  0.26762  0.04395  1.0000
  H   H516      1.0  0.80763  0.10598  0.41528  1.0000
  C   C521      1.0  0.74912  0.50590  0.28268  1.0000
  N   N42       1.0  0.80281  0.21234  0.21064  1.0000
  C   C522      1.0  0.81455  0.19693  0.19091  1.0000
  C   C523      1.0  0.78591  0.20551  0.23185  1.0000
  C   C524      1.0  0.80963  0.17397  0.19244  1.0000
  C   C525      1.0  0.78058  0.18267  0.23403  1.0000
  C   C526      1.0  0.79261  0.16683  0.21429  1.0000
  C   C527      1.0  0.80834  0.23632  0.20957  1.0000
  H   H517      1.0  0.82836  0.20220  0.17478  1.0000
  H   H518      1.0  0.77678  0.21762  0.24785  1.0000
  H   H519      1.0  0.81957  0.16165  0.17792  1.0000
  H   H520      1.0  0.76760  0.17722  0.25158  1.0000
  H   H521      1.0  0.78931  0.14895  0.21683  1.0000
  H   H522      1.0  0.81239  0.24221  0.23594  1.0000
  H   H523      1.0  0.82343  0.23935  0.19345  1.0000
  H   H524      1.0  0.79409  0.24668  0.19898  1.0000
  C   C528      1.0  0.68765  0.17765  0.32378  1.0000
  H   H525      1.0  0.93811  0.19067  0.05397  1.0000
  H   H526      1.0  0.83638  0.11482  0.41195  1.0000
  H   H527      1.0  0.81148  0.15704  0.45883  1.0000
  H   H528      1.0  0.70593  0.47606  0.27941  1.0000
  H   H529      1.0  0.93975  0.30398  0.29038  1.0000
  C   C529      1.0  0.68145  0.13601  0.26214  1.0000
  C   C530      1.0  0.77163  0.09130  0.50040  1.0000
  N   N43       1.0  0.82022  0.12176  0.45982  1.0000
  H   H530      1.0  0.69385  0.35132  0.29907  1.0000
  C   C531      1.0  0.81597  0.14239  0.47467  1.0000
  H   H531      1.0  0.74966  0.49583  0.30611  1.0000
  S   S184      1.0  0.67921  0.39147  0.18905  1.0000
  C   C532      1.0  0.77138  0.02470  0.22280  1.0000
  N   N44       1.0  0.96025  0.24227  0.06223  1.0000
  H   H532      1.0  0.97293  0.25589  0.10889  1.0000
  C   C533      1.0  0.76107  0.13748  0.49715  1.0000
  H   H533      1.0  0.90284  0.32414  0.28170  1.0000
  N   N45       1.0  0.78377  0.38375  0.01586  1.0000
  H   H534      1.0  0.82769  0.08665  0.46818  1.0000
  H   H535      1.0  0.70975  0.12353  0.23255  1.0000
  H   H536      1.0  0.73359  0.34773  0.19300  1.0000
  H   H537      1.0  0.96540  0.33755  0.16813  1.0000
  C   C534      1.0  0.69802  0.11995  0.25315  1.0000
  C   C535      1.0  0.68216  0.35421  0.27808  1.0000
  C   C536      1.0  0.72513  0.41780  0.03428  1.0000
  H   H538      1.0  0.97925  0.31323  0.18777  1.0000
  H   H539      1.0  0.72825  0.30227  0.27913  1.0000
  H   H540      1.0  0.69378  0.06000  0.30135  1.0000
  H   H541      1.0  0.68948  0.41863  0.25341  1.0000
  H   H542      1.0  0.75031  0.37201  0.01637  1.0000
  N   N46       1.0  0.70035  0.30380  0.24484  1.0000
  H   H543      1.0  0.74911  0.50014  0.19554  1.0000
  C   C537      1.0  0.73345  0.32546  0.23718  1.0000
  C   C538      1.0  0.68814  0.07424  0.31823  1.0000
  H   H544      1.0  0.70105  0.07620  0.33853  1.0000
  C   C539      1.0  0.69235  0.43449  0.26773  1.0000
  C   C540      1.0  0.96179  0.22208  0.11626  1.0000
  C   C541      1.0  0.72436  0.33519  0.20726  1.0000
  C   C542      1.0  0.69616  0.47488  0.25594  1.0000
  H   H545      1.0  0.89430  0.34265  0.22515  1.0000
  C   C543      1.0  0.91533  0.32388  0.26130  1.0000
  C   C544      1.0  0.96270  0.32054  0.17945  1.0000
  H   H546      1.0  0.76878  0.38516  0.06612  1.0000
  H   H547      1.0  0.69572  0.33712  0.17356  1.0000
  C   C545      1.0  0.93598  0.31255  0.26614  1.0000
  H   H548      1.0  0.71012  0.43370  0.27643  1.0000
  C   C546      1.0  0.67584  0.45302  0.21637  1.0000
  H   H549      1.0  0.79417  0.39981  0.06188  1.0000
  C   C547      1.0  0.78557  0.38435  0.05356  1.0000
  H   H550      1.0  0.79505  0.36913  0.06323  1.0000
  H   H551      1.0  0.95322  0.27712  0.05296  1.0000
  H   H552      1.0  0.67858  0.50746  0.18807  1.0000
  C   C548      1.0  0.67272  0.37301  0.22377  1.0000
  Fe  Fe93      1.0  0.77075  0.10459  0.62450  1.0000
  S   S185      1.0  0.74384  0.08984  0.65785  1.0000
  S   S186      1.0  0.77738  0.09019  0.57079  1.0000
  Fe  Fe94      1.0  0.78443  0.13775  0.68099  1.0000
  S   S187      1.0  0.75799  0.12574  0.71787  1.0000
  S   S188      1.0  0.80773  0.16747  0.68677  1.0000
  Fe  Fe95      1.0  0.76882  0.09035  0.70109  1.0000
  S   S189      1.0  0.77455  0.06368  0.74394  1.0000
  Fe  Fe96      1.0  0.73523  0.12605  0.67165  1.0000
  S   S190      1.0  0.69851  0.13699  0.66614  1.0000
  S   S191      1.0  0.79668  0.10256  0.66687  1.0000
  S   S192      1.0  0.76067  0.14057  0.63573  1.0000
  Fe  Fe97      1.0  0.72947  0.38798  0.80878  1.0000
  S   S193      1.0  0.75827  0.40755  0.78742  1.0000
  S   S194      1.0  0.71835  0.35604  0.78189  1.0000
  Fe  Fe98      1.0  0.73041  0.41346  0.87842  1.0000
  S   S195      1.0  0.75876  0.43503  0.86167  1.0000
  S   S196      1.0  0.71352  0.41279  0.93122  1.0000
  Fe  Fe99      1.0  0.74073  0.43853  0.81046  1.0000
  S   S197      1.0  0.72944  0.47097  0.78083  1.0000
  Fe  Fe100     1.0  0.77379  0.40245  0.83997  1.0000
  S   S198      1.0  0.80795  0.38867  0.85741  1.0000
  S   S199      1.0  0.71098  0.41880  0.82905  1.0000
  S   S200      1.0  0.74626  0.38111  0.85968  1.0000
  Fe  Fe101     1.0  0.92674  0.25179  0.79840  1.0000
  S   S201      1.0  0.91761  0.22913  0.84311  1.0000
  S   S202      1.0  0.95450  0.24305  0.75884  1.0000
  Fe  Fe102     1.0  0.88350  0.28164  0.80818  1.0000
  S   S203      1.0  0.87165  0.26118  0.85324  1.0000
  S   S204      1.0  0.86183  0.30868  0.78125  1.0000
  Fe  Fe103     1.0  0.90756  0.26131  0.87090  1.0000
  S   S205      1.0  0.91773  0.27168  0.92524  1.0000
  Fe  Fe104     1.0  0.88238  0.23086  0.82177  1.0000
  S   S206      1.0  0.86083  0.19980  0.81912  1.0000
  S   S207      1.0  0.91895  0.28406  0.82719  1.0000
  S   S208      1.0  0.89200  0.25121  0.77564  1.0000
  H   H553      1.0  0.81457  0.39381  0.94403  1.0000
  C   C549      1.0  0.99427  0.26178  0.78164  1.0000
  C   C550      1.0  0.98352  0.24943  0.75627  1.0000
  C   C551      1.0  0.70821  0.04762  0.71229  1.0000
  H   H554      1.0  0.77340  0.49209  0.78753  1.0000
  H   H555      1.0  0.98503  0.26723  0.80431  1.0000
  C   C552      1.0  0.70881  0.47966  0.86296  1.0000
  C   C553      1.0  0.82245  0.36620  0.83605  1.0000
  C   C554      1.0  0.81842  0.36137  0.80141  1.0000
  C   C555      1.0  0.83074  0.34381  0.78496  1.0000
  C   C556      1.0  0.84694  0.33068  0.80307  1.0000
  C   C557      1.0  0.85074  0.33528  0.83787  1.0000
  C   C558      1.0  0.83869  0.35311  0.85415  1.0000
  H   H556      1.0  0.80616  0.37148  0.78708  1.0000
  H   H557      1.0  0.82775  0.34041  0.75801  1.0000
  H   H558      1.0  0.86323  0.32537  0.85206  1.0000
  H   H559      1.0  0.84207  0.35684  0.88088  1.0000
  H   H560      1.0  0.71428  0.19282  0.63734  1.0000
  C   C559      1.0  0.80167  0.38968  0.99600  1.0000
  C   C560      1.0  0.68888  0.21905  0.63114  1.0000
  H   H561      1.0  0.89008  0.21194  0.00302  1.0000
  C   C561      1.0  0.90933  0.25995  0.96543  1.0000
  C   C562      1.0  0.90093  0.23819  0.96828  1.0000
  C   C563      1.0  0.95365  0.30231  0.74440  1.0000
  H   H562      1.0  0.89851  0.22833  0.94528  1.0000
  C   C564      1.0  0.74686  0.42975  0.97273  1.0000
  C   C565      1.0  0.72638  0.41895  0.97111  1.0000
  H   H563      1.0  0.67920  0.34160  0.63394  1.0000
  H   H564      1.0  0.75544  0.43425  0.94916  1.0000
  H   H565      1.0  0.81950  0.12677  0.55919  1.0000
  C   C566      1.0  0.69163  0.35060  0.76427  1.0000
  H   H566      1.0  0.82743  0.08965  0.53190  1.0000
  H   H567      1.0  0.70034  0.31547  0.75526  1.0000
  H   H568      1.0  0.89212  0.13026  0.78512  1.0000
  C   C567      1.0  0.82061  0.17726  0.72485  1.0000
  C   C568      1.0  0.81929  0.16564  0.75630  1.0000
  C   C569      1.0  0.83093  0.17335  0.78534  1.0000
  C   C570      1.0  0.84410  0.19262  0.78323  1.0000
  C   C571      1.0  0.84489  0.20462  0.75205  1.0000
  C   C572      1.0  0.83328  0.19691  0.72301  1.0000
  H   H569      1.0  0.80952  0.15058  0.75815  1.0000
  H   H570      1.0  0.83003  0.16406  0.80944  1.0000
  H   H571      1.0  0.85490  0.21948  0.75001  1.0000
  H   H572      1.0  0.83432  0.20606  0.69882  1.0000
  H   H573      1.0  0.71649  0.07063  0.81686  1.0000
  H   H574      1.0  0.73799  0.47896  0.95165  1.0000
  N   N47       1.0  0.72103  0.05223  0.77045  1.0000
  C   C573      1.0  0.69804  0.17512  0.70718  1.0000
  H   H575      1.0  0.86524  0.13947  0.76790  1.0000
  C   C574      1.0  0.99594  0.24251  0.72701  1.0000
  H   H576      1.0  0.71439  0.16937  0.71629  1.0000
  C   C575      1.0  0.77053  0.03390  0.74608  1.0000
  H   H577      1.0  0.91880  0.28935  0.99374  1.0000
  C   C576      1.0  0.89582  0.18774  0.71530  1.0000
  C   C577      1.0  0.67401  0.19329  0.57685  1.0000
  H   H578      1.0  0.89074  0.19289  0.68950  1.0000
  H   H579      1.0  0.75320  0.49523  0.64991  1.0000
  H   H580      1.0  0.75893  0.03030  0.69400  1.0000
  C   C578      1.0  0.76970  0.10363  0.53123  1.0000
  C   C579      1.0  0.68746  0.32866  0.75265  1.0000
  C   C580      1.0  0.76384  0.12669  0.52947  1.0000
  H   H581      1.0  0.74422  0.05768  0.81074  1.0000
  H   H582      1.0  0.76239  0.13639  0.55293  1.0000
  H   H583      1.0  0.87418  0.15031  0.80830  1.0000
  C   C581      1.0  0.70366  0.16448  0.58660  1.0000
  C   C582      1.0  0.76197  0.50393  0.77464  1.0000
  H   H584      1.0  0.73642  0.08250  0.78703  1.0000
  H   H585      1.0  0.91147  0.17063  0.80855  1.0000
  C   C583      1.0  0.96128  0.29349  0.71310  1.0000
  H   H586      1.0  0.98784  0.23297  0.70715  1.0000
  C   C584      1.0  0.70907  0.01588  0.75183  1.0000
  C   C585      1.0  0.82051  0.12558  0.53128  1.0000
  C   C586      1.0  0.99009  0.31778  0.75351  1.0000
  H   H587      1.0  0.81185  0.16077  0.52234  1.0000
  H   H588      1.0  0.67502  0.45313  0.85873  1.0000
  H   H589      1.0  0.70856  0.16417  0.55894  1.0000
  C   C587      1.0  0.76209  0.02179  0.71839  1.0000
  N   N48       1.0  0.78637  0.31368  0.80769  1.0000
  C   C588      1.0  0.79926  0.30813  0.83584  1.0000
  C   C589      1.0  0.78782  0.30090  0.77846  1.0000
  C   C590      1.0  0.81447  0.28963  0.83489  1.0000
  C   C591      1.0  0.80293  0.28234  0.77657  1.0000
  C   C592      1.0  0.81635  0.27674  0.80499  1.0000
  C   C593      1.0  0.77023  0.33285  0.80933  1.0000
  H   H590      1.0  0.79829  0.31839  0.85889  1.0000
  H   H591      1.0  0.77742  0.30519  0.75631  1.0000
  H   H592      1.0  0.82518  0.28571  0.85683  1.0000
  H   H593      1.0  0.80447  0.27250  0.75314  1.0000
  H   H594      1.0  0.82848  0.26268  0.80362  1.0000
  H   H595      1.0  0.75355  0.32701  0.81775  1.0000
  H   H596      1.0  0.77588  0.34593  0.82748  1.0000
  H   H597      1.0  0.76828  0.34135  0.78376  1.0000
  C   C594      1.0  0.70001  0.19875  0.62208  1.0000
  C   C595      1.0  0.72913  0.49054  0.86666  1.0000
  H   H598      1.0  0.72155  0.02267  0.80241  1.0000
  H   H599      1.0  0.92044  0.21353  0.72035  1.0000
  H   H600      1.0  0.93102  0.20192  0.77974  1.0000
  C   C596      1.0  0.75191  0.50980  0.66775  1.0000
  C   C597      1.0  0.71730  0.02994  0.77739  1.0000
  H   H601      1.0  0.70526  0.05466  0.68670  1.0000
  N   N49       1.0  0.69247  0.18614  0.59528  1.0000
  C   C598      1.0  0.91828  0.19288  0.76607  1.0000
  C   C599      1.0  0.68671  0.16239  0.68298  1.0000
  H   H602      1.0  0.87226  0.16111  0.71850  1.0000
  C   C600      1.0  0.91236  0.19934  0.73258  1.0000
  C   C601      1.0  0.88019  0.14493  0.78233  1.0000
  H   H603      1.0  0.98932  0.28960  0.67864  1.0000
  H   H604      1.0  0.78138  0.03144  0.79904  1.0000
  C   C602      1.0  0.70459  0.02480  0.71905  1.0000
  H   H605      1.0  0.93671  0.29923  0.75315  1.0000
  N   N50       1.0  0.69947  0.46863  0.89032  1.0000
  C   C603      1.0  0.89617  0.22894  0.00108  1.0000
  C   C604      1.0  0.80049  0.38893  0.95995  1.0000
  C   C605      1.0  0.67812  0.45737  0.88617  1.0000
  H   H606      1.0  0.71974  0.07877  0.73275  1.0000
  H   H607      1.0  0.71905  0.16120  0.60218  1.0000
  C   C606      1.0  0.70947  0.46881  0.92203  1.0000
  H   H608      1.0  0.95034  0.28336  0.69766  1.0000
  H   H609      1.0  0.69228  0.15036  0.59216  1.0000
  C   C607      1.0  0.81611  0.14462  0.51060  1.0000
  H   H610      1.0  0.69443  0.22863  0.65313  1.0000
  C   C608      1.0  0.73989  0.49785  0.76838  1.0000
  C   C609      1.0  0.68794  0.19511  0.72030  1.0000
  C   C610      1.0  0.98339  0.29693  0.70267  1.0000
  C   C611      1.0  0.78090  0.38192  0.94436  1.0000
  C   C612      1.0  0.72986  0.47942  0.92662  1.0000
  C   C613      1.0  0.91243  0.27246  0.99568  1.0000
  H   H611      1.0  0.77971  0.38156  0.91648  1.0000
  C   C614      1.0  0.75625  0.43479  0.00498  1.0000
  H   H612      1.0  0.69661  0.20463  0.73960  1.0000
  N   N51       1.0  0.89114  0.16374  0.76496  1.0000
  C   C615      1.0  0.90734  0.17503  0.78205  1.0000
  C   C616      1.0  0.88545  0.16973  0.73187  1.0000
  C   C617      1.0  0.71641  0.06120  0.73849  1.0000
  C   C618      1.0  0.72981  0.06651  0.79772  1.0000
  H   H613      1.0  0.74732  0.37068  0.95276  1.0000
  C   C619      1.0  0.77466  0.02236  0.77749  1.0000
  H   H614      1.0  0.70193  0.46026  0.94383  1.0000
  C   C620      1.0  0.73978  0.49025  0.89865  1.0000
  H   H615      1.0  0.96232  0.32129  0.78934  1.0000
  H   H616      1.0  0.73669  0.49883  0.84462  1.0000
  C   C621      1.0  0.67479  0.36748  0.76080  1.0000
  H   H617      1.0  0.70075  0.47986  0.83790  1.0000
  H   H618      1.0  0.69892  0.01389  0.69870  1.0000
  H   H619      1.0  0.75938  0.50441  0.69290  1.0000
  C   C622      1.0  0.82501  0.10468  0.51591  1.0000
  H   H620      1.0  0.75572  0.49832  0.90166  1.0000
  H   H621      1.0  0.67828  0.44110  0.90080  1.0000
  C   C623      1.0  0.96808  0.31460  0.76476  1.0000
  H   H622      1.0  0.70823  0.50919  0.74657  1.0000
  H   H623      1.0  0.67778  0.38444  0.76954  1.0000
  C   C624      1.0  0.76283  0.37561  0.96476  1.0000
  H   H624      1.0  0.69967  0.40480  0.00103  1.0000
  C   C625      1.0  0.71555  0.41310  0.00202  1.0000
  H   H625      1.0  0.77203  0.44326  0.00602  1.0000
  C   C626      1.0  0.76460  0.37653  0.00072  1.0000
  N   N52       1.0  0.99754  0.30873  0.72302  1.0000
  H   H626      1.0  0.81694  0.39519  0.00800  1.0000
  H   H627      1.0  0.00129  0.32716  0.76962  1.0000
  Fe  Fe105     1.0  0.72686  0.90768  0.17356  1.0000
  S   S209      1.0  0.75362  0.88171  0.16069  1.0000
  S   S210      1.0  0.68981  0.89976  0.17364  1.0000
  Fe  Fe106     1.0  0.76073  0.94485  0.18684  1.0000
  S   S211      1.0  0.79001  0.92076  0.17514  1.0000
  S   S212      1.0  0.76895  0.98230  0.19390  1.0000
  Fe  Fe107     1.0  0.76941  0.90945  0.13010  1.0000
  S   S213      1.0  0.78669  0.90128  0.07896  1.0000
  Fe  Fe108     1.0  0.77176  0.89507  0.20656  1.0000
  S   S214      1.0  0.78327  0.86823  0.24580  1.0000
  S   S215      1.0  0.74133  0.93480  0.13964  1.0000
  S   S216      1.0  0.74384  0.91976  0.22155  1.0000
  Fe  Fe109     1.0  0.73209  0.64839  0.31251  1.0000
  S   S217      1.0  0.76124  0.63276  0.28358  1.0000
  S   S218      1.0  0.71570  0.68167  0.29422  1.0000
  Fe  Fe110     1.0  0.73846  0.61545  0.37346  1.0000
  S   S219      1.0  0.76795  0.59714  0.34864  1.0000
  S   S220      1.0  0.72210  0.60687  0.42505  1.0000
  Fe  Fe111     1.0  0.77921  0.63211  0.33422  1.0000
  S   S221      1.0  0.81552  0.64114  0.34294  1.0000
  Fe  Fe112     1.0  0.74768  0.59898  0.29968  1.0000
  S   S222      1.0  0.74738  0.57313  0.25576  1.0000
  S   S223      1.0  0.75117  0.65002  0.36244  1.0000
  S   S224      1.0  0.71706  0.61498  0.32529  1.0000
  Fe  Fe113     1.0  0.89586  0.77783  0.37726  1.0000
  S   S225      1.0  0.91040  0.74617  0.35268  1.0000
  S   S226      1.0  0.88282  0.78277  0.43225  1.0000
  Fe  Fe114     1.0  0.89257  0.80311  0.30778  1.0000
  S   S227      1.0  0.90715  0.77350  0.27837  1.0000
  S   S228      1.0  0.88369  0.83585  0.27908  1.0000
  Fe  Fe115     1.0  0.88443  0.75249  0.31137  1.0000
  S   S229      1.0  0.86158  0.72893  0.28283  1.0000
  Fe  Fe116     1.0  0.93204  0.76986  0.32156  1.0000
  S   S230      1.0  0.96988  0.76206  0.31670  1.0000
  S   S231      1.0  0.86842  0.78252  0.33765  1.0000
  S   S232      1.0  0.91902  0.80106  0.34917  1.0000
  C   C627      1.0  0.89639  0.77880  0.47264  1.0000
  C   C628      1.0  0.68909  0.88163  0.25787  1.0000
  H   H628      1.0  0.71211  0.70029  0.36683  1.0000
  C   C629      1.0  0.80991  0.54145  0.31627  1.0000
  H   H629      1.0  0.92851  0.76805  0.45218  1.0000
  C   C630      1.0  0.98973  0.76778  0.28337  1.0000
  C   C631      1.0  0.98329  0.77634  0.25100  1.0000
  C   C632      1.0  0.81814  0.56091  0.33115  1.0000
  H   H630      1.0  0.89890  0.86770  0.33579  1.0000
  H   H631      1.0  0.96581  0.78047  0.24599  1.0000
  H   H632      1.0  0.70494  0.82691  0.26733  1.0000
  H   H633      1.0  0.99429  0.78619  0.20007  1.0000
  C   C633      1.0  0.73485  0.60971  0.46613  1.0000
  C   C634      1.0  0.74783  0.53208  0.22270  1.0000
  C   C635      1.0  0.75754  0.61440  0.46954  1.0000
  N   N53       1.0  0.79532  0.95996  0.04788  1.0000
  H   H634      1.0  0.76778  0.61652  0.44675  1.0000
  C   C636      1.0  0.82668  0.66691  0.32797  1.0000
  C   C637      1.0  0.81837  0.67791  0.29837  1.0000
  C   C638      1.0  0.82903  0.69710  0.28520  1.0000
  C   C639      1.0  0.84765  0.70590  0.30203  1.0000
  C   C640      1.0  0.85552  0.69534  0.33227  1.0000
  C   C641      1.0  0.84530  0.67572  0.34482  1.0000
  H   H635      1.0  0.80413  0.67128  0.28505  1.0000
  H   H636      1.0  0.82285  0.70508  0.26175  1.0000
  H   H637      1.0  0.86976  0.70195  0.34559  1.0000
  H   H638      1.0  0.85184  0.66731  0.36772  1.0000
  C   C642      1.0  0.74748  0.54300  0.25485  1.0000
  C   C643      1.0  0.74797  0.52974  0.28490  1.0000
  C   C644      1.0  0.97532  0.70574  0.31790  1.0000
  N   N54       1.0  0.81032  0.58173  0.27883  1.0000
  H   H639      1.0  0.74772  0.53784  0.30983  1.0000
  H   H640      1.0  0.73241  0.88064  0.27417  1.0000
  H   H641      1.0  0.90342  0.82853  0.46470  1.0000
  C   C645      1.0  0.81136  0.86027  0.25571  1.0000
  C   C646      1.0  0.81549  0.84189  0.27825  1.0000
  C   C647      1.0  0.83753  0.83431  0.28577  1.0000
  C   C648      1.0  0.85571  0.84517  0.27096  1.0000
  C   C649      1.0  0.85161  0.86376  0.24880  1.0000
  C   C650      1.0  0.82952  0.87123  0.24102  1.0000
  H   H642      1.0  0.80153  0.83333  0.28975  1.0000
  H   H643      1.0  0.84043  0.82002  0.30292  1.0000
  H   H644      1.0  0.86558  0.87235  0.23737  1.0000
  H   H645      1.0  0.82656  0.88547  0.22374  1.0000
  C   C651      1.0  0.77478  0.90749  0.03791  1.0000
  C   C652      1.0  0.80233  0.54220  0.28227  1.0000
  C   C653      1.0  0.75613  0.92220  0.03419  1.0000
  C   C654      1.0  0.95631  0.71969  0.26521  1.0000
  H   H646      1.0  0.74761  0.92874  0.05684  1.0000
  H   H647      1.0  0.70937  0.65345  0.45173  1.0000
  H   H648      1.0  0.67389  0.61768  0.41657  1.0000
  H   H649      1.0  0.73865  0.98333  0.25426  1.0000
  C   C655      1.0  0.70189  0.66065  0.42845  1.0000
  C   C656      1.0  0.68970  0.68572  0.27278  1.0000
  H   H650      1.0  0.84248  0.84230  0.39113  1.0000
  C   C657      1.0  0.76317  0.98269  0.06516  1.0000
  C   C658      1.0  0.80161  0.95738  0.08163  1.0000
  C   C659      1.0  0.69643  0.85331  0.17780  1.0000
  H   H651      1.0  0.93462  0.69155  0.33241  1.0000
  H   H652      1.0  0.73256  0.86670  0.23301  1.0000
  H   H653      1.0  0.71414  0.85636  0.17805  1.0000
  H   H654      1.0  0.79386  0.96544  0.13472  1.0000
  H   H655      1.0  0.82486  0.59604  0.32360  1.0000
  H   H656      1.0  0.81650  0.93318  0.02889  1.0000
  C   C660      1.0  0.76952  0.98020  0.09963  1.0000
  H   H657      1.0  0.93788  0.73221  0.22080  1.0000
  H   H658      1.0  0.97966  0.68753  0.32195  1.0000
  C   C661      1.0  0.81072  0.60284  0.25879  1.0000
  H   H659      1.0  0.92568  0.84440  0.44633  1.0000
  N   N55       1.0  0.81911  0.81579  0.19977  1.0000
  C   C662      1.0  0.80974  0.79877  0.21848  1.0000
  C   C663      1.0  0.84190  0.81763  0.19861  1.0000
  C   C664      1.0  0.82327  0.78333  0.23730  1.0000
  C   C665      1.0  0.85591  0.80250  0.21713  1.0000
  C   C666      1.0  0.84648  0.78532  0.23666  1.0000
  C   C667      1.0  0.80477  0.83155  0.17961  1.0000
  H   H660      1.0  0.79169  0.79722  0.21929  1.0000
  H   H661      1.0  0.84936  0.83124  0.18411  1.0000
  H   H662      1.0  0.81589  0.76999  0.25255  1.0000
  H   H663      1.0  0.87392  0.80457  0.21728  1.0000
  H   H664      1.0  0.85710  0.77370  0.25160  1.0000
  H   H665      1.0  0.80316  0.82544  0.15275  1.0000
  H   H666      1.0  0.78778  0.83354  0.19126  1.0000
  H   H667      1.0  0.81176  0.84876  0.17904  1.0000
  C   C668      1.0  0.81847  0.58097  0.31179  1.0000
  H   H668      1.0  0.85800  0.86223  0.34005  1.0000
  H   H669      1.0  0.97189  0.72680  0.25645  1.0000
  C   C669      1.0  0.71256  0.67834  0.41161  1.0000
  H   H670      1.0  0.80925  0.52583  0.33107  1.0000
  H   H671      1.0  0.92392  0.85395  0.38292  1.0000
  H   H672      1.0  0.74796  0.99223  0.05847  1.0000
  C   C670      1.0  0.91687  0.71421  0.25628  1.0000
  C   C671      1.0  0.68099  0.87142  0.17408  1.0000
  H   H673      1.0  0.92058  0.81609  0.43135  1.0000
  C   C672      1.0  0.93551  0.70005  0.30758  1.0000
  H   H674      1.0  0.82577  0.60284  0.24195  1.0000
  C   C673      1.0  0.92897  0.76911  0.50801  1.0000
  C   C674      1.0  0.93711  0.72281  0.24489  1.0000
  C   C675      1.0  0.91250  0.83221  0.44031  1.0000
  C   C676      1.0  0.78889  0.96754  0.10795  1.0000
  H   H675      1.0  0.79575  0.52722  0.27044  1.0000
  H   H676      1.0  0.97225  0.71402  0.34323  1.0000
  H   H677      1.0  0.70105  0.81740  0.18621  1.0000
  H   H678      1.0  0.81632  0.94706  0.08843  1.0000
  C   C677      1.0  0.91604  0.70269  0.28775  1.0000
  N   N56       1.0  0.70288  0.86290  0.26219  1.0000
  H   H679      1.0  0.81104  0.61786  0.27590  1.0000
  H   H680      1.0  0.69610  0.89809  0.25311  1.0000
  H   H681      1.0  0.80002  0.88767  0.01072  1.0000
  C   C678      1.0  0.70362  0.68711  0.38091  1.0000
  C   C679      1.0  0.99953  0.77955  0.22494  1.0000
  H   H682      1.0  0.82397  0.56062  0.35764  1.0000
  H   H683      1.0  0.90171  0.71678  0.24112  1.0000
  C   C680      1.0  0.77648  0.97259  0.03940  1.0000
  H   H684      1.0  0.74748  0.54214  0.19926  1.0000
  C   C681      1.0  0.76164  0.00334  0.22525  1.0000
  H   H685      1.0  0.73647  0.85061  0.27229  1.0000
  H   H686      1.0  0.75938  0.98785  0.12000  1.0000
  C   C682      1.0  0.80950  0.95003  0.02064  1.0000
  C   C683      1.0  0.68895  0.83120  0.18232  1.0000
  H   H687      1.0  0.79601  0.56322  0.23777  1.0000
  C   C684      1.0  0.80262  0.56262  0.26384  1.0000
  C   C685      1.0  0.91889  0.77168  0.47528  1.0000
  H   H688      1.0  0.99005  0.71402  0.30626  1.0000
  N   N57       1.0  0.89729  0.84128  0.41357  1.0000
  C   C686      1.0  0.90598  0.85195  0.38534  1.0000
  C   C687      1.0  0.87475  0.83788  0.41584  1.0000
  C   C688      1.0  0.89196  0.85979  0.35865  1.0000
  C   C689      1.0  0.86026  0.84543  0.38956  1.0000
  C   C690      1.0  0.86896  0.85654  0.36089  1.0000
  H   H689      1.0  0.86789  0.82883  0.43771  1.0000
  C   C691      1.0  0.72721  0.86526  0.26038  1.0000
  H   H690      1.0  0.90025  0.69628  0.29700  1.0000
  H   H691      1.0  0.79539  0.60483  0.24261  1.0000
  H   H692      1.0  0.69331  0.72181  0.26883  1.0000
  C   C692      1.0  0.68263  0.70782  0.26344  1.0000
  C   C693      1.0  0.69406  0.84191  0.26563  1.0000
  N   N58       1.0  0.95530  0.70853  0.29623  1.0000
  C   C694      1.0  0.74633  0.99959  0.25195  1.0000
  H   H693      1.0  0.72808  0.68468  0.42170  1.0000
  H   H694      1.0  0.77137  0.97444  0.01265  1.0000
  H   H695      1.0  0.68096  0.65070  0.27294  1.0000
  H   H696      1.0  0.82345  0.96135  0.01452  1.0000
  N   N59       1.0  0.68275  0.65204  0.41512  1.0000
  H   H697      1.0  0.67730  0.68469  0.34337  1.0000
  H   H698      1.0  0.86679  0.78911  0.50123  1.0000
  C   C695      1.0  0.68412  0.67822  0.36756  1.0000
  H   H699      1.0  0.70432  0.60314  0.49386  1.0000
  C   C696      1.0  0.88419  0.78349  0.50300  1.0000
  C   C697      1.0  0.72183  0.60700  0.49613  1.0000
  H   H700      1.0  0.68108  0.69510  0.14302  1.0000
  H   H701      1.0  0.67936  0.62934  0.45804  1.0000
  C   C698      1.0  0.67572  0.66778  0.26581  1.0000
  C   C699      1.0  0.76718  0.61581  0.50259  1.0000
  H   H702      1.0  0.78487  0.61897  0.50491  1.0000
  C   C700      1.0  0.67396  0.66046  0.38493  1.0000
  H   H703      1.0  0.94635  0.76342  0.50982  1.0000
  Fe  Fe117     1.0  0.76184  0.91902  0.87750  1.0000
  S   S233      1.0  0.73372  0.91943  0.83862  1.0000
  S   S234      1.0  0.75213  0.93282  0.93056  1.0000
  Fe  Fe118     1.0  0.79504  0.89717  0.82572  1.0000
  S   S235      1.0  0.76935  0.89655  0.78385  1.0000
  S   S236      1.0  0.82919  0.87918  0.82030  1.0000
  Fe  Fe119     1.0  0.75966  0.93213  0.80097  1.0000
  S   S237      1.0  0.75164  0.95896  0.75900  1.0000
  Fe  Fe120     1.0  0.74598  0.88422  0.82493  1.0000
  S   S238      1.0  0.73083  0.84939  0.82407  1.0000
  S   S239      1.0  0.78715  0.93352  0.84057  1.0000
  S   S240      1.0  0.77230  0.88321  0.86624  1.0000
  Fe  Fe121     1.0  0.71661  0.63349  0.67921  1.0000
  S   S241      1.0  0.73982  0.63130  0.72460  1.0000
  H   H704      1.0  0.69193  0.87201  0.79053  1.0000
  Fe  Fe122     1.0  0.75325  0.61852  0.62763  1.0000
  S   S242      1.0  0.77908  0.61602  0.67005  1.0000
  S   S243      1.0  0.76771  0.61357  0.57342  1.0000
  Fe  Fe123     1.0  0.75256  0.59835  0.70119  1.0000
  S   S244      1.0  0.76571  0.56740  0.73262  1.0000
  Fe  Fe124     1.0  0.76416  0.64877  0.68975  1.0000
  S   S245      1.0  0.77781  0.68259  0.70599  1.0000
  S   S246      1.0  0.72746  0.59921  0.65755  1.0000
  S   S247      1.0  0.74032  0.65236  0.64540  1.0000
  Fe  Fe125     1.0  0.91451  0.77278  0.63263  1.0000
  S   S248      1.0  0.92807  0.74876  0.67362  1.0000
  S   S249      1.0  0.92994  0.76899  0.57893  1.0000
  Fe  Fe126     1.0  0.88191  0.79547  0.68350  1.0000
  S   S250      1.0  0.89258  0.77293  0.72759  1.0000
  S   S251      1.0  0.85404  0.82242  0.68646  1.0000
  Fe  Fe127     1.0  0.92798  0.77863  0.70908  1.0000
  S   S252      1.0  0.95292  0.78828  0.75114  1.0000
  Fe  Fe128     1.0  0.89189  0.74501  0.68863  1.0000
  S   S253      1.0  0.88015  0.70928  0.69701  1.0000
  S   S254      1.0  0.91703  0.80319  0.66699  1.0000
  S   S255      1.0  0.87849  0.76701  0.64558  1.0000
  C   C701      1.0  0.98224  0.78182  0.75528  1.0000
  H   H705      1.0  0.81266  0.80888  0.81272  1.0000
  C   C702      1.0  0.85044  0.70275  0.60480  1.0000
  C   C703      1.0  0.79344  0.55512  0.65271  1.0000
  H   H706      1.0  0.82002  0.76871  0.76041  1.0000
  H   H707      1.0  0.83976  0.78815  0.77804  1.0000
  H   H708      1.0  0.98638  0.76570  0.70605  1.0000
  C   C704      1.0  0.80622  0.68980  0.70110  1.0000
  C   C705      1.0  0.81187  0.71269  0.70251  1.0000
  C   C706      1.0  0.83441  0.71899  0.70049  1.0000
  C   C707      1.0  0.85151  0.70236  0.69791  1.0000
  C   C708      1.0  0.84585  0.67951  0.69617  1.0000
  C   C709      1.0  0.82329  0.67326  0.69736  1.0000
  H   H709      1.0  0.79874  0.72558  0.70540  1.0000
  H   H710      1.0  0.83859  0.73663  0.70173  1.0000
  H   H711      1.0  0.85898  0.66653  0.69434  1.0000
  H   H712      1.0  0.81916  0.65559  0.69650  1.0000
  C   C710      1.0  0.75490  0.54107  0.74690  1.0000
  C   C711      1.0  0.73278  0.53505  0.74086  1.0000
  C   C712      1.0  0.71876  0.69790  0.70169  1.0000
  C   C713      1.0  0.69390  0.86770  0.89077  1.0000
  H   H713      1.0  0.72138  0.54689  0.72790  1.0000
  H   H714      1.0  0.83641  0.78642  0.73248  1.0000
  H   H715      1.0  0.73882  0.53405  0.61301  1.0000
  C   C714      1.0  0.89427  0.78095  0.53571  1.0000
  C   C715      1.0  0.91674  0.77368  0.53838  1.0000
  C   C716      1.0  0.69780  0.81860  0.82308  1.0000
  H   H716      1.0  0.88467  0.78456  0.55884  1.0000
  H   H717      1.0  0.98407  0.79690  0.80562  1.0000
  C   C717      1.0  0.73139  0.60889  0.52922  1.0000
  C   C718      1.0  0.75421  0.61309  0.53261  1.0000
  C   C719      1.0  0.78460  0.56575  0.62331  1.0000
  H   H718      1.0  0.72123  0.60658  0.55205  1.0000
  H   H719      1.0  0.75031  0.98961  0.70104  1.0000
  C   C720      1.0  0.83482  0.86232  0.78372  1.0000
  C   C721      1.0  0.82377  0.86655  0.75249  1.0000
  C   C722      1.0  0.82980  0.85407  0.72301  1.0000
  C   C723      1.0  0.84688  0.83722  0.72446  1.0000
  C   C724      1.0  0.85772  0.83267  0.75581  1.0000
  C   C725      1.0  0.85165  0.84518  0.78535  1.0000
  H   H720      1.0  0.81102  0.87990  0.75074  1.0000
  H   H721      1.0  0.82134  0.85771  0.69883  1.0000
  H   H722      1.0  0.87092  0.81973  0.75723  1.0000
  H   H723      1.0  0.86026  0.84180  0.80947  1.0000
  H   H724      1.0  0.69258  0.64489  0.75453  1.0000
  C   C726      1.0  0.76072  0.98730  0.75419  1.0000
  C   C727      1.0  0.70424  0.71603  0.80521  1.0000
  H   H725      1.0  0.89878  0.73427  0.56174  1.0000
  C   C728      1.0  0.75428  0.53975  0.62414  1.0000
  C   C729      1.0  0.79764  0.80888  0.72923  1.0000
  C   C730      1.0  0.86319  0.73026  0.56349  1.0000
  H   H726      1.0  0.73493  0.94111  0.99846  1.0000
  C   C731      1.0  0.82717  0.78573  0.75743  1.0000
  C   C732      1.0  0.70354  0.84073  0.81411  1.0000
  H   H727      1.0  0.78134  0.83732  0.81537  1.0000
  H   H728      1.0  0.68767  0.72814  0.72341  1.0000
  C   C733      1.0  0.77826  0.90587  0.97494  1.0000
  C   C734      1.0  0.76018  0.92134  0.97127  1.0000
  H   H729      1.0  0.72259  0.67945  0.70042  1.0000
  H   H730      1.0  0.78703  0.89969  0.95227  1.0000
  H   H731      1.0  0.73348  0.70700  0.69184  1.0000
  H   H732      1.0  0.73079  0.69195  0.81865  1.0000
  H   H733      1.0  0.73395  0.51421  0.67273  1.0000
  C   C735      1.0  0.80344  0.81314  0.78939  1.0000
  C   C736      1.0  0.77984  0.82488  0.73006  1.0000
  C   C737      1.0  0.78576  0.82923  0.79111  1.0000
  C   C738      1.0  0.77386  0.83502  0.76126  1.0000
  C   C739      1.0  0.68164  0.83079  0.90807  1.0000
  C   C740      1.0  0.76488  0.55809  0.60889  1.0000
  C   C741      1.0  0.84567  0.71893  0.57924  1.0000
  H   H734      1.0  0.76007  0.84743  0.76237  1.0000
  C   C742      1.0  0.87273  0.69830  0.61445  1.0000
  N   N60       1.0  0.89391  0.87131  0.74394  1.0000
  C   C743      1.0  0.89672  0.87240  0.77892  1.0000
  C   C744      1.0  0.90638  0.85613  0.72484  1.0000
  C   C745      1.0  0.91193  0.85757  0.79577  1.0000
  C   C746      1.0  0.92198  0.84134  0.74082  1.0000
  C   C747      1.0  0.92462  0.84195  0.77649  1.0000
  C   C748      1.0  0.87815  0.88714  0.72657  1.0000
  H   H735      1.0  0.88668  0.88431  0.79413  1.0000
  H   H736      1.0  0.90412  0.85517  0.69713  1.0000
  H   H737      1.0  0.91375  0.85809  0.82357  1.0000
  H   H738      1.0  0.93196  0.82936  0.72575  1.0000
  H   H739      1.0  0.93647  0.83021  0.78901  1.0000
  H   H740      1.0  0.86434  0.89274  0.74421  1.0000
  H   H741      1.0  0.88707  0.90222  0.71736  1.0000
  H   H742      1.0  0.87012  0.87894  0.70423  1.0000
  N   N61       1.0  0.71387  0.70443  0.73733  1.0000
  C   C749      1.0  0.69744  0.72045  0.74419  1.0000
  C   C750      1.0  0.72619  0.69472  0.76355  1.0000
  C   C751      1.0  0.68031  0.65866  0.75189  1.0000
  H   H743      1.0  0.78652  0.52979  0.76887  1.0000
  C   C752      1.0  0.72143  0.70020  0.79790  1.0000
  C   C753      1.0  0.78256  0.53667  0.66705  1.0000
  H   H744      1.0  0.91353  0.70243  0.63942  1.0000
  H   H745      1.0  0.73954  0.68236  0.75791  1.0000
  C   C754      1.0  0.99467  0.77079  0.72939  1.0000
  H   H746      1.0  0.70685  0.88017  0.88926  1.0000
  H   H747      1.0  0.78933  0.52886  0.69036  1.0000
  N   N62       1.0  0.76316  0.52929  0.65285  1.0000
  C   C755      1.0  0.88524  0.72551  0.57409  1.0000
  H   H748      1.0  0.71007  0.80743  0.83551  1.0000
  H   H749      1.0  0.67868  0.73847  0.78372  1.0000
  C   C756      1.0  0.76979  0.99926  0.78157  1.0000
  C   C757      1.0  0.99345  0.78837  0.78538  1.0000
  H   H750      1.0  0.71453  0.84342  0.91882  1.0000
  C   C758      1.0  0.69824  0.84699  0.90728  1.0000
  H   H751      1.0  0.77087  0.82955  0.70665  1.0000
  N   N63       1.0  0.88969  0.71014  0.59991  1.0000
  H   H752      1.0  0.92010  0.69069  0.59741  1.0000
  H   H753      1.0  0.75772  0.56657  0.58633  1.0000
  H   H754      1.0  0.79279  0.58021  0.61206  1.0000
  S   S256      1.0  0.68195  0.65068  0.68167  1.0000
  N   N64       1.0  0.80922  0.80326  0.75866  1.0000
  C   C759      1.0  0.69236  0.72647  0.77822  1.0000
  C   C760      1.0  0.91286  0.70562  0.61109  1.0000
  H   H755      1.0  0.80245  0.80131  0.70479  1.0000
  H   H756      1.0  0.87633  0.68566  0.63427  1.0000
  H   H757      1.0  0.70411  0.70117  0.68450  1.0000
  H   H758      1.0  0.83700  0.69385  0.61742  1.0000
  H   H759      1.0  0.92349  0.72042  0.60588  1.0000
  H   H760      1.0  0.77265  0.99081  0.80609  1.0000
  C   C761      1.0  0.76937  0.52536  0.76396  1.0000
  H   H761      1.0  0.80828  0.56150  0.66489  1.0000
  C   C762      1.0  0.75722  0.99867  0.72247  1.0000
  C   C763      1.0  0.74902  0.92924  0.00104  1.0000
  C   C764      1.0  0.68762  0.85499  0.79780  1.0000
  H   H762      1.0  0.70723  0.99794  0.75699  1.0000
  C   C765      1.0  0.72537  0.51360  0.75150  1.0000
  C   C766      1.0  0.78558  0.89908  0.00813  1.0000
  H   H763      1.0  0.85979  0.74274  0.54333  1.0000
  H   H764      1.0  0.67745  0.66409  0.80666  1.0000
  H   H765      1.0  0.68513  0.81471  0.92091  1.0000
  H   H766      1.0  0.82846  0.72260  0.57160  1.0000
  H   H767      1.0  0.69981  0.71992  0.83172  1.0000
  H   H768      1.0  0.79971  0.94721  0.99675  1.0000
  C   C767      1.0  0.67626  0.81082  0.81635  1.0000
  C   C768      1.0  0.67307  0.87202  0.87540  1.0000
