data_image0
_chemical_formula_structural       FeS2FeS2FeHFeHS2FeCSFeS2FeHFeHS2FeS2FeS2FeSFeS3FeS2CH2FeCFeS3C6H4C6H4NSH3S2C2H3C6H4C4H3C3HC7H5FeCHSHC4NCHCHCNH4CHCHCHCH3CNCNHCHC2H2CNH3C2SCHCNCHSCHC3H2C3NCH2CSHC2H4C2H2CHC3HC4HCH4CSHCH2C2HCHCHCH3CH7CH3FeS2FeS2FeHFeS3FeCSFeS2Fe3HS2FeS2FeS2FeSFeS3FeS2H3FeHFeS3C6H4C6H5CH5C2H2NC6H4C4H2C2H2CSC6H4SH3CHC2H5CH2CH2NCHCH3CHCHCH4CNCH4CH2CNSC6SCHNC7HNH4CNC6H8NC5H2C3H4C4HCH2C3H5C5H3C2HCHFeSHFeSHFeSFeS3FeSHFeSCFeSFeS3FeS2FeSCFeSHS2CFeS2FeS2FeSFeS3C6H4C6H4C4H2CHC2H2C6H4C2H3C4HC7H2CHC3H2C2HCHCH2NC3H5NC6H8C3NCHC2HSH5C2SCHCH2CH2NHCNH2NCH2N2C6H10NCH3C2H2CHCHC3HFeCSHNC2H2CH4C3H2C2H3CH2C2HC2HCH3CHFeS2FeSHFeSFeS3FeSCFeSHFeSFeS3FeS2FeSHFeSHS2HFeS2FeS2FeSFeS3C6H4C6H4C3H3CHCHCHC6H4C2HCHCH2CHC7H4C2HFeHCH4CH2C2HCH2NC7H5CH2CNC6H8NC3H6SHC2H2CSH2C2H2NHCNH2C3HCHC3H2NH2C2HC2HCHSHC3SH5C4HCHCHSCHCFeS2FeS2FeSFeS3C2SFeS2FeSFeCS2FeS2FeS2FeSFeCS2FeS2FeS2FeCFeS3H2CH2C2H2C2SHC3HC2H5CH2CHSH2C2H2C6H4C2HC7H8C6H4C6H4NC5HC3HCNCHCH2C3H2CH2CH2C2HSC2HNHCNH3CHCN2FeHC3H5NC4HCH4FeHCHCHCH4CHCHCHCHC2H3C2H2CHSNCH2CH2CH3CHFeS2FeS2FeSFeS3HS2FeS2FeSFeCS2FeS2FeS2FeSFeHS2FeS2FeS2FeSFeS3CH2CNCHCHC3HC3HNCH3CHSC2H2C5H2C6H4CSHC7H4CHCHC6H4C6H4NC3HCHC2H2NC6H8CHC2H3NC2SHCHCSC3NC2H4C2HCHNHC2H3CHCH2C2HCHCHC2HC2H3NC6H9SCHCHC2HCH3CHCH2SHC2H2SH4CH2CH3CH4CFeS2FeS2FeSCS2CFeS2FeS2FeSFeS3FeS2FeS2FeSFeHS2FeS2FeS2FeCFeS3C3H3CHCH3C2NCHC2H2CSH2CH5NCH3C6H5CH2C6H4CNCHC6H4C6H4CNH4SHCHC2HCHCH2C2H4C3H2C2HC3NC6HCHC2H3C4HFeCHCH3C2HCHC2H3C5H2CHC4NC3HCH2SH6C4H4C2HCHNHCHCH3NC2HFeS2FeS2FeSHS2HFeS2FeS2FeSFeS3FeS2FeS2FeSFeCS2FeS2FeS2FeSFeHS2C2H3C3H4CH2CH2C2H2SH3CHCH5CHC6H5CHC7H5NHC7H4C6H4SH2CHC3HC3NCHCHSH2C2HCHCHNC5H2CH3NH3C2H2CH2C2HC2HCHFeCHCHSCHCH2CNHCNC7H2SCH2C2HCHCHFeS2HCSFeCFeS3FeS2FeS2FeSFeS3FeCSFeS2FeHFeHS2FeS2FeS2FeCFeHS2CSH3CH2C2HC2H3CH2C3H2C6H4C6H4C6H4C6H4C3H3C2HCHCHCHC4H2SHCHCN2CNC6H11CNCNCH4C4H2NCHC4HFeH4C3SH2CHCH2CH5SCHC2H2C2HC2HC2H2C3HFeS2H2SFeSFeS3FeS2FeS2FeSFeS3FeS2FeS2FeHFeCS2FeS2FeS2FeCFeNS2H3C4HCH2CHC3NCH2C2HC7H4C6H4C6H4C6H4C3HCHNHC2H4C3HCNC2HSHC2H3C2H2CHCHCH3NC4HCH4CHC2NC6H8NH2CHC6H6CH3CH2C2HCH6SHCHNCNCH2C4NHC3NHCH2FeC3H3CHSH2CH3C2H3CFeS2FeS2FeSFeS3FeSCFeS2H2FeSHSFeCSFeS2FeSFeHS2FeS2FeS2FeHFeCS2CH2C2HC4H3C2H5CHCHC6H4C6H4C6H4C6H7C6HCH2C4HCH2NC5H5C2H2CNCHCHFeNH5CH3CHSH2NCH2CHCH3CH2CHSHCHNH2C2H3NC5H4CHCNC4HCSH3C2SCHCHSH4C2SCSFeS2FeS2FeSFeS3FeSCFeS2CHFeSHSFeS2FeS2FeCFeHS2FeS2FeS2FeCFeHS2C5H7NSH2SC2HC2H2C6H4C6H4C6H4C6H4C3HSHC4HCSCH3NHC5H3FeC2H7NC3H4NH4CH3CHCHCH3CHCHCHC2HNSHC6HC2H2CNH9CN2CHCHC2H2NC2HCHC2NC5HC2H4CH2CHCHCH3C2FeS2FeS2HCFeSHSFeS2FeS2FeSFeS3FeS2FeS2FeHFeHS2FeS2FeSHFeSFeS3C3H2C4HSHC6HC3HFeC2H3C2H3C6H4C2HC6H4CSH3C6H4C6H3C2H2CHC2HC2HC4NHCH3C2H2NCHNCH2CH6CNC6H8C2HCHSHCSC3HCHNC6H13C2H2CN2CH2NS2H2CHC2H3SCHC4HCHCHFeS2FeS2CSFeSHSFeS2FeS2FeSFeS3FeS2FeS2FeHFeCS2FeS2FeSHFeSFeS3C2H2FeC2H2CHC3HC3HNH4NHNH4CH2C6H7C6H6CHC7H4C6H3CHCH2C3HC2H3CSHC3HNCH5CH2NC6H11C4HC3H2CSNC6H2CH2CHC4HSC4HCH2CH3CHC2SCHCNCH2C3HCH2CHCHSHCHFeS2FeSHFeSFeS3FeSHFeSHFeSFeS3FeS2FeS2FeSFeS3FeS2CSNFeSHS2C3SH2CHC6H4C6H4C6H4NCHC2HCHC3H3CH2C7H4C2H3C2H2C3HCH4CHC4HNC6H8CHC3H2C3SH2CH3C3HNC3HCH5NC6H8CH3NHC2H2C2FeHCH3CSNCH5FeSHC2SHSCH2C3NC3HFeSNFeS2FeSFeS3FeS2FeSCFeSFeS3FeS2FeS2FeSFeS3FeSH2SHFeSFeS2HCH2C3HC6H4C6H4C6H2C3HC3H2CHNC2HCHSH2C6H4C4H2C3H3CH3CHC2HNCHCNC2H5CHNC6H8NC2H2CH2SC3HCHNC6H5CH4SHC3SHCSCH4CFeHC4H5NC2H6SCH3CHCH3C2HCHCSCH2CNC2HC2
_chemical_formula_sum              "Fe256 S512 H1536 C1536 N128"
_cell_length_a       77.4265
_cell_length_b       77.9119
_cell_length_c       47.3086
_cell_angle_alpha    89.6244
_cell_angle_beta     89.5706
_cell_angle_gamma    87.9442

_space_group_name_H-M_alt    "P 1"
_space_group_IT_number       1

loop_
  _space_group_symop_operation_xyz
  'x, y, z'

loop_
  _atom_site_type_symbol
  _atom_site_label
  _atom_site_symmetry_multiplicity
  _atom_site_fract_x
  _atom_site_fract_y
  _atom_site_fract_z
  _atom_site_occupancy
  Fe  Fe1       1.0  0.04605  0.07380  0.31005  1.0000
  S   S1        1.0  0.01967  0.08250  0.32641  1.0000
  S   S2        1.0  0.06401  0.09317  0.28840  1.0000
  Fe  Fe2       1.0  0.03578  0.03535  0.31272  1.0000
  S   S3        1.0  0.00886  0.04216  0.32750  1.0000
  S   S4        1.0  0.04155  0.00698  0.30358  1.0000
  Fe  Fe3       1.0  0.00929  0.06355  0.29529  1.0000
  H   H1        1.0  0.18572  0.22877  0.46521  1.0000
  Fe  Fe4       1.0  0.02172  0.06012  0.35704  1.0000
  H   H2        1.0  0.14999  0.11480  0.35708  1.0000
  S   S5        1.0  0.03527  0.05552  0.27823  1.0000
  S   S6        1.0  0.04901  0.05264  0.34299  1.0000
  Fe  Fe5       1.0  0.02661  0.42100  0.07850  1.0000
  C   C1        1.0  0.05075  0.36642  0.99785  1.0000
  S   S7        1.0  0.02410  0.45024  0.07379  1.0000
  Fe  Fe6       1.0  0.04660  0.38585  0.07143  1.0000
  S   S8        1.0  0.02286  0.37113  0.08150  1.0000
  S   S9        1.0  0.07323  0.37400  0.05858  1.0000
  Fe  Fe7       1.0  0.00892  0.39024  0.05269  1.0000
  H   H3        1.0  0.13697  0.11127  0.31011  1.0000
  Fe  Fe8       1.0  0.01783  0.39058  0.11627  1.0000
  H   H4        1.0  0.02868  0.09731  0.27106  1.0000
  S   S10       1.0  0.03281  0.40406  0.04086  1.0000
  S   S11       1.0  0.04257  0.40428  0.10799  1.0000
  Fe  Fe9       1.0  0.17436  0.18013  0.27733  1.0000
  S   S12       1.0  0.16675  0.20774  0.26842  1.0000
  S   S13       1.0  0.20189  0.16835  0.27834  1.0000
  Fe  Fe10      1.0  0.13678  0.17041  0.29270  1.0000
  S   S14       1.0  0.12685  0.19759  0.28472  1.0000
  S   S15       1.0  0.12123  0.14902  0.31420  1.0000
  Fe  Fe11      1.0  0.14407  0.19704  0.24580  1.0000
  S   S16       1.0  0.13256  0.20640  0.20368  1.0000
  Fe  Fe12      1.0  0.15029  0.20617  0.30805  1.0000
  S   S17       1.0  0.15008  0.22922  0.33803  1.0000
  S   S18       1.0  0.15259  0.16923  0.25239  1.0000
  S   S19       1.0  0.15937  0.17922  0.31834  1.0000
  Fe  Fe13      1.0  0.15667  0.25745  0.06042  1.0000
  S   S20       1.0  0.15613  0.28618  0.05582  1.0000
  S   S21       1.0  0.16755  0.24765  0.10264  1.0000
  C   C2        1.0  0.17900  0.13595  0.31686  1.0000
  H   H5        1.0  0.19614  0.28367  0.41480  1.0000
  H   H6        1.0  0.17885  0.28183  0.38946  1.0000
  Fe  Fe14      1.0  0.17024  0.28153  0.01454  1.0000
  C   C3        1.0  0.99822  0.42855  0.45143  1.0000
  Fe  Fe15      1.0  0.13155  0.28376  0.03132  1.0000
  S   S22       1.0  0.10553  0.29730  0.04375  1.0000
  S   S23       1.0  0.17229  0.25311  0.02065  1.0000
  S   S24       1.0  0.13142  0.25489  0.03799  1.0000
  C   C4        1.0  0.15819  0.23459  0.12923  1.0000
  C   C5        1.0  0.16745  0.23127  0.15430  1.0000
  C   C6        1.0  0.16008  0.22208  0.17691  1.0000
  C   C7        1.0  0.14333  0.21610  0.17467  1.0000
  C   C8        1.0  0.13425  0.21904  0.14930  1.0000
  C   C9        1.0  0.14161  0.22824  0.12670  1.0000
  H   H7        1.0  0.18031  0.23606  0.15647  1.0000
  H   H8        1.0  0.16722  0.21994  0.19626  1.0000
  H   H9        1.0  0.12131  0.21441  0.14732  1.0000
  H   H10       1.0  0.13438  0.23056  0.10749  1.0000
  C   C10       1.0  0.14636  0.22958  0.37520  1.0000
  C   C11       1.0  0.14523  0.24553  0.38902  1.0000
  C   C12       1.0  0.14403  0.24648  0.41875  1.0000
  C   C13       1.0  0.14375  0.23144  0.43505  1.0000
  C   C14       1.0  0.14432  0.21549  0.42119  1.0000
  C   C15       1.0  0.14571  0.21454  0.39145  1.0000
  H   H11       1.0  0.14561  0.25724  0.37665  1.0000
  H   H12       1.0  0.14342  0.25884  0.42905  1.0000
  H   H13       1.0  0.14397  0.20378  0.43356  1.0000
  H   H14       1.0  0.14650  0.20217  0.38114  1.0000
  N   N1        1.0  0.12432  0.26777  0.14032  1.0000
  S   S25       1.0  0.14339  0.23191  0.47267  1.0000
  H   H15       1.0  0.12775  0.24687  0.21455  1.0000
  H   H16       1.0  0.00881  0.05054  0.22809  1.0000
  H   H17       1.0  0.18719  0.20991  0.42296  1.0000
  S   S26       1.0  0.19491  0.29590  0.00651  1.0000
  S   S27       1.0  0.19435  0.29341  0.47796  1.0000
  C   C16       1.0  0.21749  0.18764  0.23621  1.0000
  C   C17       1.0  0.21949  0.17482  0.25686  1.0000
  H   H18       1.0  0.10135  0.24374  0.18606  1.0000
  H   H19       1.0  0.20491  0.19381  0.23286  1.0000
  H   H20       1.0  0.22879  0.30859  0.99774  1.0000
  C   C18       1.0  0.08224  0.35254  0.05670  1.0000
  C   C19       1.0  0.07253  0.33807  0.06233  1.0000
  C   C20       1.0  0.07995  0.32136  0.05848  1.0000
  C   C21       1.0  0.09719  0.31879  0.04912  1.0000
  C   C22       1.0  0.10696  0.33326  0.04387  1.0000
  C   C23       1.0  0.09954  0.34996  0.04769  1.0000
  H   H21       1.0  0.05924  0.33975  0.06928  1.0000
  H   H22       1.0  0.07223  0.31032  0.06270  1.0000
  H   H23       1.0  0.12022  0.33160  0.03676  1.0000
  H   H24       1.0  0.10726  0.36100  0.04339  1.0000
  C   C24       1.0  0.02947  0.46685  0.09748  1.0000
  C   C25       1.0  0.99866  0.46342  0.14580  1.0000
  C   C26       1.0  0.23595  0.16689  0.26073  1.0000
  C   C27       1.0  0.03926  0.46365  0.12183  1.0000
  H   H25       1.0  0.12918  0.28749  0.11006  1.0000
  H   H26       1.0  0.04417  0.45076  0.12633  1.0000
  H   H27       1.0  0.05037  0.47460  0.15908  1.0000
  C   C28       1.0  0.03299  0.34233  0.00827  1.0000
  C   C29       1.0  0.01479  0.10624  0.45375  1.0000
  C   C30       1.0  0.23255  0.27272  0.04824  1.0000
  H   H28       1.0  0.01866  0.45986  0.20844  1.0000
  C   C31       1.0  0.99657  0.39052  0.18718  1.0000
  C   C32       1.0  0.10494  0.13396  0.30649  1.0000
  C   C33       1.0  0.09848  0.13167  0.27926  1.0000
  C   C34       1.0  0.08604  0.11917  0.27426  1.0000
  C   C35       1.0  0.07971  0.10882  0.29634  1.0000
  C   C36       1.0  0.08616  0.11112  0.32359  1.0000
  C   C37       1.0  0.09871  0.12352  0.32854  1.0000
  H   H29       1.0  0.10301  0.13955  0.26202  1.0000
  H   H30       1.0  0.08121  0.11758  0.25308  1.0000
  H   H31       1.0  0.08155  0.10329  0.34082  1.0000
  H   H32       1.0  0.10357  0.12510  0.34970  1.0000
  H   H33       1.0  0.17396  0.28344  0.42640  1.0000
  Fe  Fe16      1.0  0.14701  0.25298  0.99743  1.0000
  C   C38       1.0  0.22839  0.29210  0.46041  1.0000
  H   H34       1.0  0.18727  0.22301  0.37485  1.0000
  S   S28       1.0  0.14561  0.28152  0.98903  1.0000
  H   H35       1.0  0.01461  0.38786  0.47564  1.0000
  C   C39       1.0  0.99777  0.05554  0.21639  1.0000
  C   C40       1.0  0.06311  0.33811  0.99566  1.0000
  C   C41       1.0  0.18542  0.25215  0.44048  1.0000
  C   C42       1.0  0.00084  0.98893  0.32943  1.0000
  N   N2        1.0  0.02682  0.09450  0.44363  1.0000
  C   C43       1.0  0.18639  0.23432  0.44414  1.0000
  H   H36       1.0  0.09949  0.25683  0.13820  1.0000
  C   C44       1.0  0.01332  0.45612  0.18837  1.0000
  H   H37       1.0  0.14260  0.11075  0.25798  1.0000
  C   C45       1.0  0.99840  0.38572  0.21577  1.0000
  N   N3        1.0  0.22485  0.25994  0.06316  1.0000
  H   H38       1.0  0.00665  0.04486  0.17663  1.0000
  H   H39       1.0  0.13677  0.13333  0.26036  1.0000
  H   H40       1.0  0.20002  0.24927  0.06803  1.0000
  H   H41       1.0  0.19055  0.14337  0.31857  1.0000
  C   C46       1.0  0.18721  0.22375  0.42044  1.0000
  H   H42       1.0  0.04835  0.00853  0.36421  1.0000
  C   C47       1.0  0.04727  0.33127  0.00337  1.0000
  H   H43       1.0  0.20493  0.26566  0.09318  1.0000
  C   C48       1.0  0.00749  0.09899  0.20951  1.0000
  H   H44       1.0  0.01000  0.37873  0.22246  1.0000
  C   C49       1.0  0.03562  0.08755  0.21975  1.0000
  H   H45       1.0  0.04853  0.07309  0.18648  1.0000
  H   H46       1.0  0.15006  0.27571  0.14675  1.0000
  H   H47       1.0  0.00995  0.11664  0.44032  1.0000
  C   C50       1.0  0.04275  0.47721  0.14035  1.0000
  N   N4        1.0  0.18501  0.25924  0.41396  1.0000
  C   C51       1.0  0.18626  0.24898  0.39059  1.0000
  N   N5        1.0  0.02088  0.09644  0.22796  1.0000
  H   H48       1.0  0.00838  0.98741  0.40004  1.0000
  C   C52       1.0  0.03244  0.08099  0.46022  1.0000
  H   H49       1.0  0.18568  0.25452  0.36950  1.0000
  C   C53       1.0  0.99874  0.05392  0.45415  1.0000
  C   C54       1.0  0.18731  0.23109  0.39346  1.0000
  H   H50       1.0  0.22318  0.29170  0.43931  1.0000
  H   H51       1.0  0.02063  0.33728  0.01443  1.0000
  C   C55       1.0  0.04405  0.99099  0.33026  1.0000
  N   N6        1.0  0.06471  0.35550  0.99327  1.0000
  H   H52       1.0  0.07829  0.33124  0.45632  1.0000
  H   H53       1.0  0.02118  0.42933  0.19375  1.0000
  H   H54       1.0  0.11034  0.27567  0.10303  1.0000
  C   C56       1.0  0.00819  0.43402  0.15429  1.0000
  C   C57       1.0  0.23436  0.24579  0.07203  1.0000
  S   S29       1.0  0.00169  0.40812  0.08851  1.0000
  C   C58       1.0  0.07830  0.33263  0.47965  1.0000
  H   H55       1.0  0.99271  0.47296  0.13181  1.0000
  C   C59       1.0  0.12657  0.25323  0.19409  1.0000
  N   N7        1.0  0.00548  0.46816  0.17106  1.0000
  C   C60       1.0  0.14030  0.26230  0.18300  1.0000
  H   H56       1.0  0.99522  0.44279  0.11638  1.0000
  S   S30       1.0  0.01253  0.38313  0.16242  1.0000
  C   C61       1.0  0.17139  0.12901  0.34096  1.0000
  H   H57       1.0  0.99093  0.07309  0.00198  1.0000
  C   C62       1.0  0.00096  0.38558  0.43611  1.0000
  C   C63       1.0  0.03702  0.08052  0.19264  1.0000
  C   C64       1.0  0.21708  0.29241  0.48386  1.0000
  H   H58       1.0  0.02302  0.11774  0.25518  1.0000
  H   H59       1.0  0.15662  0.12637  0.24301  1.0000
  C   C65       1.0  0.13900  0.26944  0.15584  1.0000
  C   C66       1.0  0.18345  0.27795  0.41082  1.0000
  C   C67       1.0  0.14776  0.12373  0.26099  1.0000
  N   N8        1.0  0.15651  0.12481  0.28826  1.0000
  C   C68       1.0  0.00379  0.48609  0.18024  1.0000
  H   H60       1.0  0.18448  0.26028  0.45896  1.0000
  H   H61       1.0  0.02369  0.36870  0.00936  1.0000
  C   C69       1.0  0.20648  0.26167  0.07078  1.0000
  S   S31       1.0  0.14660  0.28270  0.48477  1.0000
  H   H62       1.0  0.17697  0.13102  0.36158  1.0000
  C   C70       1.0  0.14910  0.11775  0.31175  1.0000
  C   C71       1.0  0.99648  0.05230  0.18718  1.0000
  H   H63       1.0  0.05209  0.38021  0.99628  1.0000
  H   H64       1.0  0.13146  0.26574  0.09731  1.0000
  H   H65       1.0  0.02224  0.09536  0.39952  1.0000
  H   H66       1.0  0.17709  0.13973  0.27208  1.0000
  C   C72       1.0  0.01481  0.43888  0.18023  1.0000
  C   C73       1.0  0.17130  0.13382  0.29053  1.0000
  H   H67       1.0  0.19949  0.27131  0.05721  1.0000
  H   H68       1.0  0.04270  0.08579  0.40878  1.0000
  C   C74       1.0  0.12374  0.27449  0.11131  1.0000
  H   H69       1.0  0.01258  0.38592  0.42328  1.0000
  C   C75       1.0  0.04721  0.99521  0.35839  1.0000
  C   C76       1.0  0.23173  0.19234  0.21948  1.0000
  C   C77       1.0  0.01968  0.10402  0.25619  1.0000
  H   H70       1.0  0.15219  0.26309  0.19484  1.0000
  C   C78       1.0  0.99999  0.44632  0.13698  1.0000
  C   C79       1.0  0.00217  0.38659  0.46583  1.0000
  C   C80       1.0  0.11173  0.25143  0.17801  1.0000
  C   C81       1.0  0.15635  0.11981  0.33844  1.0000
  H   H71       1.0  0.00646  0.10284  0.26517  1.0000
  C   C82       1.0  0.11083  0.25878  0.15094  1.0000
  H   H72       1.0  0.00044  0.99795  0.31181  1.0000
  H   H73       1.0  0.00570  0.00834  0.36035  1.0000
  H   H74       1.0  0.04141  0.07125  0.45181  1.0000
  H   H75       1.0  0.99569  0.10574  0.21622  1.0000
  C   C83       1.0  0.00386  0.99478  0.35669  1.0000
  S   S32       1.0  0.01717  0.05631  0.40456  1.0000
  H   H76       1.0  0.22510  0.28413  0.04186  1.0000
  C   C84       1.0  0.03317  0.09625  0.41449  1.0000
  H   H77       1.0  0.02400  0.07721  0.15290  1.0000
  H   H78       1.0  0.23763  0.15690  0.27655  1.0000
  C   C85       1.0  0.99135  0.42851  0.47880  1.0000
  C   C86       1.0  0.00856  0.09236  0.18212  1.0000
  H   H79       1.0  0.03942  0.10874  0.41150  1.0000
  C   C87       1.0  0.02336  0.08295  0.17375  1.0000
  H   H80       1.0  0.00696  0.04266  0.45821  1.0000
  C   C88       1.0  0.00794  0.10455  0.48105  1.0000
  H   H81       1.0  0.22995  0.20213  0.20333  1.0000
  C   C89       1.0  0.02328  0.48374  0.09196  1.0000
  H   H82       1.0  0.07423  0.32943  0.99246  1.0000
  H   H83       1.0  0.99249  0.42736  0.40709  1.0000
  H   H84       1.0  0.00960  0.42076  0.14754  1.0000
  C   C90       1.0  0.00009  0.06258  0.42807  1.0000
  H   H85       1.0  0.99869  0.34433  0.17651  1.0000
  H   H86       1.0  0.04631  0.08566  0.23434  1.0000
  H   H87       1.0  0.99769  0.09387  0.16783  1.0000
  H   H88       1.0  0.22830  0.23582  0.08434  1.0000
  H   H89       1.0  0.08942  0.34043  0.48573  1.0000
  H   H90       1.0  0.01210  0.42827  0.44817  1.0000
  H   H91       1.0  0.08415  0.37376  0.99852  1.0000
  C   C91       1.0  0.03470  0.36001  0.00543  1.0000
  H   H92       1.0  0.04619  0.31750  0.00591  1.0000
  H   H93       1.0  0.01572  0.48637  0.07317  1.0000
  H   H94       1.0  0.09218  0.35305  0.98784  1.0000
  Fe  Fe17      1.0  0.05065  0.07221  0.81615  1.0000
  S   S33       1.0  0.02692  0.08840  0.82654  1.0000
  S   S34       1.0  0.07663  0.08295  0.80099  1.0000
  Fe  Fe18      1.0  0.03118  0.03823  0.82668  1.0000
  S   S35       1.0  0.00636  0.05274  0.83739  1.0000
  S   S36       1.0  0.02834  0.00904  0.82482  1.0000
  Fe  Fe19      1.0  0.01247  0.06964  0.79995  1.0000
  H   H95       1.0  0.20108  0.22896  0.61083  1.0000
  Fe  Fe20      1.0  0.02297  0.06982  0.86276  1.0000
  S   S37       1.0  0.01934  0.07757  0.90893  1.0000
  S   S38       1.0  0.03636  0.05429  0.78763  1.0000
  S   S39       1.0  0.04769  0.05450  0.85393  1.0000
  Fe  Fe21      1.0  0.02568  0.42304  0.58333  1.0000
  C   C92       1.0  0.00115  0.39386  0.93944  1.0000
  S   S40       1.0  0.01898  0.45182  0.58831  1.0000
  Fe  Fe22      1.0  0.04684  0.38934  0.56948  1.0000
  S   S41       1.0  0.02393  0.37290  0.57681  1.0000
  S   S42       1.0  0.07377  0.37908  0.55500  1.0000
  Fe  Fe23      1.0  0.00913  0.39326  0.55169  1.0000
  Fe  Fe24      1.0  0.14780  0.25540  0.49996  1.0000
  Fe  Fe25      1.0  0.01835  0.38962  0.61506  1.0000
  H   H96       1.0  0.03944  0.04436  0.91774  1.0000
  S   S43       1.0  0.03213  0.40914  0.54252  1.0000
  S   S44       1.0  0.04237  0.40483  0.60943  1.0000
  Fe  Fe26      1.0  0.17255  0.18434  0.77737  1.0000
  S   S45       1.0  0.16450  0.21132  0.76529  1.0000
  S   S46       1.0  0.20159  0.18059  0.78503  1.0000
  Fe  Fe27      1.0  0.13442  0.17331  0.78543  1.0000
  S   S47       1.0  0.12464  0.20006  0.77374  1.0000
  S   S48       1.0  0.11209  0.15646  0.80103  1.0000
  Fe  Fe28      1.0  0.14449  0.19919  0.73866  1.0000
  S   S49       1.0  0.13703  0.20580  0.69300  1.0000
  Fe  Fe29      1.0  0.14559  0.20968  0.80160  1.0000
  S   S50       1.0  0.14279  0.23259  0.83140  1.0000
  S   S51       1.0  0.15339  0.17186  0.74869  1.0000
  S   S52       1.0  0.15450  0.18329  0.81524  1.0000
  Fe  Fe30      1.0  0.15956  0.26569  0.55962  1.0000
  S   S53       1.0  0.15998  0.29379  0.54748  1.0000
  S   S54       1.0  0.16839  0.25868  0.60448  1.0000
  H   H97       1.0  0.01056  0.11130  0.76340  1.0000
  H   H98       1.0  0.21559  0.29366  0.52922  1.0000
  H   H99       1.0  0.06003  0.13486  0.76199  1.0000
  Fe  Fe31      1.0  0.17243  0.28446  0.50660  1.0000
  H   H100      1.0  0.01462  0.08089  0.96896  1.0000
  Fe  Fe32      1.0  0.13423  0.28958  0.52698  1.0000
  S   S55       1.0  0.10797  0.30358  0.53656  1.0000
  S   S56       1.0  0.17383  0.25688  0.52037  1.0000
  S   S57       1.0  0.13359  0.26170  0.54066  1.0000
  C   C93       1.0  0.15843  0.24504  0.62955  1.0000
  C   C94       1.0  0.16515  0.24382  0.65709  1.0000
  C   C95       1.0  0.15849  0.23222  0.67708  1.0000
  C   C96       1.0  0.14496  0.22173  0.66971  1.0000
  C   C97       1.0  0.13802  0.22321  0.64235  1.0000
  C   C98       1.0  0.14468  0.23479  0.62236  1.0000
  H   H101      1.0  0.17580  0.25167  0.66287  1.0000
  H   H102      1.0  0.16396  0.23123  0.69802  1.0000
  H   H103      1.0  0.12757  0.21513  0.63643  1.0000
  H   H104      1.0  0.13944  0.23547  0.60123  1.0000
  C   C99       1.0  0.14175  0.23177  0.86892  1.0000
  C   C100      1.0  0.14090  0.24725  0.88412  1.0000
  C   C101      1.0  0.14140  0.24724  0.91392  1.0000
  C   C102      1.0  0.14265  0.23170  0.92887  1.0000
  C   C103      1.0  0.14310  0.21621  0.91368  1.0000
  C   C104      1.0  0.14267  0.21622  0.88387  1.0000
  H   H105      1.0  0.14009  0.25934  0.87276  1.0000
  H   H106      1.0  0.14093  0.25924  0.92532  1.0000
  H   H107      1.0  0.14396  0.20413  0.92508  1.0000
  H   H108      1.0  0.14320  0.20423  0.87249  1.0000
  H   H109      1.0  0.99426  0.44724  0.91225  1.0000
  C   C105      1.0  0.09588  0.14063  0.88365  1.0000
  H   H110      1.0  0.08091  0.36677  0.96251  1.0000
  H   H111      1.0  0.19798  0.20931  0.84819  1.0000
  H   H112      1.0  0.05393  0.00423  0.87006  1.0000
  H   H113      1.0  0.00375  0.45269  0.65933  1.0000
  H   H114      1.0  0.02948  0.43597  0.64290  1.0000
  C   C106      1.0  0.21577  0.17532  0.73136  1.0000
  C   C107      1.0  0.21842  0.18064  0.75911  1.0000
  H   H115      1.0  0.02990  0.06789  0.50035  1.0000
  H   H116      1.0  0.20316  0.17123  0.72533  1.0000
  N   N9        1.0  0.06185  0.34057  0.48931  1.0000
  C   C108      1.0  0.08335  0.35792  0.55196  1.0000
  C   C109      1.0  0.07401  0.34311  0.55677  1.0000
  C   C110      1.0  0.08184  0.32669  0.55217  1.0000
  C   C111      1.0  0.09916  0.32474  0.54297  1.0000
  C   C112      1.0  0.10862  0.33952  0.53872  1.0000
  C   C113      1.0  0.10072  0.35596  0.54305  1.0000
  H   H117      1.0  0.06065  0.34433  0.56357  1.0000
  H   H118      1.0  0.07436  0.31538  0.55559  1.0000
  H   H119      1.0  0.12193  0.33832  0.53164  1.0000
  H   H120      1.0  0.10811  0.36729  0.53919  1.0000
  C   C114      1.0  0.02834  0.46901  0.60666  1.0000
  C   C115      1.0  0.02429  0.11089  0.75837  1.0000
  C   C116      1.0  0.03063  0.41976  0.68004  1.0000
  C   C117      1.0  0.04590  0.46897  0.61345  1.0000
  H   H121      1.0  0.18488  0.23632  0.94284  1.0000
  H   H122      1.0  0.05412  0.45782  0.60872  1.0000
  C   C118      1.0  0.22410  0.29319  0.51099  1.0000
  C   C119      1.0  0.03302  0.03769  0.93559  1.0000
  H   H123      1.0  0.00769  0.08892  0.51873  1.0000
  H   H124      1.0  0.12833  0.16596  0.86295  1.0000
  C   C120      1.0  0.03209  0.09602  0.74689  1.0000
  S   S58       1.0  0.01252  0.37909  0.65928  1.0000
  C   C121      1.0  0.10207  0.13612  0.79907  1.0000
  C   C122      1.0  0.11022  0.12164  0.78679  1.0000
  C   C123      1.0  0.10225  0.10557  0.78769  1.0000
  C   C124      1.0  0.08598  0.10366  0.80072  1.0000
  C   C125      1.0  0.07772  0.11818  0.81268  1.0000
  C   C126      1.0  0.08571  0.13424  0.81186  1.0000
  H   H125      1.0  0.12280  0.12275  0.77696  1.0000
  H   H126      1.0  0.10881  0.09449  0.77830  1.0000
  H   H127      1.0  0.06520  0.11703  0.82270  1.0000
  H   H128      1.0  0.07924  0.14529  0.82147  1.0000
  S   S59       1.0  0.99166  0.07936  0.76890  1.0000
  H   H129      1.0  0.06759  0.08219  0.71373  1.0000
  H   H130      1.0  0.12640  0.10707  0.84768  1.0000
  H   H131      1.0  0.06356  0.07185  0.74731  1.0000
  C   C127      1.0  0.10235  0.11124  0.87022  1.0000
  H   H132      1.0  0.18501  0.17099  0.68318  1.0000
  C   C128      1.0  0.09125  0.12343  0.88300  1.0000
  C   C129      1.0  0.02314  0.41628  0.70626  1.0000
  H   H133      1.0  0.22760  0.16965  0.69078  1.0000
  H   H134      1.0  0.07893  0.11963  0.89169  1.0000
  H   H135      1.0  0.01208  0.39884  0.92806  1.0000
  H   H136      1.0  0.09863  0.09797  0.86862  1.0000
  H   H137      1.0  0.02064  0.33013  0.50418  1.0000
  C   C130      1.0  0.00011  0.01715  0.89058  1.0000
  H   H138      1.0  0.22542  0.25537  0.94174  1.0000
  H   H139      1.0  0.00437  0.48398  0.60737  1.0000
  C   C131      1.0  0.22625  0.26687  0.95426  1.0000
  H   H140      1.0  0.20444  0.20202  0.69024  1.0000
  H   H141      1.0  0.03062  0.04761  0.95211  1.0000
  N   N10       1.0  0.00158  0.43870  0.69820  1.0000
  C   C132      1.0  0.00195  0.39191  0.96911  1.0000
  H   H142      1.0  0.21595  0.22337  0.65676  1.0000
  C   C133      1.0  0.18388  0.25556  0.90991  1.0000
  H   H143      1.0  0.01338  0.39549  0.98033  1.0000
  H   H144      1.0  0.13399  0.13759  0.84928  1.0000
  H   H145      1.0  0.17740  0.20257  0.86200  1.0000
  C   C134      1.0  0.06045  0.35792  0.49361  1.0000
  H   H146      1.0  0.17689  0.18843  0.70544  1.0000
  C   C135      1.0  0.00169  0.07263  0.93145  1.0000
  H   H147      1.0  0.18332  0.26628  0.92450  1.0000
  C   C136      1.0  0.18444  0.21354  0.85300  1.0000
  H   H148      1.0  0.10587  0.17118  0.85855  1.0000
  H   H149      1.0  0.02820  0.40570  0.71913  1.0000
  H   H150      1.0  0.01802  0.36155  0.51274  1.0000
  H   H151      1.0  0.04162  0.41197  0.67260  1.0000
  C   C137      1.0  0.99671  0.38704  0.68385  1.0000
  N   N11       1.0  0.04938  0.09524  0.74073  1.0000
  C   C138      1.0  0.18303  0.25851  0.88081  1.0000
  H   H152      1.0  0.00267  0.42300  0.73538  1.0000
  H   H153      1.0  0.02422  0.08506  0.74314  1.0000
  H   H154      1.0  0.07163  0.36583  0.49125  1.0000
  H   H155      1.0  0.00594  0.37022  0.71726  1.0000
  C   C139      1.0  0.05303  0.48375  0.62517  1.0000
  H   H156      1.0  0.17538  0.21248  0.59872  1.0000
  H   H157      1.0  0.16332  0.17996  0.67909  1.0000
  C   C140      1.0  0.00306  0.07541  0.96072  1.0000
  N   N12       1.0  0.11118  0.14553  0.87199  1.0000
  S   S60       1.0  0.00157  0.40829  0.59072  1.0000
  C   C141      1.0  0.03434  0.12500  0.76372  1.0000
  C   C142      1.0  0.22970  0.17429  0.71194  1.0000
  C   C143      1.0  0.99982  0.06219  0.71859  1.0000
  C   C144      1.0  0.23514  0.18516  0.76706  1.0000
  C   C145      1.0  0.11796  0.11633  0.85851  1.0000
  C   C146      1.0  0.01538  0.02440  0.89952  1.0000
  S   S61       1.0  0.14444  0.23087  0.96626  1.0000
  C   C147      1.0  0.12220  0.13363  0.85958  1.0000
  H   H158      1.0  0.04185  0.02736  0.94394  1.0000
  N   N13       1.0  0.18362  0.19551  0.66349  1.0000
  C   C148      1.0  0.19808  0.20421  0.67009  1.0000
  C   C149      1.0  0.17574  0.19807  0.63793  1.0000
  C   C150      1.0  0.20469  0.21625  0.65119  1.0000
  C   C151      1.0  0.18206  0.20995  0.61849  1.0000
  C   C152      1.0  0.19651  0.21922  0.62533  1.0000
  C   C153      1.0  0.17693  0.18304  0.68373  1.0000
  C   C154      1.0  0.99664  0.38034  0.71158  1.0000
  H   H159      1.0  0.16413  0.19136  0.63286  1.0000
  N   N14       1.0  0.01679  0.03042  0.92648  1.0000
  H   H160      1.0  0.99904  0.01260  0.86902  1.0000
  H   H161      1.0  0.02603  0.02532  0.88464  1.0000
  H   H162      1.0  0.06674  0.48378  0.62948  1.0000
  H   H163      1.0  0.23738  0.18909  0.78856  1.0000
  C   C155      1.0  0.00863  0.42605  0.71520  1.0000
  N   N15       1.0  0.12423  0.29607  0.60982  1.0000
  C   C156      1.0  0.11170  0.30876  0.60675  1.0000
  C   C157      1.0  0.14099  0.30013  0.61470  1.0000
  C   C158      1.0  0.11591  0.32607  0.60757  1.0000
  C   C159      1.0  0.14569  0.31730  0.61541  1.0000
  C   C160      1.0  0.13305  0.33033  0.61166  1.0000
  C   C161      1.0  0.11945  0.27805  0.60877  1.0000
  H   H164      1.0  0.09844  0.30553  0.60269  1.0000
  H   H165      1.0  0.15090  0.29010  0.61762  1.0000
  H   H166      1.0  0.10598  0.33608  0.60431  1.0000
  H   H167      1.0  0.15908  0.32043  0.61856  1.0000
  H   H168      1.0  0.13651  0.34370  0.61175  1.0000
  H   H169      1.0  0.13089  0.26939  0.60462  1.0000
  H   H170      1.0  0.11353  0.27419  0.62918  1.0000
  H   H171      1.0  0.11020  0.27609  0.59129  1.0000
  N   N16       1.0  0.18404  0.22806  0.87264  1.0000
  C   C162      1.0  0.18508  0.22506  0.90114  1.0000
  C   C163      1.0  0.18313  0.24453  0.86236  1.0000
  C   C164      1.0  0.18489  0.23874  0.92019  1.0000
  C   C165      1.0  0.04634  0.99287  0.86896  1.0000
  C   C166      1.0  0.02371  0.43307  0.66328  1.0000
  H   H172      1.0  0.08703  0.15012  0.89304  1.0000
  H   H173      1.0  0.18547  0.21204  0.90937  1.0000
  C   C167      1.0  0.03264  0.99234  0.84990  1.0000
  C   C168      1.0  0.05199  0.12409  0.75749  1.0000
  C   C169      1.0  0.00911  0.44248  0.67273  1.0000
  H   H174      1.0  0.18182  0.27154  0.87265  1.0000
  H   H175      1.0  0.18186  0.24691  0.83983  1.0000
  H   H176      1.0  0.11482  0.16896  0.89379  1.0000
  H   H177      1.0  0.17790  0.21704  0.83280  1.0000
  C   C170      1.0  0.05748  0.07934  0.72969  1.0000
  C   C171      1.0  0.00342  0.02900  0.94533  1.0000
  C   C172      1.0  0.21190  0.27264  0.97059  1.0000
  C   C173      1.0  0.05936  0.10897  0.74611  1.0000
  H   H178      1.0  0.01067  0.05625  0.72964  1.0000
  C   C174      1.0  0.11528  0.16378  0.87197  1.0000
  H   H179      1.0  0.04787  0.07122  0.71935  1.0000
  H   H180      1.0  0.07320  0.10814  0.74219  1.0000
  C   C175      1.0  0.99719  0.05858  0.68975  1.0000
  C   C176      1.0  0.01795  0.48374  0.61267  1.0000
  C   C177      1.0  0.03031  0.35566  0.50600  1.0000
  H   H181      1.0  0.00619  0.04995  0.67883  1.0000
  H   H182      1.0  0.02847  0.13653  0.77295  1.0000
  H   H183      1.0  0.20017  0.26552  0.97088  1.0000
  H   H184      1.0  0.00444  0.03391  0.96665  1.0000
  H   H185      1.0  0.04387  0.37935  0.50638  1.0000
  C   C178      1.0  0.04776  0.33063  0.49280  1.0000
  C   C179      1.0  0.08130  0.36260  0.98497  1.0000
  C   C180      1.0  0.03179  0.33802  0.50125  1.0000
  C   C181      1.0  0.04473  0.36568  0.50222  1.0000
  C   C182      1.0  0.01355  0.09080  0.49805  1.0000
  H   H186      1.0  0.08056  0.31975  0.48957  1.0000
  H   H187      1.0  0.99773  0.11333  0.48856  1.0000
  H   H188      1.0  0.99984  0.42814  0.49699  1.0000
  C   C183      1.0  0.22810  0.29681  0.98588  1.0000
  C   C184      1.0  0.02595  0.07897  0.48769  1.0000
  H   H189      1.0  0.04884  0.31690  0.48918  1.0000
  C   C185      1.0  0.21268  0.28781  0.98613  1.0000
  H   H190      1.0  0.99037  0.42919  0.88959  1.0000
  Fe  Fe33      1.0  0.01235  0.89729  0.38316  1.0000
  S   S62       1.0  0.04021  0.90029  0.37073  1.0000
  H   H191      1.0  0.01121  0.58313  0.32287  1.0000
  Fe  Fe34      1.0  0.01989  0.90210  0.44690  1.0000
  S   S63       1.0  0.04829  0.90530  0.43829  1.0000
  H   H192      1.0  0.16340  0.64123  0.26038  1.0000
  Fe  Fe35      1.0  0.03989  0.92211  0.40158  1.0000
  S   S64       1.0  0.05059  0.94892  0.39858  1.0000
  Fe  Fe36      1.0  0.04643  0.88294  0.40853  1.0000
  S   S65       1.0  0.06789  0.86202  0.40046  1.0000
  S   S66       1.0  0.01190  0.92012  0.41179  1.0000
  S   S67       1.0  0.01818  0.87870  0.41913  1.0000
  Fe  Fe37      1.0  0.01078  0.56476  0.19553  1.0000
  S   S68       1.0  0.03839  0.55453  0.19745  1.0000
  H   H193      1.0  0.22681  0.64794  0.26486  1.0000
  Fe  Fe38      1.0  0.01244  0.56943  0.13073  1.0000
  S   S69       1.0  0.03999  0.55930  0.12868  1.0000
  C   C186      1.0  0.15560  0.63283  0.24793  1.0000
  Fe  Fe39      1.0  0.03168  0.53888  0.15920  1.0000
  S   S70       1.0  0.04032  0.51041  0.15999  1.0000
  Fe  Fe40      1.0  0.04468  0.57596  0.16676  1.0000
  S   S71       1.0  0.06978  0.59118  0.16201  1.0000
  S   S72       1.0  0.00382  0.54795  0.15886  1.0000
  S   S73       1.0  0.01739  0.58712  0.16718  1.0000
  Fe  Fe41      1.0  0.13965  0.78822  0.46034  1.0000
  S   S74       1.0  0.13335  0.76014  0.46508  1.0000
  S   S75       1.0  0.11922  0.80997  0.46913  1.0000
  Fe  Fe42      1.0  0.17847  0.77932  0.45282  1.0000
  S   S76       1.0  0.17424  0.75120  0.45571  1.0000
  C   C187      1.0  0.03131  0.86970  0.03332  1.0000
  Fe  Fe43      1.0  0.15137  0.75602  0.42763  1.0000
  S   S77       1.0  0.14646  0.73432  0.39653  1.0000
  H   H194      1.0  0.00902  0.90573  0.99790  1.0000
  S   S78       1.0  0.13428  0.75862  0.04307  1.0000
  S   S79       1.0  0.15666  0.78413  0.42167  1.0000
  C   C188      1.0  0.00207  0.57594  0.28166  1.0000
  Fe  Fe44      1.0  0.17071  0.67394  0.22242  1.0000
  S   S80       1.0  0.17084  0.70135  0.20829  1.0000
  S   S81       1.0  0.19429  0.65941  0.24039  1.0000
  Fe  Fe45      1.0  0.13150  0.67120  0.21184  1.0000
  S   S82       1.0  0.12909  0.69903  0.19746  1.0000
  S   S83       1.0  0.10794  0.65422  0.21911  1.0000
  Fe  Fe46      1.0  0.15370  0.69339  0.17284  1.0000
  S   S84       1.0  0.16179  0.69990  0.12745  1.0000
  Fe  Fe47      1.0  0.14653  0.70478  0.23426  1.0000
  S   S85       1.0  0.14560  0.72893  0.26158  1.0000
  S   S86       1.0  0.15521  0.66527  0.18532  1.0000
  S   S87       1.0  0.14725  0.67766  0.25035  1.0000
  C   C189      1.0  0.14173  0.74188  0.06589  1.0000
  C   C190      1.0  0.15603  0.73125  0.05896  1.0000
  C   C191      1.0  0.16184  0.71836  0.07800  1.0000
  C   C192      1.0  0.15354  0.71607  0.10424  1.0000
  C   C193      1.0  0.13916  0.72663  0.11109  1.0000
  C   C194      1.0  0.13325  0.73942  0.09191  1.0000
  H   H195      1.0  0.16270  0.73298  0.03903  1.0000
  H   H196      1.0  0.17296  0.71021  0.07251  1.0000
  H   H197      1.0  0.13262  0.72495  0.13117  1.0000
  H   H198      1.0  0.12216  0.74760  0.09748  1.0000
  C   C195      1.0  0.14678  0.73323  0.35894  1.0000
  C   C196      1.0  0.14827  0.74777  0.34172  1.0000
  C   C197      1.0  0.14780  0.74623  0.31201  1.0000
  C   C198      1.0  0.14600  0.73014  0.29915  1.0000
  C   C199      1.0  0.14476  0.71557  0.31637  1.0000
  C   C200      1.0  0.14507  0.71714  0.34606  1.0000
  H   H199      1.0  0.14950  0.76024  0.35128  1.0000
  H   H200      1.0  0.14871  0.75760  0.29891  1.0000
  H   H201      1.0  0.14323  0.70314  0.30685  1.0000
  H   H202      1.0  0.14384  0.70580  0.35913  1.0000
  C   C201      1.0  0.13923  0.62826  0.25745  1.0000
  C   C202      1.0  0.21475  0.66903  0.24171  1.0000
  C   C203      1.0  0.21729  0.68527  0.22995  1.0000
  C   C204      1.0  0.00376  0.96551  0.37366  1.0000
  H   H203      1.0  0.14619  0.68736  0.04538  1.0000
  H   H204      1.0  0.20687  0.69194  0.21896  1.0000
  C   C205      1.0  0.03336  0.59171  0.06066  1.0000
  H   H205      1.0  0.06828  0.58951  0.10240  1.0000
  C   C206      1.0  0.22427  0.78919  0.99859  1.0000
  C   C207      1.0  0.18700  0.70397  0.28480  1.0000
  H   H206      1.0  0.21271  0.79719  0.99556  1.0000
  H   H207      1.0  0.16470  0.82913  0.41383  1.0000
  C   C208      1.0  0.07951  0.60949  0.17725  1.0000
  C   C209      1.0  0.09517  0.61520  0.16569  1.0000
  C   C210      1.0  0.10368  0.62927  0.17735  1.0000
  C   C211      1.0  0.09677  0.63779  0.20108  1.0000
  C   C212      1.0  0.08101  0.63221  0.21241  1.0000
  C   C213      1.0  0.07242  0.61823  0.20061  1.0000
  H   H208      1.0  0.10081  0.60863  0.14759  1.0000
  H   H209      1.0  0.11574  0.63334  0.16828  1.0000
  H   H210      1.0  0.07545  0.63865  0.23071  1.0000
  H   H211      1.0  0.06041  0.61411  0.20981  1.0000
  C   C214      1.0  0.01477  0.86648  0.04351  1.0000
  C   C215      1.0  0.99938  0.94139  0.34195  1.0000
  H   H212      1.0  0.04669  0.60845  0.12173  1.0000
  H   H213      1.0  0.04205  0.62210  0.09148  1.0000
  H   H214      1.0  0.16025  0.68606  0.99781  1.0000
  C   C216      1.0  0.19085  0.73346  0.26865  1.0000
  C   C217      1.0  0.11108  0.72185  0.48338  1.0000
  C   C218      1.0  0.19313  0.68852  0.29684  1.0000
  C   C219      1.0  0.18500  0.82508  0.44432  1.0000
  H   H215      1.0  0.02166  0.51015  0.10614  1.0000
  C   C220      1.0  0.00025  0.57902  0.31097  1.0000
  C   C221      1.0  0.08185  0.84751  0.42018  1.0000
  C   C222      1.0  0.09317  0.83609  0.40542  1.0000
  C   C223      1.0  0.10459  0.82450  0.41986  1.0000
  C   C224      1.0  0.10492  0.82415  0.44945  1.0000
  C   C225      1.0  0.09377  0.83573  0.46422  1.0000
  C   C226      1.0  0.08232  0.84729  0.44978  1.0000
  H   H216      1.0  0.09300  0.83609  0.38255  1.0000
  H   H217      1.0  0.11301  0.81575  0.40804  1.0000
  C   C227      1.0  0.24027  0.76230  0.99216  1.0000
  H   H218      1.0  0.07375  0.85591  0.46159  1.0000
  C   C228      1.0  0.04752  0.96480  0.37188  1.0000
  C   C229      1.0  0.04420  0.96055  0.34380  1.0000
  C   C230      1.0  0.99561  0.90323  0.03797  1.0000
  H   H219      1.0  0.02268  0.53948  0.31714  1.0000
  H   H220      1.0  0.04313  0.94725  0.33794  1.0000
  C   C231      1.0  0.16806  0.82904  0.43605  1.0000
  C   C232      1.0  0.23340  0.69293  0.23232  1.0000
  H   H221      1.0  0.99391  0.93861  0.32086  1.0000
  C   C233      1.0  0.21039  0.68679  0.30496  1.0000
  H   H222      1.0  0.10833  0.74179  0.00476  1.0000
  C   C234      1.0  0.22129  0.70049  0.30102  1.0000
  H   H223      1.0  0.19492  0.82203  0.42860  1.0000
  H   H224      1.0  0.11221  0.73656  0.42629  1.0000
  N   N17       1.0  0.12939  0.61771  0.24170  1.0000
  C   C235      1.0  0.13537  0.61163  0.21624  1.0000
  C   C236      1.0  0.15157  0.61619  0.20587  1.0000
  C   C237      1.0  0.11259  0.61259  0.25283  1.0000
  H   H225      1.0  0.12749  0.60343  0.20357  1.0000
  H   H226      1.0  0.15612  0.61166  0.18541  1.0000
  H   H227      1.0  0.10482  0.60628  0.23644  1.0000
  H   H228      1.0  0.11444  0.60357  0.27089  1.0000
  H   H229      1.0  0.10487  0.62412  0.25992  1.0000
  N   N18       1.0  0.17669  0.76276  0.08702  1.0000
  C   C238      1.0  0.17783  0.77151  0.06194  1.0000
  C   C239      1.0  0.18794  0.74927  0.09286  1.0000
  C   C240      1.0  0.19035  0.76667  0.04179  1.0000
  C   C241      1.0  0.20050  0.74397  0.07300  1.0000
  C   C242      1.0  0.20168  0.75277  0.04731  1.0000
  C   C243      1.0  0.16381  0.76840  0.10820  1.0000
  H   H230      1.0  0.16888  0.78218  0.05725  1.0000
  H   H231      1.0  0.18695  0.74222  0.11266  1.0000
  H   H232      1.0  0.19128  0.77362  0.02194  1.0000
  H   H233      1.0  0.20917  0.73306  0.07743  1.0000
  H   H234      1.0  0.21132  0.74885  0.03160  1.0000
  H   H235      1.0  0.16031  0.75764  0.12246  1.0000
  H   H236      1.0  0.16892  0.77893  0.12103  1.0000
  H   H237      1.0  0.15163  0.77304  0.09783  1.0000
  C   C244      1.0  0.00335  0.53252  0.28718  1.0000
  C   C245      1.0  0.13566  0.71158  0.45739  1.0000
  C   C246      1.0  0.05951  0.58637  0.08557  1.0000
  N   N19       1.0  0.04422  0.59550  0.08223  1.0000
  C   C247      1.0  0.06367  0.57230  0.06823  1.0000
  H   H238      1.0  0.09613  0.72073  0.43331  1.0000
  C   C248      1.0  0.22231  0.78630  0.47242  1.0000
  C   C249      1.0  0.03698  0.57763  0.04314  1.0000
  H   H239      1.0  0.14223  0.70923  0.43740  1.0000
  S   S88       1.0  0.99819  0.58225  0.09350  1.0000
  H   H240      1.0  0.07546  0.56467  0.07175  1.0000
  H   H241      1.0  0.02138  0.59915  0.05768  1.0000
  H   H242      1.0  0.04109  0.87421  0.04750  1.0000
  H   H243      1.0  0.20123  0.74215  0.26215  1.0000
  H   H244      1.0  0.21544  0.67468  0.31349  1.0000
  C   C250      1.0  0.05219  0.56779  0.04714  1.0000
  C   C251      1.0  0.22860  0.66052  0.25571  1.0000
  S   S89       1.0  0.16057  0.78758  0.99026  1.0000
  C   C252      1.0  0.04919  0.98215  0.37898  1.0000
  H   H245      1.0  0.22334  0.72630  0.28577  1.0000
  C   C253      1.0  0.99257  0.55548  0.05626  1.0000
  H   H246      1.0  0.18305  0.73086  0.24959  1.0000
  H   H247      1.0  0.01432  0.88892  0.31178  1.0000
  C   C254      1.0  0.00210  0.89181  0.30154  1.0000
  H   H248      1.0  0.11536  0.71500  0.41368  1.0000
  H   H249      1.0  0.09699  0.90585  0.46209  1.0000
  N   N20       1.0  0.00596  0.85908  0.99666  1.0000
  H   H250      1.0  0.04036  0.97022  0.30129  1.0000
  C   C255      1.0  0.14133  0.69544  0.02820  1.0000
  N   N21       1.0  0.00055  0.95988  0.34694  1.0000
  H   H251      1.0  0.00556  0.95642  0.39094  1.0000
  H   H252      1.0  0.02548  0.60914  0.10729  1.0000
  N   N22       1.0  0.19778  0.71732  0.28088  1.0000
  C   C256      1.0  0.04271  0.97359  0.32305  1.0000
  H   H253      1.0  0.05497  0.55661  0.03411  1.0000
  H   H254      1.0  0.14218  0.83514  0.45004  1.0000
  N   N23       1.0  0.12151  0.71766  0.01156  1.0000
  N   N24       1.0  0.08646  0.91735  0.38435  1.0000
  C   C257      1.0  0.08859  0.90050  0.39235  1.0000
  C   C258      1.0  0.08886  0.93016  0.40342  1.0000
  C   C259      1.0  0.09261  0.89613  0.42033  1.0000
  C   C260      1.0  0.09260  0.92626  0.43167  1.0000
  C   C261      1.0  0.09443  0.90911  0.44015  1.0000
  C   C262      1.0  0.08228  0.92177  0.35495  1.0000
  H   H255      1.0  0.08684  0.89028  0.37725  1.0000
  H   H256      1.0  0.08730  0.94354  0.39704  1.0000
  H   H257      1.0  0.09384  0.88274  0.42671  1.0000
  H   H258      1.0  0.09370  0.93649  0.44692  1.0000
  H   H259      1.0  0.01194  0.88623  0.25965  1.0000
  H   H260      1.0  0.07370  0.93353  0.35394  1.0000
  H   H261      1.0  0.09432  0.92408  0.34284  1.0000
  H   H262      1.0  0.07522  0.91136  0.34463  1.0000
  H   H263      1.0  0.18467  0.67779  0.29904  1.0000
  H   H264      1.0  0.09459  0.72362  0.00995  1.0000
  N   N25       1.0  0.15945  0.83171  0.48481  1.0000
  C   C263      1.0  0.02664  0.49727  0.11060  1.0000
  H   H265      1.0  0.09821  0.72780  0.48396  1.0000
  H   H266      1.0  0.13433  0.63336  0.27734  1.0000
  H   H267      1.0  0.00265  0.49505  0.16187  1.0000
  C   C264      1.0  0.15538  0.83237  0.45669  1.0000
  C   C265      1.0  0.16176  0.62679  0.22195  1.0000
  H   H268      1.0  0.17433  0.63056  0.21418  1.0000
  H   H269      1.0  0.01146  0.86874  0.06558  1.0000
  C   C266      1.0  0.11020  0.72285  0.43162  1.0000
  H   H270      1.0  0.02779  0.57415  0.02711  1.0000
  C   C267      1.0  0.12731  0.70695  0.03277  1.0000
  H   H271      1.0  0.00237  0.53898  0.35819  1.0000
  C   C268      1.0  0.99706  0.90250  0.00828  1.0000
  C   C269      1.0  0.00070  0.89028  0.27197  1.0000
  C   C270      1.0  0.03645  0.49408  0.13491  1.0000
  H   H272      1.0  0.01438  0.57758  0.27122  1.0000
  Fe  Fe48      1.0  0.14556  0.76389  0.99943  1.0000
  C   C271      1.0  0.21471  0.71579  0.28897  1.0000
  S   S90       1.0  0.20630  0.78707  0.44567  1.0000
  H   H273      1.0  0.18228  0.74018  0.28431  1.0000
  N   N26       1.0  0.11909  0.71833  0.45807  1.0000
  C   C272      1.0  0.03944  0.60955  0.10154  1.0000
  C   C273      1.0  0.10672  0.72955  0.01658  1.0000
  H   H274      1.0  0.00658  0.90697  0.05024  1.0000
  H   H275      1.0  0.01186  0.53344  0.26892  1.0000
  C   C274      1.0  0.14449  0.70782  0.48248  1.0000
  H   H276      1.0  0.01550  0.48984  0.19185  1.0000
  H   H277      1.0  0.04796  0.86970  0.99642  1.0000
  H   H278      1.0  0.10567  0.73313  0.03929  1.0000
  H   H279      1.0  0.17362  0.70517  0.27827  1.0000
  C   C275      1.0  0.00938  0.53599  0.31419  1.0000
  C   C276      1.0  0.99803  0.53568  0.33722  1.0000
  C   C277      1.0  0.23880  0.79592  0.01191  1.0000
  H   H280      1.0  0.12144  0.70760  0.05368  1.0000
  H   H281      1.0  0.99822  0.54694  0.07208  1.0000
  C   C278      1.0  0.99107  0.57312  0.06146  1.0000
  C   C279      1.0  0.03514  0.86728  0.00472  1.0000
  H   H282      1.0  0.23823  0.80906  0.01921  1.0000
  H   H283      1.0  0.23514  0.70552  0.22317  1.0000
  H   H284      1.0  0.99732  0.96686  0.30350  1.0000
  C   C280      1.0  0.00218  0.86110  0.02477  1.0000
  H   H285      1.0  0.01240  0.93498  0.34333  1.0000
  H   H286      1.0  0.22697  0.74291  0.47453  1.0000
  C   C281      1.0  0.99923  0.97132  0.32488  1.0000
  C   C282      1.0  0.14925  0.69478  0.00161  1.0000
  H   H287      1.0  0.99223  0.48796  0.19403  1.0000
  C   C283      1.0  0.00536  0.98303  0.37897  1.0000
  C   C284      1.0  0.22503  0.77240  0.98823  1.0000
  H   H288      1.0  0.23487  0.69911  0.30651  1.0000
  C   C285      1.0  0.18904  0.82439  0.47300  1.0000
  H   H289      1.0  0.20209  0.82076  0.47954  1.0000
  H   H290      1.0  0.15776  0.70286  0.48190  1.0000
  H   H291      1.0  0.05190  0.98556  0.40059  1.0000
  C   C286      1.0  0.23987  0.78675  0.46469  1.0000
  H   H292      1.0  0.99080  0.93548  0.35796  1.0000
  Fe  Fe49      1.0  0.02205  0.89005  0.86715  1.0000
  S   S91       1.0  0.04966  0.89523  0.87843  1.0000
  S   S92       1.0  0.01657  0.88031  0.82278  1.0000
  Fe  Fe50      1.0  0.00927  0.89658  0.92806  1.0000
  S   S93       1.0  0.03579  0.90244  0.94317  1.0000
  H   H293      1.0  0.20097  0.74394  0.55488  1.0000
  Fe  Fe51      1.0  0.03772  0.91777  0.90243  1.0000
  S   S94       1.0  0.04976  0.94419  0.90116  1.0000
  Fe  Fe52      1.0  0.04547  0.87941  0.91792  1.0000
  S   S95       1.0  0.06031  0.85670  0.93969  1.0000
  S   S96       1.0  0.01047  0.91335  0.88893  1.0000
  S   S97       1.0  0.01856  0.87284  0.90492  1.0000
  Fe  Fe53      1.0  0.01162  0.55898  0.69454  1.0000
  S   S98       1.0  0.04038  0.55457  0.69834  1.0000
  C   C287      1.0  0.11947  0.71802  0.50889  1.0000
  Fe  Fe54      1.0  0.01482  0.57129  0.63270  1.0000
  S   S99       1.0  0.04384  0.56806  0.63328  1.0000
  H   H294      1.0  0.99232  0.83898  0.97800  1.0000
  Fe  Fe55      1.0  0.03868  0.54276  0.65495  1.0000
  S   S100      1.0  0.05266  0.51758  0.64223  1.0000
  Fe  Fe56      1.0  0.04279  0.58027  0.67645  1.0000
  S   S101      1.0  0.05612  0.60415  0.69389  1.0000
  S   S102      1.0  0.00987  0.54560  0.65239  1.0000
  S   S103      1.0  0.01382  0.58507  0.67461  1.0000
  Fe  Fe57      1.0  0.14449  0.78971  0.95041  1.0000
  S   S104      1.0  0.12831  0.76722  0.96142  1.0000
  S   S105      1.0  0.13292  0.81421  0.92928  1.0000
  Fe  Fe58      1.0  0.17867  0.76966  0.96582  1.0000
  S   S106      1.0  0.99526  0.54999  0.73187  1.0000
  H   H295      1.0  0.00145  0.87561  0.50416  1.0000
  Fe  Fe59      1.0  0.14854  0.75123  0.93811  1.0000
  S   S107      1.0  0.14045  0.72848  0.91183  1.0000
  H   H296      1.0  0.11909  0.81016  0.85001  1.0000
  S   S108      1.0  0.16533  0.74033  0.52999  1.0000
  S   S109      1.0  0.16405  0.77368  0.92491  1.0000
  H   H297      1.0  0.17915  0.82654  0.51535  1.0000
  Fe  Fe60      1.0  0.17502  0.68410  0.70764  1.0000
  S   S110      1.0  0.16112  0.70984  0.70736  1.0000
  S   S111      1.0  0.20399  0.68723  0.70130  1.0000
  Fe  Fe61      1.0  0.14049  0.66561  0.71351  1.0000
  S   S112      1.0  0.12491  0.69062  0.71519  1.0000
  S   S113      1.0  0.12997  0.63838  0.70900  1.0000
  Fe  Fe62      1.0  0.14180  0.69868  0.67870  1.0000
  S   S114      1.0  0.12842  0.71202  0.64118  1.0000
  Fe  Fe63      1.0  0.14586  0.69985  0.74417  1.0000
  S   S115      1.0  0.14600  0.72116  0.77742  1.0000
  S   S116      1.0  0.15665  0.67351  0.67590  1.0000
  S   S117      1.0  0.16045  0.67424  0.74531  1.0000
  C   C288      1.0  0.15504  0.73392  0.56187  1.0000
  C   C289      1.0  0.13765  0.73802  0.56775  1.0000
  C   C290      1.0  0.12974  0.73135  0.59225  1.0000
  C   C291      1.0  0.13917  0.72081  0.61138  1.0000
  C   C292      1.0  0.15664  0.71701  0.60574  1.0000
  C   C293      1.0  0.16447  0.72342  0.58102  1.0000
  H   H298      1.0  0.13027  0.74616  0.55331  1.0000
  H   H299      1.0  0.11624  0.73444  0.59652  1.0000
  H   H300      1.0  0.16405  0.70890  0.62020  1.0000
  H   H301      1.0  0.17790  0.72008  0.57666  1.0000
  C   C294      1.0  0.14305  0.72626  0.87457  1.0000
  C   C295      1.0  0.14874  0.73970  0.85755  1.0000
  C   C296      1.0  0.14969  0.73778  0.82794  1.0000
  C   C297      1.0  0.14532  0.72232  0.81497  1.0000
  C   C298      1.0  0.14010  0.70870  0.83206  1.0000
  C   C299      1.0  0.13884  0.71073  0.86167  1.0000
  H   H302      1.0  0.15229  0.75161  0.86712  1.0000
  H   H303      1.0  0.15380  0.74838  0.81493  1.0000
  H   H304      1.0  0.13661  0.69677  0.82242  1.0000
  H   H305      1.0  0.13442  0.70024  0.87460  1.0000
  C   C300      1.0  0.03376  0.54661  0.57055  1.0000
  C   C301      1.0  0.22161  0.67992  0.72248  1.0000
  C   C302      1.0  0.22016  0.66670  0.74241  1.0000
  H   H306      1.0  0.15047  0.84230  0.52393  1.0000
  H   H307      1.0  0.03443  0.55865  0.55790  1.0000
  H   H308      1.0  0.20792  0.66063  0.74530  1.0000
  C   C303      1.0  0.03257  0.51586  0.56065  1.0000
  H   H309      1.0  0.06211  0.92707  0.84344  1.0000
  C   C304      1.0  0.22075  0.71305  0.77020  1.0000
  H   H310      1.0  0.22912  0.72120  0.75797  1.0000
  C   C305      1.0  0.99786  0.90170  0.51821  1.0000
  H   H311      1.0  0.22738  0.78477  0.54394  1.0000
  C   C306      1.0  0.07687  0.61325  0.69814  1.0000
  C   C307      1.0  0.09238  0.60435  0.69143  1.0000
  C   C308      1.0  0.10840  0.61217  0.69534  1.0000
  C   C309      1.0  0.10925  0.62911  0.70547  1.0000
  C   C310      1.0  0.09374  0.63803  0.71210  1.0000
  C   C311      1.0  0.07772  0.63010  0.70867  1.0000
  H   H312      1.0  0.09205  0.59137  0.68353  1.0000
  H   H313      1.0  0.12027  0.60503  0.69038  1.0000
  H   H314      1.0  0.09408  0.65100  0.72005  1.0000
  H   H315      1.0  0.06587  0.63714  0.71407  1.0000
  C   C312      1.0  0.21761  0.68996  0.80385  1.0000
  C   C313      1.0  0.99183  0.57193  0.56510  1.0000
  H   H316      1.0  0.02459  0.54903  0.58838  1.0000
  C   C314      1.0  0.10880  0.80656  0.86432  1.0000
  H   H317      1.0  0.06761  0.97880  0.81424  1.0000
  C   C315      1.0  0.21790  0.78563  0.50112  1.0000
  H   H318      1.0  0.06196  0.97856  0.89928  1.0000
  H   H319      1.0  0.02831  0.91763  0.79162  1.0000
  C   C316      1.0  0.22819  0.70108  0.78908  1.0000
  H   H320      1.0  0.01688  0.50969  0.62877  1.0000
  C   C317      1.0  0.08101  0.81309  0.88587  1.0000
  C   C318      1.0  0.08093  0.84560  0.93711  1.0000
  C   C319      1.0  0.08424  0.83106  0.95443  1.0000
  C   C320      1.0  0.10011  0.82150  0.95276  1.0000
  C   C321      1.0  0.11300  0.82635  0.93371  1.0000
  C   C322      1.0  0.10978  0.84103  0.91666  1.0000
  C   C323      1.0  0.09388  0.85053  0.91822  1.0000
  H   H321      1.0  0.07442  0.82711  0.96925  1.0000
  H   H322      1.0  0.10232  0.81034  0.96615  1.0000
  H   H323      1.0  0.11965  0.84501  0.90195  1.0000
  H   H324      1.0  0.09166  0.86170  0.90485  1.0000
  C   C324      1.0  0.04183  0.96298  0.88319  1.0000
  C   C325      1.0  0.02763  0.96273  0.86511  1.0000
  H   H325      1.0  0.02538  0.85999  0.96444  1.0000
  Fe  Fe64      1.0  0.15690  0.75747  0.49276  1.0000
  H   H326      1.0  0.02047  0.95114  0.86321  1.0000
  C   C326      1.0  0.22885  0.74448  0.55593  1.0000
  H   H327      1.0  0.02924  0.48891  0.55264  1.0000
  H   H328      1.0  0.04173  0.51334  0.57755  1.0000
  H   H329      1.0  0.20249  0.73889  0.74710  1.0000
  H   H330      1.0  0.02505  0.92034  0.82915  1.0000
  C   C327      1.0  0.04723  0.96482  0.79529  1.0000
  H   H331      1.0  0.14900  0.70507  0.95908  1.0000
  H   H332      1.0  0.12423  0.72510  0.96824  1.0000
  C   C328      1.0  0.12897  0.71683  0.98526  1.0000
  C   C329      1.0  0.01616  0.53560  0.53232  1.0000
  H   H333      1.0  0.99514  0.85754  0.95539  1.0000
  C   C330      1.0  0.05821  0.93741  0.82911  1.0000
  H   H334      1.0  0.00772  0.49456  0.51455  1.0000
  H   H335      1.0  0.04681  0.54364  0.57940  1.0000
  N   N27       1.0  0.03324  0.57443  0.77988  1.0000
  C   C331      1.0  0.02369  0.57959  0.80298  1.0000
  C   C332      1.0  0.03832  0.58620  0.76019  1.0000
  C   C333      1.0  0.01938  0.59699  0.80718  1.0000
  C   C334      1.0  0.03414  0.60367  0.76360  1.0000
  C   C335      1.0  0.02461  0.60908  0.78728  1.0000
  C   C336      1.0  0.03724  0.55611  0.77537  1.0000
  C   C337      1.0  0.03492  0.91981  0.81201  1.0000
  H   H336      1.0  0.04562  0.58215  0.74158  1.0000
  H   H337      1.0  0.01147  0.60094  0.82524  1.0000
  H   H338      1.0  0.03817  0.61289  0.74775  1.0000
  H   H339      1.0  0.05008  0.55412  0.76501  1.0000
  H   H340      1.0  0.03752  0.54884  0.79564  1.0000
  C   C338      1.0  0.00882  0.52209  0.51790  1.0000
  H   H341      1.0  0.02742  0.94814  0.78190  1.0000
  H   H342      1.0  0.01897  0.57023  0.81799  1.0000
  C   C339      1.0  0.21288  0.74377  0.54255  1.0000
  N   N28       1.0  0.11058  0.65093  0.64226  1.0000
  C   C340      1.0  0.11161  0.66827  0.64590  1.0000
  C   C341      1.0  0.09490  0.64338  0.64321  1.0000
  C   C342      1.0  0.09678  0.67842  0.65188  1.0000
  C   C343      1.0  0.07979  0.65314  0.64905  1.0000
  C   C344      1.0  0.08079  0.67075  0.65364  1.0000
  C   C345      1.0  0.12629  0.64053  0.63610  1.0000
  H   H343      1.0  0.12394  0.67439  0.64444  1.0000
  H   H344      1.0  0.09405  0.62962  0.64041  1.0000
  H   H345      1.0  0.09779  0.69213  0.65529  1.0000
  H   H346      1.0  0.06747  0.64694  0.65076  1.0000
  H   H347      1.0  0.06923  0.67844  0.65867  1.0000
  H   H348      1.0  0.13755  0.64555  0.64748  1.0000
  H   H349      1.0  0.12505  0.62710  0.64376  1.0000
  H   H350      1.0  0.12901  0.64056  0.61305  1.0000
  N   N29       1.0  0.11052  0.79191  0.88030  1.0000
  C   C346      1.0  0.09784  0.78764  0.89911  1.0000
  C   C347      1.0  0.08289  0.79815  0.90216  1.0000
  C   C348      1.0  0.12618  0.78091  0.87712  1.0000
  H   H351      1.0  0.09935  0.77624  0.91222  1.0000
  H   H352      1.0  0.07307  0.79503  0.91762  1.0000
  H   H353      1.0  0.13776  0.78841  0.88179  1.0000
  H   H354      1.0  0.12627  0.76969  0.89178  1.0000
  H   H355      1.0  0.12721  0.77590  0.85520  1.0000
  H   H356      1.0  0.00747  0.86948  0.76715  1.0000
  S   S118      1.0  0.16419  0.74600  0.97727  1.0000
  H   H357      1.0  0.22331  0.68029  0.81789  1.0000
  C   C349      1.0  0.22764  0.74310  0.49742  1.0000
  C   C350      1.0  0.09401  0.81732  0.86676  1.0000
  H   H358      1.0  0.19142  0.68215  0.81057  1.0000
  H   H359      1.0  0.06976  0.82167  0.88872  1.0000
  C   C351      1.0  0.99604  0.88395  0.52039  1.0000
  S   S119      1.0  0.00350  0.58244  0.59171  1.0000
  H   H360      1.0  0.02107  0.62257  0.78999  1.0000
  H   H361      1.0  0.20445  0.78535  0.50743  1.0000
  C   C352      1.0  0.02502  0.49839  0.62482  1.0000
  C   C353      1.0  0.03877  0.94923  0.79496  1.0000
  H   H362      1.0  0.99228  0.92607  0.53823  1.0000
  H   H363      1.0  0.09287  0.82917  0.85464  1.0000
  N   N30       1.0  0.04444  0.93573  0.81151  1.0000
  H   H364      1.0  0.04370  0.90842  0.81571  1.0000
  C   C354      1.0  0.19576  0.72657  0.74633  1.0000
  N   N31       1.0  0.02773  0.53238  0.55359  1.0000
  H   H365      1.0  0.19987  0.74271  0.50261  1.0000
  H   H366      1.0  0.99922  0.52477  0.50164  1.0000
  C   C355      1.0  0.04270  0.49861  0.63068  1.0000
  C   C356      1.0  0.00181  0.88932  0.79776  1.0000
  C   C357      1.0  0.23093  0.78534  0.52179  1.0000
  H   H367      1.0  0.11319  0.72088  0.52898  1.0000
  C   C358      1.0  0.99999  0.88118  0.77153  1.0000
  H   H368      1.0  0.22950  0.74530  0.57878  1.0000
  C   C359      1.0  0.06700  0.95277  0.82990  1.0000
  C   C360      1.0  0.01352  0.50518  0.52521  1.0000
  C   C361      1.0  0.14298  0.70545  0.97992  1.0000
  H   H369      1.0  0.14302  0.70807  0.52793  1.0000
  H   H370      1.0  0.17893  0.70368  0.77734  1.0000
  N   N32       1.0  0.20322  0.71414  0.76661  1.0000
  H   H371      1.0  0.01222  0.54871  0.52688  1.0000
  H   H372      1.0  0.23355  0.65061  0.77315  1.0000
  C   C362      1.0  0.23472  0.66103  0.75812  1.0000
  C   C363      1.0  0.06143  0.96655  0.81289  1.0000
  H   H373      1.0  0.19695  0.72127  0.72461  1.0000
  C   C364      1.0  0.19277  0.70314  0.78076  1.0000
  C   C365      1.0  0.17601  0.82765  0.49309  1.0000
  H   H374      1.0  0.02727  0.55065  0.76161  1.0000
  C   C366      1.0  0.23768  0.68755  0.71876  1.0000
  H   H375      1.0  0.07746  0.95423  0.84473  1.0000
  S   S120      1.0  0.16213  0.78566  0.49090  1.0000
  H   H376      1.0  0.99475  0.59261  0.53513  1.0000
  C   C367      1.0  0.02558  0.50201  0.54657  1.0000
  C   C368      1.0  0.99213  0.90446  0.80314  1.0000
  C   C369      1.0  0.19977  0.69093  0.79965  1.0000
  S   S121      1.0  0.20787  0.76367  0.96876  1.0000
  H   H377      1.0  0.04236  0.97574  0.78299  1.0000
  H   H378      1.0  0.13410  0.84076  0.49741  1.0000
  H   H379      1.0  0.18184  0.72947  0.75097  1.0000
  H   H380      1.0  0.23897  0.69769  0.70323  1.0000
  H   H381      1.0  0.01253  0.97672  0.83379  1.0000
  C   C370      1.0  0.05093  0.97824  0.88540  1.0000
  C   C371      1.0  0.02313  0.97730  0.84849  1.0000
  C   C372      1.0  0.13624  0.71086  0.50833  1.0000
  C   C373      1.0  0.21225  0.74303  0.51314  1.0000
  H   H382      1.0  0.99327  0.91080  0.82328  1.0000
  C   C374      1.0  0.99266  0.85319  0.97746  1.0000
  H   H383      1.0  0.14209  0.82162  0.51486  1.0000
  C   C375      1.0  0.14591  0.83429  0.50635  1.0000
  H   H384      1.0  0.23978  0.76689  0.92590  1.0000
  S   S122      1.0  0.00766  0.91150  0.48844  1.0000
  C   C376      1.0  0.02226  0.86184  0.98662  1.0000
  H   H385      1.0  0.09382  0.83563  0.48709  1.0000
  C   C377      1.0  0.99083  0.91233  0.53965  1.0000
  Fe  Fe65      1.0  0.32653  0.19929  0.17143  1.0000
  S   S123      1.0  0.31148  0.17517  0.17007  1.0000
  S   S124      1.0  0.33765  0.20781  0.12877  1.0000
  Fe  Fe66      1.0  0.32604  0.19930  0.23700  1.0000
  S   S125      1.0  0.31133  0.17487  0.23893  1.0000
  S   S126      1.0  0.33473  0.20954  0.27980  1.0000
  Fe  Fe67      1.0  0.32947  0.16520  0.20421  1.0000
  S   S127      1.0  0.34115  0.13753  0.20306  1.0000
  Fe  Fe68      1.0  0.29498  0.18713  0.20473  1.0000
  S   S128      1.0  0.26563  0.19132  0.20188  1.0000
  S   S129      1.0  0.34517  0.18878  0.20443  1.0000
  S   S130      1.0  0.30904  0.21205  0.20400  1.0000
  C   C378      1.0  0.28953  0.19451  0.29784  1.0000
  C   C379      1.0  0.48535  0.07061  0.99662  1.0000
  S   S131      1.0  0.31038  0.26365  0.03844  1.0000
  Fe  Fe69      1.0  0.31296  0.27048  0.41454  1.0000
  S   S132      1.0  0.31131  0.29835  0.42786  1.0000
  S   S133      1.0  0.30547  0.26531  0.36867  1.0000
  Fe  Fe70      1.0  0.33679  0.29271  0.44957  1.0000
  S   S134      1.0  0.36254  0.30651  0.44186  1.0000
  Fe  Fe71      1.0  0.29824  0.28862  0.46762  1.0000
  C   C380      1.0  0.35315  0.28177  0.36776  1.0000
  S   S135      1.0  0.33860  0.26498  0.43517  1.0000
  S   S136      1.0  0.29795  0.26150  0.45240  1.0000
  Fe  Fe72      1.0  0.42132  0.39135  0.41256  1.0000
  S   S137      1.0  0.44492  0.37417  0.40612  1.0000
  S   S138      1.0  0.39442  0.38127  0.42434  1.0000
  Fe  Fe73      1.0  0.44206  0.42439  0.40107  1.0000
  S   S139      1.0  0.46669  0.40863  0.39445  1.0000
  S   S140      1.0  0.44930  0.45258  0.39653  1.0000
  Fe  Fe74      1.0  0.45081  0.39128  0.36860  1.0000
  S   S141      1.0  0.45716  0.38155  0.32401  1.0000
  Fe  Fe75      1.0  0.45864  0.39347  0.43269  1.0000
  C   C381      1.0  0.47931  0.39470  0.99907  1.0000
  S   S142      1.0  0.42633  0.40752  0.37346  1.0000
  S   S143      1.0  0.43487  0.41002  0.44100  1.0000
  Fe  Fe76      1.0  0.43004  0.07962  0.15911  1.0000
  S   S144      1.0  0.45874  0.08400  0.15474  1.0000
  S   S145      1.0  0.41374  0.10514  0.15842  1.0000
  Fe  Fe77      1.0  0.43667  0.04073  0.16440  1.0000
  S   S146      1.0  0.46529  0.04305  0.16155  1.0000
  S   S147      1.0  0.42752  0.01353  0.17209  1.0000
  Fe  Fe78      1.0  0.46209  0.06534  0.19092  1.0000
  C   C382      1.0  0.35582  0.32955  0.37136  1.0000
  Fe  Fe79      1.0  0.45999  0.06135  0.12546  1.0000
  S   S148      1.0  0.47865  0.38510  0.46600  1.0000
  S   S149      1.0  0.43355  0.06201  0.19695  1.0000
  S   S150      1.0  0.43114  0.05801  0.12684  1.0000
  H   H386      1.0  0.24224  0.20764  0.28056  1.0000
  H   H387      1.0  0.46295  0.37341  0.26539  1.0000
  C   C383      1.0  0.41990  0.44528  0.30160  1.0000
  H   H388      1.0  0.37891  0.15002  0.10576  1.0000
  H   H389      1.0  0.27901  0.17758  0.32917  1.0000
  C   C384      1.0  0.48426  0.06932  0.25959  1.0000
  C   C385      1.0  0.25901  0.19190  0.30670  1.0000
  H   H390      1.0  0.45561  0.38375  0.05711  1.0000
  H   H391      1.0  0.36171  0.27884  0.38609  1.0000
  C   C386      1.0  0.42828  0.46076  0.30403  1.0000
  C   C387      1.0  0.32643  0.32265  0.36102  1.0000
  S   S151      1.0  0.47978  0.05506  0.09040  1.0000
  H   H392      1.0  0.45184  0.47266  0.31496  1.0000
  C   C388      1.0  0.42924  0.99665  0.14699  1.0000
  C   C389      1.0  0.43241  0.99989  0.11836  1.0000
  C   C390      1.0  0.47641  0.01229  0.10618  1.0000
  H   H393      1.0  0.43319  0.01300  0.11092  1.0000
  C   C391      1.0  0.46521  0.38945  0.01520  1.0000
  C   C392      1.0  0.44544  0.46057  0.31312  1.0000
  H   H394      1.0  0.31912  0.32866  0.00731  1.0000
  H   H395      1.0  0.43520  0.48122  0.44344  1.0000
  H   H396      1.0  0.37348  0.30793  0.37674  1.0000
  H   H397      1.0  0.32175  0.29581  0.35716  1.0000
  H   H398      1.0  0.25231  0.22240  0.23904  1.0000
  C   C393      1.0  0.47225  0.38932  0.29871  1.0000
  H   H399      1.0  0.42970  0.32681  0.48371  1.0000
  H   H400      1.0  0.40657  0.44522  0.29469  1.0000
  C   C394      1.0  0.36029  0.31199  0.37177  1.0000
  H   H401      1.0  0.25490  0.29290  0.44560  1.0000
  S   S152      1.0  0.48603  0.07209  0.35682  1.0000
  H   H402      1.0  0.34176  0.27357  0.37014  1.0000
  H   H403      1.0  0.47518  0.45810  0.33834  1.0000
  C   C395      1.0  0.43962  0.47088  0.37970  1.0000
  C   C396      1.0  0.34987  0.16586  0.12457  1.0000
  H   H404      1.0  0.25954  0.23276  0.07241  1.0000
  H   H405      1.0  0.46309  0.08747  0.00397  1.0000
  C   C397      1.0  0.37093  0.32751  0.43678  1.0000
  C   C398      1.0  0.36091  0.34265  0.44056  1.0000
  C   C399      1.0  0.36825  0.35887  0.43624  1.0000
  C   C400      1.0  0.38567  0.36031  0.42786  1.0000
  C   C401      1.0  0.39562  0.34515  0.42363  1.0000
  C   C402      1.0  0.38833  0.32894  0.42822  1.0000
  H   H406      1.0  0.34753  0.34190  0.44704  1.0000
  H   H407      1.0  0.36037  0.37044  0.43964  1.0000
  H   H408      1.0  0.40900  0.34592  0.41717  1.0000
  H   H409      1.0  0.45336  0.38626  0.00481  1.0000
  C   C403      1.0  0.42183  0.47266  0.37518  1.0000
  C   C404      1.0  0.45657  0.34757  0.47863  1.0000
  H   H410      1.0  0.36547  0.33893  0.37578  1.0000
  C   C405      1.0  0.25199  0.24398  0.06536  1.0000
  C   C406      1.0  0.36208  0.12896  0.19310  1.0000
  C   C407      1.0  0.37515  0.13930  0.18273  1.0000
  C   C408      1.0  0.39094  0.13178  0.17283  1.0000
  C   C409      1.0  0.39401  0.11383  0.17328  1.0000
  C   C410      1.0  0.38117  0.10352  0.18452  1.0000
  C   C411      1.0  0.36533  0.11105  0.19426  1.0000
  H   H411      1.0  0.37299  0.15309  0.18190  1.0000
  H   H412      1.0  0.40077  0.13994  0.16438  1.0000
  H   H413      1.0  0.38324  0.08971  0.18506  1.0000
  H   H414      1.0  0.35538  0.10288  0.20229  1.0000
  H   H415      1.0  0.45909  0.06386  0.31820  1.0000
  H   H416      1.0  0.46079  0.35150  0.45708  1.0000
  H   H417      1.0  0.33504  0.34844  0.36654  1.0000
  H   H418      1.0  0.26281  0.16548  0.24730  1.0000
  C   C412      1.0  0.32628  0.22520  0.30406  1.0000
  C   C413      1.0  0.33275  0.22521  0.33182  1.0000
  C   C414      1.0  0.32654  0.23732  0.35189  1.0000
  C   C415      1.0  0.31376  0.24963  0.34441  1.0000
  C   C416      1.0  0.30739  0.24972  0.31660  1.0000
  C   C417      1.0  0.31365  0.23766  0.29650  1.0000
  H   H419      1.0  0.34261  0.21573  0.33787  1.0000
  H   H420      1.0  0.33160  0.23706  0.37315  1.0000
  H   H421      1.0  0.29765  0.25931  0.31049  1.0000
  H   H422      1.0  0.30896  0.23829  0.27506  1.0000
  C   C418      1.0  0.32890  0.22261  0.10338  1.0000
  C   C419      1.0  0.33608  0.22280  0.07594  1.0000
  C   C420      1.0  0.33017  0.23485  0.05546  1.0000
  C   C421      1.0  0.31721  0.24710  0.06240  1.0000
  C   C422      1.0  0.30994  0.24685  0.08977  1.0000
  C   C423      1.0  0.31561  0.23457  0.11007  1.0000
  H   H423      1.0  0.34640  0.21365  0.07056  1.0000
  H   H424      1.0  0.33595  0.23491  0.03457  1.0000
  H   H425      1.0  0.30000  0.25633  0.09547  1.0000
  H   H426      1.0  0.31005  0.23467  0.13111  1.0000
  N   N33       1.0  0.35337  0.14732  0.12204  1.0000
  C   C424      1.0  0.36907  0.14122  0.11218  1.0000
  C   C425      1.0  0.34128  0.13622  0.13147  1.0000
  C   C426      1.0  0.37290  0.12353  0.11129  1.0000
  C   C427      1.0  0.34468  0.11847  0.13088  1.0000
  C   C428      1.0  0.36062  0.11212  0.12076  1.0000
  H   H427      1.0  0.42152  0.47287  0.29923  1.0000
  C   C429      1.0  0.48134  0.06123  0.05429  1.0000
  C   C430      1.0  0.33873  0.33487  0.36625  1.0000
  C   C431      1.0  0.33140  0.30520  0.36128  1.0000
  H   H428      1.0  0.33530  0.10978  0.13946  1.0000
  C   C432      1.0  0.46992  0.07335  0.04194  1.0000
  N   N34       1.0  0.26882  0.21114  0.27055  1.0000
  C   C433      1.0  0.28561  0.20652  0.27656  1.0000
  H   H429      1.0  0.38560  0.11871  0.10453  1.0000
  C   C434      1.0  0.24820  0.18446  0.22335  1.0000
  H   H430      1.0  0.48341  0.38388  0.22886  1.0000
  H   H431      1.0  0.44323  0.37927  0.48158  1.0000
  C   C435      1.0  0.33082  0.32107  0.01172  1.0000
  C   C436      1.0  0.27612  0.18709  0.31288  1.0000
  C   C437      1.0  0.46654  0.38802  0.04489  1.0000
  H   H432      1.0  0.33635  0.16937  0.11848  1.0000
  H   H433      1.0  0.39625  0.31738  0.42507  1.0000
  C   C438      1.0  0.25558  0.20415  0.28552  1.0000
  H   H434      1.0  0.37400  0.32261  0.00540  1.0000
  H   H435      1.0  0.35841  0.17343  0.11067  1.0000
  C   C439      1.0  0.48188  0.39198  0.05887  1.0000
  H   H436      1.0  0.35179  0.16991  0.14677  1.0000
  H   H437      1.0  0.47663  0.00787  0.36943  1.0000
  C   C440      1.0  0.26505  0.22433  0.24902  1.0000
  C   C441      1.0  0.25986  0.25676  0.04954  1.0000
  H   H438      1.0  0.48337  0.33495  0.11814  1.0000
  S   S153      1.0  0.48374  0.07031  0.22211  1.0000
  C   C442      1.0  0.36050  0.30119  0.02240  1.0000
  C   C443      1.0  0.32946  0.30479  0.02403  1.0000
  H   H439      1.0  0.31308  0.32659  0.35708  1.0000
  N   N35       1.0  0.34667  0.32731  0.00520  1.0000
  H   H440      1.0  0.34590  0.35429  0.01120  1.0000
  C   C444      1.0  0.47197  0.07804  0.01329  1.0000
  N   N36       1.0  0.34808  0.30007  0.36720  1.0000
  H   H441      1.0  0.48068  0.44153  0.31265  1.0000
  H   H442      1.0  0.45954  0.07913  0.05448  1.0000
  H   H443      1.0  0.42248  0.41768  0.30629  1.0000
  C   C445      1.0  0.47048  0.06642  0.30572  1.0000
  H   H444      1.0  0.48550  0.35694  0.12915  1.0000
  C   C446      1.0  0.48424  0.40164  0.30552  1.0000
  N   N37       1.0  0.43831  0.35256  0.48298  1.0000
  N   N38       1.0  0.45383  0.44543  0.32037  1.0000
  Fe  Fe80      1.0  0.32345  0.25848  0.47467  1.0000
  H   H445      1.0  0.29612  0.21200  0.26475  1.0000
  C   C447      1.0  0.47211  0.38298  0.27090  1.0000
  C   C448      1.0  0.36142  0.31765  0.01055  1.0000
  C   C449      1.0  0.34776  0.34482  0.99392  1.0000
  H   H446      1.0  0.47056  0.00534  0.16036  1.0000
  H   H447      1.0  0.48243  0.35147  0.07070  1.0000
  H   H448      1.0  0.30294  0.19097  0.30239  1.0000
  H   H449      1.0  0.45775  0.06268  0.26566  1.0000
  H   H450      1.0  0.36370  0.09842  0.12124  1.0000
  N   N39       1.0  0.43362  0.10574  0.24217  1.0000
  C   C450      1.0  0.43968  0.10500  0.26929  1.0000
  C   C451      1.0  0.44473  0.10804  0.21996  1.0000
  C   C452      1.0  0.45732  0.10641  0.27465  1.0000
  C   C453      1.0  0.46245  0.10935  0.22454  1.0000
  H   H451      1.0  0.25607  0.28122  0.02853  1.0000
  C   C454      1.0  0.47174  0.44534  0.33019  1.0000
  H   H452      1.0  0.43094  0.10308  0.28695  1.0000
  H   H453      1.0  0.26515  0.23728  0.25865  1.0000
  H   H454      1.0  0.46222  0.10528  0.29607  1.0000
  H   H455      1.0  0.31689  0.29990  0.02945  1.0000
  Fe  Fe81      1.0  0.31348  0.26603  0.99049  1.0000
  H   H456      1.0  0.40776  0.10044  0.25565  1.0000
  C   C455      1.0  0.48587  0.07052  0.31940  1.0000
  H   H457      1.0  0.40962  0.11693  0.22896  1.0000
  C   C456      1.0  0.42875  0.42986  0.30816  1.0000
  H   H458      1.0  0.35998  0.27815  0.34784  1.0000
  C   C457      1.0  0.34439  0.29477  0.02925  1.0000
  H   H459      1.0  0.43996  0.10861  0.19848  1.0000
  H   H460      1.0  0.45907  0.33352  0.48103  1.0000
  H   H461      1.0  0.41355  0.46224  0.38072  1.0000
  H   H462      1.0  0.47946  0.01173  0.08322  1.0000
  C   C458      1.0  0.25025  0.17171  0.24415  1.0000
  H   H463      1.0  0.32919  0.14109  0.14068  1.0000
  C   C459      1.0  0.46969  0.06571  0.27595  1.0000
  H   H464      1.0  0.45249  0.41820  0.32302  1.0000
  C   C460      1.0  0.41512  0.10438  0.23659  1.0000
  H   H465      1.0  0.47133  0.11037  0.20679  1.0000
  C   C461      1.0  0.44580  0.43020  0.31760  1.0000
  H   H466      1.0  0.41311  0.09460  0.22002  1.0000
  C   C462      1.0  0.47251  0.99389  0.14764  1.0000
  C   C463      1.0  0.25009  0.27123  0.04089  1.0000
  H   H467      1.0  0.27351  0.25549  0.04410  1.0000
  H   H468      1.0  0.37218  0.29347  0.02637  1.0000
  H   H469      1.0  0.48480  0.40637  0.32691  1.0000
  C   C464      1.0  0.46875  0.10855  0.25207  1.0000
  C   C465      1.0  0.48371  0.38890  0.25011  1.0000
  H   H470      1.0  0.34340  0.28204  0.03859  1.0000
  H   H471      1.0  0.47356  0.43611  0.34806  1.0000
  C   C466      1.0  0.24645  0.29279  0.46390  1.0000
  H   H472      1.0  0.46386  0.01952  0.10861  1.0000
  S   S154      1.0  0.48317  0.38893  0.09616  1.0000
  N   N40       1.0  0.47543  0.99520  0.11917  1.0000
  C   C467      1.0  0.48821  0.00667  0.35646  1.0000
  H   H473      1.0  0.24843  0.18602  0.31787  1.0000
  H   H474      1.0  0.46672  0.47585  0.44916  1.0000
  C   C468      1.0  0.43358  0.36963  0.48396  1.0000
  H   H475      1.0  0.48255  0.10890  0.25578  1.0000
  H   H476      1.0  0.27474  0.22355  0.23157  1.0000
  C   C469      1.0  0.42608  0.34034  0.48520  1.0000
  H   H477      1.0  0.48466  0.07780  0.47895  1.0000
  H   H478      1.0  0.46394  0.48342  0.37607  1.0000
  H   H479      1.0  0.48657  0.01975  0.11647  1.0000
  C   C470      1.0  0.45016  0.48463  0.37256  1.0000
  H   H480      1.0  0.43699  0.98884  0.07714  1.0000
  Fe  Fe82      1.0  0.31410  0.21205  0.66951  1.0000
  S   S155      1.0  0.31073  0.18381  0.66355  1.0000
  S   S156      1.0  0.31681  0.23383  0.63722  1.0000
  Fe  Fe83      1.0  0.31369  0.20865  0.73519  1.0000
  S   S157      1.0  0.31067  0.17993  0.73373  1.0000
  S   S158      1.0  0.31009  0.22773  0.77159  1.0000
  Fe  Fe84      1.0  0.33061  0.17978  0.69798  1.0000
  S   S159      1.0  0.35682  0.16514  0.69052  1.0000
  Fe  Fe85      1.0  0.29110  0.18605  0.69948  1.0000
  S   S160      1.0  0.26370  0.17634  0.69492  1.0000
  S   S161      1.0  0.33477  0.20832  0.70226  1.0000
  S   S162      1.0  0.29327  0.21448  0.70258  1.0000
  H   H481      1.0  0.46568  0.00625  0.59930  1.0000
  S   S163      1.0  0.29920  0.29008  0.97523  1.0000
  S   S164      1.0  0.32659  0.23469  0.50310  1.0000
  Fe  Fe86      1.0  0.32156  0.25501  0.92922  1.0000
  S   S165      1.0  0.30775  0.27815  0.91090  1.0000
  S   S166      1.0  0.33338  0.23456  0.89998  1.0000
  Fe  Fe87      1.0  0.32145  0.29286  0.94449  1.0000
  S   S167      1.0  0.33260  0.31907  0.93338  1.0000
  Fe  Fe88      1.0  0.28714  0.27306  0.94347  1.0000
  C   C471      1.0  0.28151  0.27188  0.56449  1.0000
  S   S168      1.0  0.33648  0.26988  0.96151  1.0000
  S   S169      1.0  0.30031  0.24898  0.95996  1.0000
  Fe  Fe89      1.0  0.42190  0.37573  0.91644  1.0000
  S   S170      1.0  0.45019  0.37050  0.90594  1.0000
  S   S171      1.0  0.40767  0.35169  0.93182  1.0000
  Fe  Fe90      1.0  0.42585  0.41462  0.90505  1.0000
  S   S172      1.0  0.45403  0.41169  0.89431  1.0000
  S   S173      1.0  0.41153  0.44074  0.90380  1.0000
  Fe  Fe91      1.0  0.44647  0.38880  0.86916  1.0000
  S   S174      1.0  0.45362  0.38256  0.82310  1.0000
  Fe  Fe92      1.0  0.45538  0.39378  0.93218  1.0000
  H   H482      1.0  0.28637  0.24218  0.51339  1.0000
  S   S175      1.0  0.41788  0.39261  0.87791  1.0000
  S   S176      1.0  0.42754  0.39824  0.94466  1.0000
  Fe  Fe93      1.0  0.41619  0.07820  0.65730  1.0000
  S   S177      1.0  0.43857  0.09481  0.64751  1.0000
  S   S178      1.0  0.38907  0.08890  0.66964  1.0000
  Fe  Fe94      1.0  0.43871  0.04458  0.64979  1.0000
  S   S179      1.0  0.46243  0.05954  0.63992  1.0000
  S   S180      1.0  0.44616  0.01592  0.65260  1.0000
  Fe  Fe95      1.0  0.45385  0.07661  0.67581  1.0000
  S   S181      1.0  0.47296  0.08722  0.70692  1.0000
  Fe  Fe96      1.0  0.44512  0.07599  0.61257  1.0000
  S   S182      1.0  0.45182  0.08451  0.56770  1.0000
  S   S183      1.0  0.43128  0.06083  0.68766  1.0000
  S   S184      1.0  0.42162  0.06029  0.62034  1.0000
  C   C472      1.0  0.46878  0.07542  0.54666  1.0000
  H   H483      1.0  0.45755  0.40971  0.55670  1.0000
  H   H484      1.0  0.39886  0.33548  0.49010  1.0000
  C   C473      1.0  0.47033  0.08064  0.51826  1.0000
  N   N41       1.0  0.28121  0.25623  0.55159  1.0000
  C   C474      1.0  0.27936  0.24158  0.56724  1.0000
  H   H485      1.0  0.46123  0.09015  0.50974  1.0000
  C   C475      1.0  0.24213  0.29442  0.51444  1.0000
  H   H486      1.0  0.26721  0.19837  0.81001  1.0000
  C   C476      1.0  0.45953  0.03293  0.51689  1.0000
  C   C477      1.0  0.48355  0.07362  0.50073  1.0000
  C   C478      1.0  0.44613  0.04402  0.52608  1.0000
  H   H487      1.0  0.39791  0.47549  0.89882  1.0000
  C   C479      1.0  0.43715  0.99732  0.63782  1.0000
  C   C480      1.0  0.42120  0.99780  0.62407  1.0000
  C   C481      1.0  0.46849  0.38720  0.77075  1.0000
  H   H488      1.0  0.41374  0.00978  0.62255  1.0000
  N   N42       1.0  0.45720  0.01652  0.55988  1.0000
  C   C482      1.0  0.44256  0.45141  0.79596  1.0000
  H   H489      1.0  0.35634  0.19448  0.65363  1.0000
  H   H490      1.0  0.28133  0.28545  0.60414  1.0000
  H   H491      1.0  0.27878  0.23811  0.91086  1.0000
  C   C483      1.0  0.41686  0.43672  0.82815  1.0000
  H   H492      1.0  0.46929  0.47038  0.93465  1.0000
  S   S185      1.0  0.32366  0.28544  0.49073  1.0000
  C   C484      1.0  0.26794  0.23864  0.86909  1.0000
  C   C485      1.0  0.46885  0.39162  0.79955  1.0000
  H   H493      1.0  0.35143  0.16722  0.62920  1.0000
  H   H494      1.0  0.45693  0.06037  0.74057  1.0000
  C   C486      1.0  0.47691  0.07888  0.74129  1.0000
  C   C487      1.0  0.28855  0.20949  0.85861  1.0000
  C   C488      1.0  0.41639  0.45436  0.82226  1.0000
  C   C489      1.0  0.42089  0.45974  0.89085  1.0000
  C   C490      1.0  0.43785  0.45967  0.88050  1.0000
  H   H495      1.0  0.48029  0.38999  0.72934  1.0000
  H   H496      1.0  0.44556  0.44784  0.88023  1.0000
  C   C491      1.0  0.35386  0.32726  0.93091  1.0000
  C   C492      1.0  0.36849  0.31806  0.94074  1.0000
  C   C493      1.0  0.38480  0.32570  0.94049  1.0000
  C   C494      1.0  0.38683  0.34253  0.93011  1.0000
  C   C495      1.0  0.37223  0.35158  0.91977  1.0000
  C   C496      1.0  0.35589  0.34401  0.92027  1.0000
  H   H497      1.0  0.36723  0.30522  0.94914  1.0000
  H   H498      1.0  0.39598  0.31855  0.94852  1.0000
  H   H499      1.0  0.37349  0.36452  0.91176  1.0000
  H   H500      1.0  0.34470  0.35132  0.91267  1.0000
  C   C497      1.0  0.26788  0.23058  0.84270  1.0000
  S   S186      1.0  0.48781  0.07766  0.96108  1.0000
  H   H501      1.0  0.46596  0.03525  0.49681  1.0000
  C   C498      1.0  0.27833  0.24230  0.59676  1.0000
  C   C499      1.0  0.36512  0.14383  0.68321  1.0000
  C   C500      1.0  0.38258  0.14148  0.67488  1.0000
  C   C501      1.0  0.38999  0.12490  0.66977  1.0000
  C   C502      1.0  0.38010  0.11032  0.67334  1.0000
  C   C503      1.0  0.36263  0.11269  0.68152  1.0000
  C   C504      1.0  0.35516  0.12928  0.68627  1.0000
  H   H502      1.0  0.39046  0.15258  0.67239  1.0000
  H   H503      1.0  0.40341  0.12338  0.66348  1.0000
  H   H504      1.0  0.35480  0.10157  0.68436  1.0000
  H   H505      1.0  0.34175  0.13077  0.69270  1.0000
  C   C505      1.0  0.44330  0.43369  0.80113  1.0000
  H   H506      1.0  0.27538  0.21730  0.79279  1.0000
  C   C506      1.0  0.36095  0.22528  0.63041  1.0000
  H   H507      1.0  0.26186  0.18773  0.75398  1.0000
  C   C507      1.0  0.31696  0.22900  0.80713  1.0000
  C   C508      1.0  0.32855  0.21700  0.81942  1.0000
  C   C509      1.0  0.33347  0.21881  0.84791  1.0000
  C   C510      1.0  0.32669  0.23246  0.86440  1.0000
  C   C511      1.0  0.31496  0.24429  0.85211  1.0000
  C   C512      1.0  0.31023  0.24262  0.82365  1.0000
  H   H508      1.0  0.33382  0.20643  0.80694  1.0000
  H   H509      1.0  0.34255  0.20956  0.85720  1.0000
  H   H510      1.0  0.30954  0.25479  0.86442  1.0000
  H   H511      1.0  0.30120  0.25193  0.81437  1.0000
  C   C513      1.0  0.31920  0.23359  0.59989  1.0000
  C   C514      1.0  0.31771  0.21864  0.58400  1.0000
  C   C515      1.0  0.31985  0.21920  0.55434  1.0000
  C   C516      1.0  0.32324  0.23472  0.54026  1.0000
  C   C517      1.0  0.32438  0.24969  0.55615  1.0000
  C   C518      1.0  0.32245  0.24909  0.58577  1.0000
  H   H512      1.0  0.31506  0.20664  0.59455  1.0000
  H   H513      1.0  0.31889  0.20755  0.54221  1.0000
  H   H514      1.0  0.32703  0.26170  0.54566  1.0000
  H   H515      1.0  0.32349  0.26076  0.59784  1.0000
  N   N43       1.0  0.27822  0.21629  0.83769  1.0000
  C   C519      1.0  0.27921  0.25814  0.61016  1.0000
  C   C520      1.0  0.40862  0.34514  0.48901  1.0000
  C   C521      1.0  0.48277  0.39740  0.56119  1.0000
  H   H516      1.0  0.35467  0.19369  0.54924  1.0000
  C   C522      1.0  0.48440  0.01609  0.74469  1.0000
  H   H517      1.0  0.45381  0.42569  0.79256  1.0000
  C   C523      1.0  0.25340  0.29437  0.49092  1.0000
  C   C524      1.0  0.28893  0.21722  0.88523  1.0000
  H   H518      1.0  0.48187  0.40625  0.83080  1.0000
  H   H519      1.0  0.45376  0.11445  0.74071  1.0000
  N   N44       1.0  0.42683  0.11404  0.73203  1.0000
  C   C525      1.0  0.41244  0.12478  0.73293  1.0000
  C   C526      1.0  0.42531  0.09666  0.73445  1.0000
  C   C527      1.0  0.39603  0.11816  0.73689  1.0000
  C   C528      1.0  0.40907  0.08960  0.73803  1.0000
  C   C529      1.0  0.39436  0.10045  0.73921  1.0000
  C   C530      1.0  0.44394  0.12096  0.72688  1.0000
  H   H520      1.0  0.41350  0.13852  0.73006  1.0000
  H   H521      1.0  0.43670  0.08816  0.73313  1.0000
  H   H522      1.0  0.38458  0.12665  0.73682  1.0000
  H   H523      1.0  0.40782  0.07578  0.73900  1.0000
  H   H524      1.0  0.38163  0.09510  0.74078  1.0000
  H   H525      1.0  0.44787  0.11871  0.70451  1.0000
  H   H526      1.0  0.44413  0.13494  0.73126  1.0000
  H   H527      1.0  0.48253  0.43059  0.93439  1.0000
  C   C531      1.0  0.24262  0.29075  0.97032  1.0000
  H   H528      1.0  0.29757  0.21217  0.90150  1.0000
  C   C532      1.0  0.43013  0.45929  0.95987  1.0000
  C   C533      1.0  0.28276  0.25535  0.52079  1.0000
  H   H529      1.0  0.45272  0.45703  0.78340  1.0000
  H   H530      1.0  0.40591  0.46234  0.83099  1.0000
  H   H531      1.0  0.47944  0.05884  0.57914  1.0000
  N   N45       1.0  0.42929  0.46152  0.80668  1.0000
  C   C534      1.0  0.41106  0.47529  0.89086  1.0000
  C   C535      1.0  0.45179  0.43676  0.96764  1.0000
  S   S187      1.0  0.25911  0.26885  0.93199  1.0000
  H   H532      1.0  0.42832  0.05022  0.55992  1.0000
  C   C536      1.0  0.47124  0.05889  0.77962  1.0000
  H   H533      1.0  0.25433  0.29792  0.97007  1.0000
  C   C537      1.0  0.24904  0.18439  0.74752  1.0000
  S   S188      1.0  0.47858  0.39636  0.96152  1.0000
  C   C538      1.0  0.35275  0.17859  0.58751  1.0000
  C   C539      1.0  0.46726  0.06564  0.75267  1.0000
  C   C540      1.0  0.35592  0.19439  0.63072  1.0000
  N   N46       1.0  0.46409  0.44670  0.95557  1.0000
  C   C541      1.0  0.46682  0.39988  0.51656  1.0000
  C   C542      1.0  0.35320  0.17889  0.61697  1.0000
  H   H534      1.0  0.35942  0.22072  0.57456  1.0000
  H   H535      1.0  0.37498  0.22652  0.63416  1.0000
  H   H536      1.0  0.45792  0.47466  0.86190  1.0000
  H   H537      1.0  0.39016  0.36645  0.49185  1.0000
  C   C543      1.0  0.27764  0.20779  0.81014  1.0000
  C   C544      1.0  0.48014  0.39079  0.50234  1.0000
  H   H538      1.0  0.35393  0.22569  0.65103  1.0000
  C   C545      1.0  0.46492  0.01913  0.53414  1.0000
  H   H539      1.0  0.43093  0.41264  0.82189  1.0000
  N   N47       1.0  0.35792  0.20922  0.61557  1.0000
  H   H540      1.0  0.45547  0.40434  0.50515  1.0000
  C   C546      1.0  0.35517  0.19370  0.57217  1.0000
  C   C547      1.0  0.46260  0.00184  0.57766  1.0000
  H   H541      1.0  0.27927  0.22916  0.55701  1.0000
  H   H542      1.0  0.29317  0.26376  0.51336  1.0000
  H   H543      1.0  0.35591  0.23657  0.61811  1.0000
  C   C548      1.0  0.48485  0.06530  0.79551  1.0000
  H   H544      1.0  0.47541  0.01065  0.52684  1.0000
  C   C549      1.0  0.43040  0.42635  0.81747  1.0000
  H   H545      1.0  0.27043  0.25980  0.51079  1.0000
  H   H546      1.0  0.35051  0.16666  0.57662  1.0000
  C   C550      1.0  0.48063  0.39365  0.75135  1.0000
  C   C551      1.0  0.44414  0.02741  0.56914  1.0000
  H   H547      1.0  0.29688  0.19826  0.85461  1.0000
  C   C552      1.0  0.35789  0.20897  0.58664  1.0000
  H   H548      1.0  0.25964  0.23592  0.82616  1.0000
  C   C553      1.0  0.44483  0.47492  0.87013  1.0000
  H   H549      1.0  0.45200  0.99260  0.57919  1.0000
  C   C554      1.0  0.27854  0.23188  0.89042  1.0000
  C   C555      1.0  0.46808  0.40299  0.54583  1.0000
  H   H550      1.0  0.46384  0.04851  0.78814  1.0000
  C   C556      1.0  0.48140  0.40275  0.80873  1.0000
  C   C557      1.0  0.40372  0.36252  0.49011  1.0000
  H   H551      1.0  0.45881  0.37863  0.76341  1.0000
  H   H552      1.0  0.47372  0.03319  0.68071  1.0000
  H   H553      1.0  0.41674  0.46392  0.96053  1.0000
  N   N48       1.0  0.35563  0.27175  0.87257  1.0000
  C   C558      1.0  0.35026  0.28768  0.88180  1.0000
  C   C559      1.0  0.35060  0.26601  0.84672  1.0000
  C   C560      1.0  0.33926  0.29819  0.86528  1.0000
  C   C561      1.0  0.33956  0.27615  0.82968  1.0000
  C   C562      1.0  0.33382  0.29232  0.83913  1.0000
  C   C563      1.0  0.36728  0.26112  0.89025  1.0000
  H   H554      1.0  0.35432  0.29230  0.90219  1.0000
  H   H555      1.0  0.35476  0.25334  0.83939  1.0000
  H   H556      1.0  0.33487  0.31073  0.87294  1.0000
  H   H557      1.0  0.33528  0.27134  0.80950  1.0000
  H   H558      1.0  0.32512  0.30026  0.82628  1.0000
  H   H559      1.0  0.38045  0.26631  0.88984  1.0000
  H   H560      1.0  0.36238  0.26079  0.91238  1.0000
  H   H561      1.0  0.36804  0.24754  0.88305  1.0000
  H   H562      1.0  0.28275  0.28351  0.55193  1.0000
  S   S189      1.0  0.27579  0.29772  0.49620  1.0000
  C   C564      1.0  0.43843  0.04133  0.55239  1.0000
  H   H563      1.0  0.48385  0.46886  0.57992  1.0000
  C   C565      1.0  0.45973  0.46271  0.94521  1.0000
  H   H564      1.0  0.43814  0.02542  0.58967  1.0000
  C   C566      1.0  0.24644  0.17873  0.71989  1.0000
  C   C567      1.0  0.48054  0.06303  0.55739  1.0000
  H   H565      1.0  0.27916  0.25873  0.63309  1.0000
  C   C568      1.0  0.28063  0.27307  0.59397  1.0000
  H   H566      1.0  0.29017  0.20102  0.80504  1.0000
  H   H567      1.0  0.27769  0.23060  0.60925  1.0000
  H   H568      1.0  0.46472  0.35413  0.49423  1.0000
  C   C569      1.0  0.44275  0.46934  0.94755  1.0000
  H   H569      1.0  0.44207  0.05503  0.51325  1.0000
  C   C570      1.0  0.42878  0.48002  0.80062  1.0000
  H   H570      1.0  0.24732  0.29581  0.53542  1.0000
  H   H571      1.0  0.25992  0.25011  0.87310  1.0000
  S   S190      1.0  0.48326  0.40107  0.59832  1.0000
  H   H572      1.0  0.45514  0.42391  0.97526  1.0000
  C   C571      1.0  0.48025  0.03152  0.70077  1.0000
  C   C572      1.0  0.47600  0.01803  0.71870  1.0000
  H   H573      1.0  0.42521  0.48246  0.77823  1.0000
  H   H574      1.0  0.40693  0.43118  0.84137  1.0000
  S   S191      1.0  0.49010  0.05520  0.82815  1.0000
  H   H575      1.0  0.43922  0.48187  0.93870  1.0000
  H   H576      1.0  0.36047  0.34688  0.98351  1.0000
  H   H577      1.0  0.41245  0.38841  0.48728  1.0000
  H   H578      1.0  0.48558  0.43705  0.58542  1.0000
  C   C573      1.0  0.43464  0.44288  0.96993  1.0000
  H   H579      1.0  0.47427  0.99489  0.56916  1.0000
  H   H580      1.0  0.46616  0.00923  0.71242  1.0000
  C   C574      1.0  0.48182  0.43970  0.95239  1.0000
  H   H581      1.0  0.48592  0.43257  0.97183  1.0000
  H   H582      1.0  0.48729  0.34627  0.76457  1.0000
  H   H583      1.0  0.42481  0.43477  0.97870  1.0000
  C   C575      1.0  0.24169  0.27587  0.95411  1.0000
  H   H584      1.0  0.48914  0.11743  0.52631  1.0000
  H   H585      1.0  0.33772  0.34730  0.97753  1.0000
  H   H586      1.0  0.48101  0.00559  0.75859  1.0000
  H   H587      1.0  0.44160  0.48551  0.80472  1.0000
  C   C576      1.0  0.41624  0.37487  0.48749  1.0000
  Fe  Fe97      1.0  0.33778  0.78862  0.05077  1.0000
  S   S192      1.0  0.34441  0.76032  0.04476  1.0000
  S   S193      1.0  0.36201  0.80396  0.06131  1.0000
  Fe  Fe98      1.0  0.29933  0.78261  0.03629  1.0000
  S   S194      1.0  0.30388  0.75439  0.02956  1.0000
  S   S195      1.0  0.27254  0.79546  0.03027  1.0000
  Fe  Fe99      1.0  0.32004  0.75535  0.06923  1.0000
  S   S196      1.0  0.31540  0.73415  0.10202  1.0000
  C   C577      1.0  0.25473  0.76897  0.00571  1.0000
  S   S197      1.0  0.33368  0.75894  0.45626  1.0000
  S   S198      1.0  0.31407  0.78336  0.07749  1.0000
  C   C578      1.0  0.36282  0.69251  0.19209  1.0000
  Fe  Fe100     1.0  0.32774  0.70574  0.25979  1.0000
  S   S199      1.0  0.31634  0.68214  0.24235  1.0000
  S   S200      1.0  0.34072  0.72420  0.22943  1.0000
  Fe  Fe101     1.0  0.31618  0.69744  0.32081  1.0000
  S   S201      1.0  0.30350  0.67336  0.30618  1.0000
  S   S202      1.0  0.31342  0.70063  0.36880  1.0000
  Fe  Fe102     1.0  0.32795  0.66870  0.28055  1.0000
  S   S203      1.0  0.34173  0.64229  0.27573  1.0000
  Fe  Fe103     1.0  0.29318  0.68915  0.26956  1.0000
  S   S204      1.0  0.26683  0.69545  0.24963  1.0000
  S   S205      1.0  0.34096  0.69195  0.29652  1.0000
  S   S206      1.0  0.30434  0.71348  0.28576  1.0000
  Fe  Fe104     1.0  0.42792  0.58548  0.32659  1.0000
  S   S207      1.0  0.45694  0.58621  0.31917  1.0000
  S   S208      1.0  0.41232  0.61133  0.32893  1.0000
  Fe  Fe105     1.0  0.43000  0.54616  0.33577  1.0000
  S   S209      1.0  0.45846  0.54470  0.32815  1.0000
  S   S210      1.0  0.41532  0.52206  0.34706  1.0000
  Fe  Fe106     1.0  0.45941  0.56780  0.35626  1.0000
  S   S211      1.0  0.48165  0.56570  0.38812  1.0000
  Fe  Fe107     1.0  0.45357  0.56303  0.29177  1.0000
  H   H588      1.0  0.25709  0.74872  0.47231  1.0000
  S   S212      1.0  0.43089  0.56860  0.36558  1.0000
  S   S213      1.0  0.42456  0.56300  0.29748  1.0000
  Fe  Fe108     1.0  0.41698  0.88974  0.08762  1.0000
  S   S214      1.0  0.44120  0.87327  0.08690  1.0000
  S   S215      1.0  0.38957  0.87932  0.08551  1.0000
  Fe  Fe109     1.0  0.43795  0.92307  0.08870  1.0000
  S   S216      1.0  0.46361  0.90826  0.08742  1.0000
  S   S217      1.0  0.43768  0.95230  0.08363  1.0000
  Fe  Fe110     1.0  0.45127  0.89189  0.05439  1.0000
  C   C579      1.0  0.47698  0.98075  0.10291  1.0000
  Fe  Fe111     1.0  0.45119  0.89120  0.12000  1.0000
  S   S218      1.0  0.46210  0.87871  0.16041  1.0000
  S   S219      1.0  0.42641  0.90764  0.05383  1.0000
  S   S220      1.0  0.42615  0.90677  0.12268  1.0000
  C   C580      1.0  0.43340  0.96901  0.10842  1.0000
  C   C581      1.0  0.42986  0.96575  0.13697  1.0000
  C   C582      1.0  0.47310  0.50163  0.43682  1.0000
  H   H589      1.0  0.42896  0.95265  0.14435  1.0000
  H   H590      1.0  0.36744  0.69345  0.24770  1.0000
  H   H591      1.0  0.36825  0.86932  0.01128  1.0000
  C   C583      1.0  0.28417  0.73162  0.20689  1.0000
  H   H592      1.0  0.30471  0.76608  0.13872  1.0000
  C   C584      1.0  0.47635  0.58456  0.22184  1.0000
  H   H593      1.0  0.42407  0.50963  0.42652  1.0000
  H   H594      1.0  0.34120  0.79569  0.45682  1.0000
  H   H595      1.0  0.28536  0.72706  0.22857  1.0000
  C   C585      1.0  0.47328  0.52977  0.12284  1.0000
  C   C586      1.0  0.44238  0.53687  0.41305  1.0000
  N   N49       1.0  0.36098  0.67940  0.21113  1.0000
  C   C587      1.0  0.44403  0.49152  0.43962  1.0000
  H   H596      1.0  0.43326  0.87927  0.19916  1.0000
  C   C588      1.0  0.47470  0.56675  0.22095  1.0000
  C   C589      1.0  0.42511  0.50220  0.35811  1.0000
  H   H597      1.0  0.38334  0.67716  0.23663  1.0000
  H   H598      1.0  0.32571  0.63664  0.33574  1.0000
  C   C590      1.0  0.48945  0.91132  0.20913  1.0000
  S   S221      1.0  0.32246  0.79030  0.01038  1.0000
  H   H599      1.0  0.47141  0.95044  0.15387  1.0000
  H   H600      1.0  0.33934  0.67731  0.13790  1.0000
  C   C591      1.0  0.39515  0.87542  0.01285  1.0000
  H   H601      1.0  0.36978  0.70383  0.19780  1.0000
  H   H602      1.0  0.33654  0.65324  0.17250  1.0000
  H   H603      1.0  0.39006  0.63067  0.37633  1.0000
  H   H604      1.0  0.35631  0.70254  0.15067  1.0000
  H   H605      1.0  0.26820  0.71097  0.19423  1.0000
  N   N50       1.0  0.36291  0.63554  0.37301  1.0000
  C   C592      1.0  0.48413  0.59324  0.19901  1.0000
  H   H606      1.0  0.43049  0.53541  0.40034  1.0000
  H   H607      1.0  0.45553  0.57634  0.43056  1.0000
  H   H608      1.0  0.48878  0.97891  0.35610  1.0000
  C   C593      1.0  0.36202  0.63425  0.28901  1.0000
  C   C594      1.0  0.36667  0.61674  0.28548  1.0000
  C   C595      1.0  0.38222  0.60959  0.29672  1.0000
  C   C596      1.0  0.39342  0.61989  0.31160  1.0000
  C   C597      1.0  0.38889  0.63748  0.31471  1.0000
  C   C598      1.0  0.37332  0.64462  0.30358  1.0000
  H   H609      1.0  0.35808  0.60855  0.27425  1.0000
  H   H610      1.0  0.38542  0.59604  0.29419  1.0000
  H   H611      1.0  0.39743  0.64561  0.32615  1.0000
  H   H612      1.0  0.36997  0.65808  0.30664  1.0000
  H   H613      1.0  0.45197  0.54298  0.39894  1.0000
  C   C599      1.0  0.43785  0.50756  0.42990  1.0000
  H   H614      1.0  0.25525  0.66164  0.26924  1.0000
  H   H615      1.0  0.32339  0.66570  0.35726  1.0000
  C   C600      1.0  0.36917  0.82502  0.06892  1.0000
  C   C601      1.0  0.38694  0.82728  0.07340  1.0000
  C   C602      1.0  0.39342  0.84371  0.07864  1.0000
  C   C603      1.0  0.38216  0.85816  0.07967  1.0000
  C   C604      1.0  0.36438  0.85588  0.07563  1.0000
  C   C605      1.0  0.35793  0.83948  0.07013  1.0000
  H   H616      1.0  0.39578  0.81622  0.07261  1.0000
  H   H617      1.0  0.40712  0.84517  0.08169  1.0000
  H   H618      1.0  0.35550  0.86691  0.07647  1.0000
  H   H619      1.0  0.34425  0.83802  0.06683  1.0000
  C   C606      1.0  0.25419  0.78594  0.01526  1.0000
  N   N51       1.0  0.44907  0.52021  0.42341  1.0000
  C   C607      1.0  0.47327  0.88824  0.18875  1.0000
  H   H620      1.0  0.34675  0.67559  0.38777  1.0000
  C   C608      1.0  0.32712  0.74305  0.43199  1.0000
  C   C609      1.0  0.31680  0.72947  0.44021  1.0000
  C   C610      1.0  0.31264  0.71675  0.42050  1.0000
  C   C611      1.0  0.31850  0.71753  0.39226  1.0000
  C   C612      1.0  0.32860  0.73124  0.38394  1.0000
  C   C613      1.0  0.33296  0.74383  0.40375  1.0000
  H   H621      1.0  0.31230  0.72861  0.46185  1.0000
  H   H622      1.0  0.30488  0.70618  0.42722  1.0000
  H   H623      1.0  0.33325  0.73202  0.36238  1.0000
  H   H624      1.0  0.34097  0.75424  0.39714  1.0000
  C   C614      1.0  0.33393  0.72672  0.19380  1.0000
  C   C615      1.0  0.32212  0.71576  0.18186  1.0000
  C   C616      1.0  0.31720  0.71786  0.15343  1.0000
  C   C617      1.0  0.32364  0.73119  0.13670  1.0000
  C   C618      1.0  0.33563  0.74206  0.14846  1.0000
  C   C619      1.0  0.34081  0.73976  0.17684  1.0000
  H   H625      1.0  0.31675  0.70563  0.19446  1.0000
  H   H626      1.0  0.30799  0.70932  0.14451  1.0000
  H   H627      1.0  0.34080  0.75232  0.13578  1.0000
  H   H628      1.0  0.35008  0.74824  0.18576  1.0000
  C   C620      1.0  0.48864  0.56645  0.17417  1.0000
  N   N52       1.0  0.41543  0.85137  0.01104  1.0000
  H   H629      1.0  0.35061  0.65477  0.21911  1.0000
  H   H630      1.0  0.37838  0.61249  0.36609  1.0000
  H   H631      1.0  0.45462  0.55015  0.11339  1.0000
  H   H632      1.0  0.31224  0.76903  0.17380  1.0000
  S   S222      1.0  0.45963  0.88044  0.01163  1.0000
  H   H633      1.0  0.47180  0.59162  0.24023  1.0000
  C   C621      1.0  0.36188  0.65166  0.38440  1.0000
  H   H634      1.0  0.36370  0.67119  0.25420  1.0000
  C   C622      1.0  0.33448  0.65723  0.36160  1.0000
  C   C623      1.0  0.47582  0.96444  0.11522  1.0000
  H   H635      1.0  0.41525  0.90573  0.20606  1.0000
  C   C624      1.0  0.38497  0.84668  0.00808  1.0000
  H   H636      1.0  0.45726  0.57869  0.48290  1.0000
  C   C625      1.0  0.29265  0.74628  0.19787  1.0000
  H   H637      1.0  0.44056  0.84955  0.99293  1.0000
  H   H638      1.0  0.37211  0.65603  0.39783  1.0000
  C   C626      1.0  0.44298  0.50015  0.36168  1.0000
  C   C627      1.0  0.46646  0.51757  0.42729  1.0000
  H   H639      1.0  0.48680  0.90591  0.01171  1.0000
  H   H640      1.0  0.26640  0.78633  0.47910  1.0000
  H   H641      1.0  0.47530  0.52775  0.42255  1.0000
  H   H642      1.0  0.47963  0.54402  0.19603  1.0000
  C   C628      1.0  0.43339  0.84478  0.01170  1.0000
  C   C629      1.0  0.41214  0.86869  0.01296  1.0000
  C   C630      1.0  0.48638  0.90027  0.99091  1.0000
  H   H643      1.0  0.41933  0.84153  0.16345  1.0000
  H   H644      1.0  0.36167  0.77682  0.47700  1.0000
  C   C631      1.0  0.43444  0.98616  0.09922  1.0000
  C   C632      1.0  0.34765  0.66275  0.37886  1.0000
  H   H645      1.0  0.37693  0.61971  0.40219  1.0000
  C   C633      1.0  0.35000  0.63004  0.35603  1.0000
  C   C634      1.0  0.36930  0.68032  0.23877  1.0000
  C   C635      1.0  0.47928  0.52813  0.06503  1.0000
  N   N53       1.0  0.41613  0.86856  0.16935  1.0000
  C   C636      1.0  0.40120  0.87089  0.15433  1.0000
  C   C637      1.0  0.42116  0.88085  0.18782  1.0000
  C   C638      1.0  0.39075  0.88576  0.15781  1.0000
  C   C639      1.0  0.41102  0.89589  0.19182  1.0000
  C   C640      1.0  0.39572  0.89833  0.17666  1.0000
  C   C641      1.0  0.42717  0.85318  0.16430  1.0000
  H   H646      1.0  0.39744  0.86139  0.13909  1.0000
  C   C642      1.0  0.34750  0.80766  0.46324  1.0000
  H   H647      1.0  0.37915  0.88770  0.14524  1.0000
  C   C643      1.0  0.48563  0.51814  0.11147  1.0000
  C   C644      1.0  0.42770  0.97952  0.15611  1.0000
  H   H648      1.0  0.43427  0.85463  0.14397  1.0000
  H   H649      1.0  0.43697  0.85120  0.18120  1.0000
  H   H650      1.0  0.48365  0.85998  0.45198  1.0000
  C   C645      1.0  0.35196  0.66526  0.20411  1.0000
  C   C646      1.0  0.35524  0.69186  0.16539  1.0000
  C   C647      1.0  0.48514  0.88559  0.23667  1.0000
  C   C648      1.0  0.48177  0.56674  0.42565  1.0000
  H   H651      1.0  0.46837  0.97688  0.18305  1.0000
  Fe  Fe112     1.0  0.32775  0.76183  0.00585  1.0000
  C   C649      1.0  0.37773  0.62404  0.37984  1.0000
  H   H652      1.0  0.38793  0.91010  0.17903  1.0000
  C   C650      1.0  0.48145  0.87377  0.45219  1.0000
  H   H653      1.0  0.45123  0.51069  0.35678  1.0000
  H   H654      1.0  0.33819  0.81502  0.47697  1.0000
  H   H655      1.0  0.43990  0.84944  0.03094  1.0000
  C   C651      1.0  0.33567  0.64084  0.34991  1.0000
  C   C652      1.0  0.34401  0.66429  0.17771  1.0000
  H   H656      1.0  0.35092  0.61742  0.34646  1.0000
  C   C653      1.0  0.34564  0.67772  0.15830  1.0000
  H   H657      1.0  0.43945  0.54556  0.43109  1.0000
  C   C654      1.0  0.30040  0.76716  0.16119  1.0000
  C   C655      1.0  0.48073  0.55780  0.19684  1.0000
  H   H658      1.0  0.42510  0.97689  0.17818  1.0000
  H   H659      1.0  0.48544  0.60701  0.20001  1.0000
  H   H660      1.0  0.26642  0.76109  0.00817  1.0000
  C   C656      1.0  0.47126  0.97779  0.16063  1.0000
  C   C657      1.0  0.41462  0.48829  0.36456  1.0000
  C   C658      1.0  0.28195  0.74303  0.15134  1.0000
  C   C659      1.0  0.48371  0.90139  0.42924  1.0000
  C   C660      1.0  0.27455  0.72255  0.18758  1.0000
  H   H661      1.0  0.47631  0.95305  0.10209  1.0000
  H   H662      1.0  0.42270  0.87737  0.01498  1.0000
  C   C661      1.0  0.47588  0.87880  0.21395  1.0000
  H   H663      1.0  0.47364  0.92307  0.45309  1.0000
  C   C662      1.0  0.38150  0.86432  0.01042  1.0000
  C   C663      1.0  0.46736  0.57255  0.44133  1.0000
  C   C664      1.0  0.27338  0.72828  0.15962  1.0000
  C   C665      1.0  0.46685  0.53993  0.07566  1.0000
  N   N54       1.0  0.29161  0.75168  0.17031  1.0000
  C   C666      1.0  0.24475  0.66826  0.25825  1.0000
  C   C667      1.0  0.47294  0.96299  0.14426  1.0000
  C   C668      1.0  0.46386  0.54073  0.10477  1.0000
  H   H664      1.0  0.28138  0.74715  0.12937  1.0000
  C   C669      1.0  0.47994  0.90465  0.18660  1.0000
  H   H665      1.0  0.47078  0.86610  0.21589  1.0000
  H   H666      1.0  0.47811  0.91204  0.16736  1.0000
  S   S223      1.0  0.46668  0.55474  0.25004  1.0000
  H   H667      1.0  0.46012  0.54883  0.06141  1.0000
  H   H668      1.0  0.35011  0.81525  0.44384  1.0000
  H   H669      1.0  0.47138  0.53060  0.14555  1.0000
  H   H670      1.0  0.26621  0.72115  0.14430  1.0000
  H   H671      1.0  0.30047  0.75298  0.21288  1.0000
  H   H672      1.0  0.48198  0.52808  0.04248  1.0000
  C   C670      1.0  0.46840  0.57392  0.47101  1.0000
  C   C671      1.0  0.36901  0.78749  0.48433  1.0000
  C   C672      1.0  0.40212  0.84038  0.00848  1.0000
  C   C673      1.0  0.47574  0.90927  0.45295  1.0000
  H   H673      1.0  0.29155  0.77861  0.16334  1.0000
  H   H674      1.0  0.24342  0.78742  0.44256  1.0000
  H   H675      1.0  0.39260  0.88910  0.01555  1.0000
  H   H676      1.0  0.48692  0.49943  0.43921  1.0000
  C   C674      1.0  0.48679  0.88360  0.42881  1.0000
  C   C675      1.0  0.24719  0.68455  0.24657  1.0000
  H   H677      1.0  0.40077  0.48974  0.36185  1.0000
  C   C676      1.0  0.46178  0.48849  0.44274  1.0000
  H   H678      1.0  0.47856  0.98173  0.08018  1.0000
  N   N55       1.0  0.48840  0.51737  0.08288  1.0000
  H   H679      1.0  0.48764  0.90912  0.41139  1.0000
  C   C677      1.0  0.47352  0.88168  0.47601  1.0000
  H   H680      1.0  0.43438  0.83053  0.01193  1.0000
  C   C678      1.0  0.47078  0.89954  0.47661  1.0000
  H   H681      1.0  0.37442  0.83788  0.00709  1.0000
  H   H682      1.0  0.40461  0.82661  0.00740  1.0000
  H   H683      1.0  0.48698  0.87818  0.25589  1.0000
  N   N56       1.0  0.36357  0.80405  0.47870  1.0000
  C   C679      1.0  0.25293  0.78618  0.48537  1.0000
  C   C680      1.0  0.48382  0.56952  0.48537  1.0000
  H   H684      1.0  0.36828  0.83060  0.48423  1.0000
  Fe  Fe113     1.0  0.33017  0.79509  0.54242  1.0000
  S   S224      1.0  0.34323  0.76910  0.53594  1.0000
  S   S225      1.0  0.34433  0.82080  0.54014  1.0000
  Fe  Fe114     1.0  0.29375  0.77956  0.53697  1.0000
  S   S226      1.0  0.30487  0.75281  0.53000  1.0000
  S   S227      1.0  0.26436  0.78356  0.54107  1.0000
  Fe  Fe115     1.0  0.32290  0.75883  0.56571  1.0000
  S   S228      1.0  0.32973  0.73723  0.59759  1.0000
  H   H685      1.0  0.44558  0.59128  0.95549  1.0000
  S   S229      1.0  0.33753  0.75304  0.96230  1.0000
  S   S230      1.0  0.31086  0.78508  0.57429  1.0000
  H   H686      1.0  0.39484  0.82523  0.51213  1.0000
  Fe  Fe116     1.0  0.31660  0.70470  0.76033  1.0000
  S   S231      1.0  0.31577  0.67679  0.74872  1.0000
  S   S232      1.0  0.31817  0.72790  0.73032  1.0000
  Fe  Fe117     1.0  0.31188  0.69704  0.82423  1.0000
  S   S233      1.0  0.31075  0.66853  0.81634  1.0000
  S   S234      1.0  0.30382  0.70613  0.86865  1.0000
  Fe  Fe118     1.0  0.33318  0.67165  0.78651  1.0000
  S   S235      1.0  0.35700  0.65328  0.77951  1.0000
  Fe  Fe119     1.0  0.29352  0.67590  0.77964  1.0000
  S   S236      1.0  0.26868  0.66132  0.77493  1.0000
  S   S237      1.0  0.33543  0.69995  0.79625  1.0000
  S   S238      1.0  0.29331  0.70396  0.78916  1.0000
  Fe  Fe120     1.0  0.42135  0.57380  0.83721  1.0000
  S   S239      1.0  0.44613  0.58551  0.82279  1.0000
  S   S240      1.0  0.39578  0.58972  0.84372  1.0000
  Fe  Fe121     1.0  0.43944  0.53767  0.84638  1.0000
  S   S241      1.0  0.46501  0.54775  0.83226  1.0000
  S   S242      1.0  0.44441  0.50884  0.85483  1.0000
  Fe  Fe122     1.0  0.45844  0.57062  0.85932  1.0000
  S   S243      1.0  0.47847  0.58225  0.88838  1.0000
  Fe  Fe123     1.0  0.45059  0.56128  0.79719  1.0000
  C   C681      1.0  0.45012  0.62202  0.87248  1.0000
  S   S244      1.0  0.43356  0.56017  0.87531  1.0000
  S   S245      1.0  0.42512  0.55020  0.80993  1.0000
  Fe  Fe124     1.0  0.42576  0.88287  0.58728  1.0000
  S   S246      1.0  0.45440  0.87912  0.57753  1.0000
  S   S247      1.0  0.40900  0.85900  0.59335  1.0000
  Fe  Fe125     1.0  0.42954  0.92217  0.59454  1.0000
  S   S248      1.0  0.45786  0.92052  0.58518  1.0000
  S   S249      1.0  0.41501  0.94796  0.60117  1.0000
  Fe  Fe126     1.0  0.45120  0.90270  0.54982  1.0000
  S   S250      1.0  0.46269  0.91062  0.50702  1.0000
  Fe  Fe127     1.0  0.45858  0.89730  0.61379  1.0000
  H   H687      1.0  0.47683  0.84032  0.73334  1.0000
  S   S251      1.0  0.42243  0.90557  0.55767  1.0000
  S   S252      1.0  0.43039  0.89982  0.62520  1.0000
  C   C682      1.0  0.42410  0.96685  0.61472  1.0000
  C   C683      1.0  0.44016  0.96645  0.62807  1.0000
  H   H688      1.0  0.38182  0.93440  0.60636  1.0000
  H   H689      1.0  0.44755  0.95443  0.62982  1.0000
  H   H690      1.0  0.39057  0.94376  0.65131  1.0000
  C   C684      1.0  0.46645  0.89618  0.72768  1.0000
  C   C685      1.0  0.46580  0.89600  0.69785  1.0000
  C   C686      1.0  0.24399  0.74445  0.53958  1.0000
  H   H691      1.0  0.36750  0.72427  0.63162  1.0000
  H   H692      1.0  0.45462  0.89517  0.73982  1.0000
  H   H693      1.0  0.45356  0.89486  0.68725  1.0000
  H   H694      1.0  0.40028  0.59694  0.90355  1.0000
  C   C687      1.0  0.42314  0.60929  0.88850  1.0000
  H   H695      1.0  0.25977  0.78458  0.95277  1.0000
  H   H696      1.0  0.47429  0.85988  0.71266  1.0000
  C   C688      1.0  0.26502  0.77519  0.93787  1.0000
  H   H697      1.0  0.45892  0.98101  0.65027  1.0000
  H   H698      1.0  0.37161  0.91152  0.57539  1.0000
  C   C689      1.0  0.44657  0.98156  0.63971  1.0000
  C   C690      1.0  0.29422  0.78282  0.95163  1.0000
  H   H699      1.0  0.33794  0.64177  0.73127  1.0000
  H   H700      1.0  0.41030  0.50243  0.88021  1.0000
  S   S253      1.0  0.48475  0.57280  0.52249  1.0000
  H   H701      1.0  0.28854  0.78567  0.97286  1.0000
  H   H702      1.0  0.35387  0.76632  0.68652  1.0000
  H   H703      1.0  0.44371  0.62257  0.85151  1.0000
  C   C691      1.0  0.38391  0.78404  0.50025  1.0000
  H   H704      1.0  0.41469  0.58514  0.94674  1.0000
  C   C692      1.0  0.47402  0.88060  0.95809  1.0000
  H   H705      1.0  0.46273  0.55708  0.92609  1.0000
  H   H706      1.0  0.25635  0.74540  0.55009  1.0000
  H   H707      1.0  0.48565  0.87959  0.91626  1.0000
  H   H708      1.0  0.37252  0.70428  0.72813  1.0000
  H   H709      1.0  0.46311  0.61574  0.86908  1.0000
  C   C693      1.0  0.38353  0.88739  0.63251  1.0000
  H   H710      1.0  0.26486  0.73033  0.49283  1.0000
  C   C694      1.0  0.36816  0.63634  0.79873  1.0000
  C   C695      1.0  0.38276  0.62800  0.78628  1.0000
  C   C696      1.0  0.39154  0.61399  0.79982  1.0000
  C   C697      1.0  0.38573  0.60790  0.82601  1.0000
  C   C698      1.0  0.37117  0.61630  0.83855  1.0000
  C   C699      1.0  0.36254  0.63046  0.82517  1.0000
  H   H711      1.0  0.38730  0.63233  0.76586  1.0000
  H   H712      1.0  0.40264  0.60773  0.78973  1.0000
  H   H713      1.0  0.36651  0.61181  0.85880  1.0000
  H   H714      1.0  0.35141  0.63670  0.83521  1.0000
  H   H715      1.0  0.46473  0.87100  0.95345  1.0000
  C   C700      1.0  0.48105  0.89661  0.68186  1.0000
  H   H716      1.0  0.26437  0.68822  0.73188  1.0000
  C   C701      1.0  0.24853  0.78539  0.51408  1.0000
  C   C702      1.0  0.36256  0.83095  0.55514  1.0000
  C   C703      1.0  0.36753  0.84691  0.54403  1.0000
  C   C704      1.0  0.38196  0.85540  0.55468  1.0000
  C   C705      1.0  0.39145  0.84829  0.57727  1.0000
  C   C706      1.0  0.38652  0.83231  0.58831  1.0000
  C   C707      1.0  0.37233  0.82363  0.57721  1.0000
  H   H717      1.0  0.36014  0.85278  0.52698  1.0000
  H   H718      1.0  0.38554  0.86759  0.54573  1.0000
  H   H719      1.0  0.39370  0.82661  0.60573  1.0000
  H   H720      1.0  0.36878  0.81140  0.58605  1.0000
  H   H721      1.0  0.41679  0.61416  0.86955  1.0000
  N   N57       1.0  0.24323  0.74393  0.51070  1.0000
  H   H722      1.0  0.46276  0.54802  0.69231  1.0000
  C   C708      1.0  0.26031  0.75329  0.90322  1.0000
  C   C709      1.0  0.32857  0.73897  0.93734  1.0000
  C   C710      1.0  0.31354  0.73006  0.94298  1.0000
  C   C711      1.0  0.30641  0.71979  0.92188  1.0000
  C   C712      1.0  0.31418  0.71825  0.89494  1.0000
  C   C713      1.0  0.32931  0.72700  0.88943  1.0000
  C   C714      1.0  0.33644  0.73728  0.91052  1.0000
  H   H723      1.0  0.30735  0.73119  0.96350  1.0000
  H   H724      1.0  0.29471  0.71306  0.92639  1.0000
  H   H725      1.0  0.33541  0.72601  0.86883  1.0000
  H   H726      1.0  0.34806  0.74412  0.90594  1.0000
  C   C715      1.0  0.31814  0.72955  0.69266  1.0000
  C   C716      1.0  0.32230  0.71551  0.67529  1.0000
  C   C717      1.0  0.32491  0.71797  0.64596  1.0000
  C   C718      1.0  0.32312  0.73442  0.63349  1.0000
  C   C719      1.0  0.31805  0.74830  0.65064  1.0000
  C   C720      1.0  0.31572  0.74588  0.68004  1.0000
  H   H727      1.0  0.32415  0.70286  0.68456  1.0000
  H   H728      1.0  0.32879  0.70713  0.63293  1.0000
  H   H729      1.0  0.31665  0.76103  0.64148  1.0000
  H   H730      1.0  0.31248  0.75685  0.69321  1.0000
  S   S254      1.0  0.31179  0.79168  0.50603  1.0000
  H   H731      1.0  0.48235  0.58297  0.75299  1.0000
  H   H732      1.0  0.26893  0.75200  0.50381  1.0000
  C   C721      1.0  0.27815  0.75147  0.89914  1.0000
  H   H733      1.0  0.37268  0.88120  0.59230  1.0000
  C   C722      1.0  0.47939  0.85423  0.73273  1.0000
  C   C723      1.0  0.41467  0.98262  0.61280  1.0000
  C   C724      1.0  0.42177  0.59301  0.93199  1.0000
  H   H734      1.0  0.36766  0.70454  0.67295  1.0000
  C   C725      1.0  0.47155  0.55794  0.69772  1.0000
  C   C726      1.0  0.48911  0.56664  0.98140  1.0000
  C   C727      1.0  0.28912  0.76153  0.91494  1.0000
  N   N58       1.0  0.28251  0.77279  0.93464  1.0000
  C   C728      1.0  0.37628  0.90837  0.59642  1.0000
  H   H735      1.0  0.47918  0.60964  0.50271  1.0000
  C   C729      1.0  0.39523  0.93073  0.65824  1.0000
  H   H736      1.0  0.45164  0.63531  0.88013  1.0000
  S   S255      1.0  0.45724  0.55557  0.75079  1.0000
  H   H737      1.0  0.46972  0.87400  0.49398  1.0000
  H   H738      1.0  0.25167  0.74537  0.89145  1.0000
  C   C730      1.0  0.25365  0.76533  0.92251  1.0000
  C   C731      1.0  0.25074  0.66880  0.75458  1.0000
  H   H739      1.0  0.40468  0.79524  0.52311  1.0000
  C   C732      1.0  0.37693  0.89136  0.60583  1.0000
  H   H740      1.0  0.24214  0.69999  0.79145  1.0000
  C   C733      1.0  0.48588  0.88547  0.93689  1.0000
  H   H741      1.0  0.46151  0.60885  0.92115  1.0000
  N   N59       1.0  0.32099  0.62752  0.75685  1.0000
  C   C734      1.0  0.30461  0.63210  0.76576  1.0000
  C   C735      1.0  0.33190  0.61818  0.77414  1.0000
  C   C736      1.0  0.29884  0.62738  0.79270  1.0000
  C   C737      1.0  0.32653  0.61321  0.80119  1.0000
  C   C738      1.0  0.30992  0.61795  0.81055  1.0000
  H   H742      1.0  0.40958  0.93038  0.65675  1.0000
  H   H743      1.0  0.29695  0.79509  0.94074  1.0000
  C   C739      1.0  0.44802  0.60637  0.91734  1.0000
  H   H744      1.0  0.28594  0.63134  0.79983  1.0000
  H   H745      1.0  0.33537  0.60607  0.81498  1.0000
  H   H746      1.0  0.30569  0.61451  0.83169  1.0000
  N   N60       1.0  0.38838  0.91727  0.64039  1.0000
  H   H747      1.0  0.40220  0.98307  0.60260  1.0000
  H   H748      1.0  0.38790  0.77089  0.50518  1.0000
  H   H749      1.0  0.29595  0.63963  0.75223  1.0000
  C   C740      1.0  0.47277  0.56329  0.93757  1.0000
  C   C741      1.0  0.41805  0.49059  0.88039  1.0000
  H   H750      1.0  0.36057  0.75525  0.63832  1.0000
  H   H751      1.0  0.39124  0.92899  0.68063  1.0000
  C   C742      1.0  0.47603  0.55883  0.96605  1.0000
  H   H752      1.0  0.38470  0.87408  0.63941  1.0000
  H   H753      1.0  0.39485  0.89733  0.66999  1.0000
  C   C743      1.0  0.38927  0.90058  0.64961  1.0000
  C   C744      1.0  0.48252  0.57573  0.92401  1.0000
  H   H754      1.0  0.34934  0.70367  0.72330  1.0000
  C   C745      1.0  0.48252  0.57762  0.73194  1.0000
  C   C746      1.0  0.32717  0.63283  0.72887  1.0000
  H   H755      1.0  0.34502  0.61491  0.76733  1.0000
  C   C747      1.0  0.43904  0.59648  0.93693  1.0000
  H   H756      1.0  0.35360  0.74621  0.72713  1.0000
  Fe  Fe128     1.0  0.32402  0.76523  0.50107  1.0000
  C   C748      1.0  0.48229  0.89713  0.74191  1.0000
  H   H757      1.0  0.33192  0.62145  0.71669  1.0000
  C   C749      1.0  0.41369  0.59961  0.90780  1.0000
  H   H758      1.0  0.31685  0.63959  0.71641  1.0000
  S   S256      1.0  0.48131  0.89406  0.64448  1.0000
  C   C750      1.0  0.25212  0.68219  0.73495  1.0000
  H   H759      1.0  0.28351  0.74214  0.88416  1.0000
  C   C751      1.0  0.47116  0.56473  0.72524  1.0000
  H   H760      1.0  0.35807  0.71890  0.74683  1.0000
  H   H761      1.0  0.30298  0.76004  0.91167  1.0000
  C   C752      1.0  0.38210  0.92124  0.61408  1.0000
  N   N61       1.0  0.44019  0.61220  0.89312  1.0000
  H   H762      1.0  0.46840  0.54917  0.97621  1.0000
  C   C753      1.0  0.43499  0.49045  0.86989  1.0000
  N   N62       1.0  0.36135  0.72432  0.70259  1.0000
  C   C754      1.0  0.35755  0.74145  0.70648  1.0000
  C   C755      1.0  0.36526  0.71818  0.67619  1.0000
  C   C756      1.0  0.35762  0.75290  0.68356  1.0000
  C   C757      1.0  0.36534  0.72927  0.65278  1.0000
  C   C758      1.0  0.36144  0.74671  0.65654  1.0000
  C   C759      1.0  0.36036  0.71221  0.72637  1.0000
  C   C760      1.0  0.39332  0.79767  0.51023  1.0000
  H   H763      1.0  0.48382  0.55804  0.65641  1.0000
  H   H764      1.0  0.48648  0.51902  0.73056  1.0000
  S   S257      1.0  0.48267  0.89462  0.77937  1.0000
  C   C761      1.0  0.38786  0.81451  0.50392  1.0000
  H   H765      1.0  0.24103  0.74929  0.98426  1.0000
  H   H766      1.0  0.47211  0.86080  0.75019  1.0000
  C   C762      1.0  0.25930  0.74364  0.49405  1.0000
  C   C763      1.0  0.48348  0.56359  0.67732  1.0000
  H   H767      1.0  0.30665  0.77555  0.95531  1.0000
  C   C764      1.0  0.47421  0.88791  0.98526  1.0000
  H   H768      1.0  0.41936  0.48716  0.81443  1.0000
  C   C765      1.0  0.37287  0.81748  0.48802  1.0000
  H   H769      1.0  0.49001  0.62947  0.50945  1.0000
  Fe  Fe129     1.0  0.64546  0.20544  0.42310  1.0000
  S   S258      1.0  0.65945  0.18158  0.40794  1.0000
  S   S259      1.0  0.63516  0.22621  0.39251  1.0000
  H   H770      1.0  0.67659  0.30640  0.26932  1.0000
  C   C766      1.0  0.59493  0.38821  0.18167  1.0000
  S   S260      1.0  0.62796  0.21243  0.02205  1.0000
  Fe  Fe130     1.0  0.67828  0.18607  0.44313  1.0000
  C   C767      1.0  0.72428  0.18159  0.45906  1.0000
  Fe  Fe131     1.0  0.64305  0.16776  0.44016  1.0000
  S   S261      1.0  0.63133  0.14220  0.42680  1.0000
  S   S262      1.0  0.66514  0.21091  0.45635  1.0000
  S   S263      1.0  0.62816  0.19160  0.45408  1.0000
  Fe  Fe132     1.0  0.65631  0.26247  0.16576  1.0000
  S   S264      1.0  0.65889  0.29102  0.17182  1.0000
  S   S265      1.0  0.66481  0.24831  0.12535  1.0000
  Fe  Fe133     1.0  0.65057  0.25617  0.22978  1.0000
  S   S266      1.0  0.65251  0.28414  0.23968  1.0000
  S   S267      1.0  0.65132  0.23312  0.26010  1.0000
  Fe  Fe134     1.0  0.63579  0.28927  0.20105  1.0000
  S   S268      1.0  0.61387  0.30985  0.20778  1.0000
  Fe  Fe135     1.0  0.67522  0.28377  0.20973  1.0000
  S   S269      1.0  0.70039  0.29692  0.21960  1.0000
  S   S270      1.0  0.63235  0.26082  0.19308  1.0000
  S   S271      1.0  0.67416  0.25570  0.20180  1.0000
  Fe  Fe136     1.0  0.53458  0.42004  0.13541  1.0000
  C   C768      1.0  0.52437  0.35620  0.05216  1.0000
  S   S272      1.0  0.54857  0.44231  0.11487  1.0000
  Fe  Fe137     1.0  0.54121  0.38099  0.14710  1.0000
  S   S273      1.0  0.51361  0.37786  0.16155  1.0000
  S   S274      1.0  0.56144  0.35942  0.13676  1.0000
  Fe  Fe138     1.0  0.50601  0.39500  0.12441  1.0000
  H   H771      1.0  0.49966  0.10766  0.99289  1.0000
  Fe  Fe139     1.0  0.51651  0.40263  0.18537  1.0000
  H   H772      1.0  0.72685  0.18232  0.03725  1.0000
  S   S275      1.0  0.53318  0.39642  0.10848  1.0000
  S   S276      1.0  0.54464  0.40480  0.17279  1.0000
  Fe  Fe140     1.0  0.54298  0.08429  0.41205  1.0000
  S   S277      1.0  0.51455  0.08526  0.42418  1.0000
  S   S278      1.0  0.55599  0.10971  0.42321  1.0000
  Fe  Fe141     1.0  0.54082  0.04607  0.39481  1.0000
  S   S279      1.0  0.51300  0.04473  0.40728  1.0000
  S   S280      1.0  0.55403  0.02304  0.37314  1.0000
  Fe  Fe142     1.0  0.51005  0.07007  0.38452  1.0000
  C   C769      1.0  0.67851  0.27902  0.30358  1.0000
  Fe  Fe143     1.0  0.51988  0.05991  0.44558  1.0000
  H   H773      1.0  0.60503  0.14399  0.36648  1.0000
  S   S281      1.0  0.53778  0.07110  0.37046  1.0000
  S   S282      1.0  0.54836  0.05923  0.43501  1.0000
  C   C770      1.0  0.58173  0.40262  0.10914  1.0000
  S   S283      1.0  0.50682  0.41953  0.14935  1.0000
  H   H774      1.0  0.57818  0.15711  0.38656  1.0000
  H   H775      1.0  0.70146  0.18134  0.00546  1.0000
  H   H776      1.0  0.73396  0.30989  0.23013  1.0000
  C   C771      1.0  0.58370  0.41804  0.15405  1.0000
  H   H777      1.0  0.59460  0.40335  0.21964  1.0000
  H   H778      1.0  0.51595  0.03897  0.30070  1.0000
  C   C772      1.0  0.53761  0.08875  0.01377  1.0000
  C   C773      1.0  0.54635  0.00191  0.37658  1.0000
  H   H779      1.0  0.52770  0.00800  0.40924  1.0000
  C   C774      1.0  0.49676  0.05847  0.00893  1.0000
  C   C775      1.0  0.55341  0.98872  0.35933  1.0000
  H   H780      1.0  0.59372  0.40423  0.09657  1.0000
  H   H781      1.0  0.57215  0.41301  0.10324  1.0000
  H   H782      1.0  0.61954  0.10980  0.40701  1.0000
  C   C776      1.0  0.49464  0.39869  0.01304  1.0000
  H   H783      1.0  0.50373  0.12514  0.48101  1.0000
  H   H784      1.0  0.50372  0.04452  0.04701  1.0000
  C   C777      1.0  0.53070  0.47048  0.13827  1.0000
  C   C778      1.0  0.54216  0.46442  0.11731  1.0000
  C   C779      1.0  0.54933  0.47630  0.09842  1.0000
  H   H785      1.0  0.52514  0.46152  0.15303  1.0000
  H   H786      1.0  0.55826  0.47176  0.08218  1.0000
  C   C780      1.0  0.59950  0.32355  0.18741  1.0000
  C   C781      1.0  0.58794  0.33501  0.20163  1.0000
  C   C782      1.0  0.57622  0.34602  0.18666  1.0000
  C   C783      1.0  0.57581  0.34571  0.15709  1.0000
  C   C784      1.0  0.58743  0.33435  0.14284  1.0000
  C   C785      1.0  0.59917  0.32337  0.15781  1.0000
  H   H787      1.0  0.58797  0.33528  0.22450  1.0000
  H   H788      1.0  0.56742  0.35460  0.19809  1.0000
  H   H789      1.0  0.58733  0.33395  0.12000  1.0000
  H   H790      1.0  0.60792  0.31470  0.14646  1.0000
  C   C786      1.0  0.61040  0.13304  0.42764  1.0000
  C   C787      1.0  0.60835  0.11673  0.41562  1.0000
  C   C788      1.0  0.59197  0.10925  0.41444  1.0000
  C   C789      1.0  0.57727  0.11803  0.42515  1.0000
  C   C790      1.0  0.57933  0.13431  0.43733  1.0000
  C   C791      1.0  0.59574  0.14172  0.43872  1.0000
  H   H791      1.0  0.57913  0.42974  0.14349  1.0000
  H   H792      1.0  0.59072  0.09675  0.40499  1.0000
  H   H793      1.0  0.56812  0.14128  0.44573  1.0000
  H   H794      1.0  0.59700  0.15424  0.44808  1.0000
  C   C792      1.0  0.64073  0.22849  0.35608  1.0000
  C   C793      1.0  0.63407  0.24278  0.34076  1.0000
  C   C794      1.0  0.63751  0.24467  0.31155  1.0000
  C   C795      1.0  0.64746  0.23211  0.29720  1.0000
  C   C796      1.0  0.65427  0.21793  0.31258  1.0000
  C   C797      1.0  0.65112  0.21622  0.34186  1.0000
  H   H795      1.0  0.62599  0.25235  0.35150  1.0000
  H   H796      1.0  0.63206  0.25560  0.30004  1.0000
  H   H797      1.0  0.66205  0.20818  0.30175  1.0000
  H   H798      1.0  0.65659  0.20530  0.35331  1.0000
  C   C798      1.0  0.65420  0.23899  0.09638  1.0000
  C   C799      1.0  0.66426  0.23011  0.07591  1.0000
  C   C800      1.0  0.65648  0.22180  0.05315  1.0000
  C   C801      1.0  0.63849  0.22222  0.05067  1.0000
  C   C802      1.0  0.62842  0.23115  0.07109  1.0000
  C   C803      1.0  0.63621  0.23956  0.09376  1.0000
  H   H799      1.0  0.67819  0.22959  0.07775  1.0000
  H   H800      1.0  0.66440  0.21507  0.03754  1.0000
  H   H801      1.0  0.61448  0.23165  0.06925  1.0000
  H   H802      1.0  0.62832  0.24648  0.10915  1.0000
  C   C804      1.0  0.49565  0.40127  0.25689  1.0000
  C   C805      1.0  0.71997  0.26975  0.24289  1.0000
  C   C806      1.0  0.71948  0.28684  0.23359  1.0000
  H   H803      1.0  0.52733  0.34680  0.12207  1.0000
  H   H804      1.0  0.59913  0.37636  0.19219  1.0000
  H   H805      1.0  0.70874  0.26205  0.24032  1.0000
  C   C807      1.0  0.49276  0.34491  0.12314  1.0000
  C   C808      1.0  0.70810  0.28605  0.30336  1.0000
  H   H806      1.0  0.51234  0.07728  0.31321  1.0000
  C   C809      1.0  0.63392  0.25251  0.00052  1.0000
  H   H807      1.0  0.50043  0.35836  0.02911  1.0000
  C   C810      1.0  0.73477  0.26282  0.25669  1.0000
  H   H808      1.0  0.50716  0.05272  0.99643  1.0000
  C   C811      1.0  0.58922  0.16500  0.38244  1.0000
  H   H809      1.0  0.51219  0.09096  0.03278  1.0000
  C   C812      1.0  0.61800  0.18444  0.37305  1.0000
  C   C813      1.0  0.51800  0.00408  0.32371  1.0000
  C   C814      1.0  0.73419  0.29666  0.23726  1.0000
  C   C815      1.0  0.60310  0.19217  0.38494  1.0000
  H   H810      1.0  0.53232  0.35966  0.03417  1.0000
  H   H811      1.0  0.59357  0.37650  0.14090  1.0000
  S   S284      1.0  0.51056  0.40940  0.23165  1.0000
  H   H812      1.0  0.71110  0.15975  0.47528  1.0000
  C   C816      1.0  0.68647  0.30737  0.28612  1.0000
  H   H813      1.0  0.64257  0.16896  0.34382  1.0000
  C   C817      1.0  0.59165  0.38833  0.15264  1.0000
  N   N63       1.0  0.61848  0.16743  0.36598  1.0000
  N   N64       1.0  0.51154  0.01988  0.33176  1.0000
  C   C818      1.0  0.52136  0.34899  0.10161  1.0000
  N   N65       1.0  0.64014  0.21315  0.16240  1.0000
  C   C819      1.0  0.65048  0.20739  0.14059  1.0000
  C   C820      1.0  0.64701  0.21591  0.18847  1.0000
  C   C821      1.0  0.66823  0.20445  0.14453  1.0000
  C   C822      1.0  0.66466  0.21288  0.19324  1.0000
  C   C823      1.0  0.67534  0.20730  0.17102  1.0000
  C   C824      1.0  0.62182  0.21746  0.15748  1.0000
  H   H814      1.0  0.64517  0.20561  0.11969  1.0000
  H   H815      1.0  0.63891  0.22076  0.20569  1.0000
  H   H816      1.0  0.67645  0.20058  0.12686  1.0000
  H   H817      1.0  0.67005  0.21536  0.21389  1.0000
  H   H818      1.0  0.68914  0.20549  0.17421  1.0000
  H   H819      1.0  0.61699  0.21101  0.13835  1.0000
  H   H820      1.0  0.61380  0.21343  0.17577  1.0000
  H   H821      1.0  0.62003  0.23157  0.15446  1.0000
  H   H822      1.0  0.50781  0.40047  0.05313  1.0000
  H   H823      1.0  0.58481  0.43025  0.19481  1.0000
  H   H824      1.0  0.54311  0.08113  0.03098  1.0000
  C   C825      1.0  0.60441  0.15766  0.37087  1.0000
  N   N66       1.0  0.50384  0.34823  0.09858  1.0000
  C   C826      1.0  0.50651  0.35534  0.04924  1.0000
  N   N67       1.0  0.69119  0.29032  0.29757  1.0000
  C   C827      1.0  0.69991  0.25824  0.32053  1.0000
  H   H825      1.0  0.51096  0.07621  0.26083  1.0000
  H   H826      1.0  0.56368  0.99154  0.34458  1.0000
  H   H827      1.0  0.64198  0.15319  0.37191  1.0000
  H   H828      1.0  0.57589  0.39027  0.10349  1.0000
  C   C828      1.0  0.59242  0.40335  0.19701  1.0000
  C   C829      1.0  0.58694  0.41842  0.18310  1.0000
  C   C830      1.0  0.72284  0.16686  0.47583  1.0000
  C   C831      1.0  0.52021  0.03534  0.32236  1.0000
  H   H829      1.0  0.60295  0.20566  0.39071  1.0000
  H   H830      1.0  0.63147  0.14939  0.33876  1.0000
  N   N68       1.0  0.58562  0.40300  0.13939  1.0000
  C   C832      1.0  0.72885  0.18112  0.01469  1.0000
  H   H831      1.0  0.57704  0.18815  0.39914  1.0000
  C   C833      1.0  0.50048  0.07388  0.30303  1.0000
  C   C834      1.0  0.71273  0.26994  0.31482  1.0000
  C   C835      1.0  0.58862  0.18236  0.38963  1.0000
  C   C836      1.0  0.68268  0.26281  0.31502  1.0000
  H   H832      1.0  0.62920  0.19214  0.36975  1.0000
  Fe  Fe144     1.0  0.64955  0.19490  0.48595  1.0000
  H   H833      1.0  0.71821  0.29490  0.29834  1.0000
  H   H834      1.0  0.70329  0.24561  0.32908  1.0000
  H   H835      1.0  0.54575  0.35373  0.08115  1.0000
  H   H836      1.0  0.67262  0.25381  0.31948  1.0000
  C   C837      1.0  0.49664  0.02135  0.34743  1.0000
  C   C838      1.0  0.63441  0.15937  0.35449  1.0000
  C   C839      1.0  0.49965  0.07329  0.27331  1.0000
  S   S285      1.0  0.66349  0.17002  0.47382  1.0000
  H   H837      1.0  0.72623  0.26647  0.31853  1.0000
  H   H838      1.0  0.51723  0.04627  0.33676  1.0000
  C   C840      1.0  0.53189  0.35293  0.07846  1.0000
  H   H839      1.0  0.55306  0.08942  0.47511  1.0000
  C   C841      1.0  0.49478  0.05387  0.03763  1.0000
  H   H840      1.0  0.50509  0.41703  0.29028  1.0000
  H   H841      1.0  0.53127  0.11034  0.46756  1.0000
  C   C842      1.0  0.49591  0.39742  0.04275  1.0000
  H   H842      1.0  0.69772  0.31342  0.27583  1.0000
  H   H843      1.0  0.49130  0.03392  0.35330  1.0000
  H   H844      1.0  0.53449  0.03321  0.32251  1.0000
  H   H845      1.0  0.66506  0.28246  0.29940  1.0000
  H   H846      1.0  0.64897  0.26030  0.03619  1.0000
  S   S286      1.0  0.70728  0.18916  0.43678  1.0000
  C   C843      1.0  0.54772  0.09288  0.99030  1.0000
  H   H847      1.0  0.50564  0.40275  0.00081  1.0000
  C   C844      1.0  0.53316  0.99806  0.39569  1.0000
  C   C845      1.0  0.52030  0.09434  0.01489  1.0000
  H   H848      1.0  0.50037  0.34038  0.14177  1.0000
  H   H849      1.0  0.68130  0.31585  0.30317  1.0000
  C   C846      1.0  0.51328  0.10380  0.99224  1.0000
  C   C847      1.0  0.49579  0.40760  0.28472  1.0000
  H   H850      1.0  0.52986  0.00292  0.31139  1.0000
  C   C848      1.0  0.73984  0.19038  0.45930  1.0000
  C   C849      1.0  0.49638  0.35132  0.07282  1.0000
  H   H851      1.0  0.73475  0.24978  0.26469  1.0000
  C   C850      1.0  0.64889  0.25801  0.01356  1.0000
  C   C851      1.0  0.66387  0.25990  0.99746  1.0000
  H   H852      1.0  0.62247  0.25055  0.01334  1.0000
  H   H853      1.0  0.67567  0.26374  0.00749  1.0000
  C   C852      1.0  0.71440  0.18057  0.99670  1.0000
  C   C853      1.0  0.50978  0.98915  0.33205  1.0000
  C   C854      1.0  0.49492  0.99047  0.34882  1.0000
  H   H854      1.0  0.56120  0.08861  0.98910  1.0000
  Fe  Fe145     1.0  0.64234  0.20369  0.91846  1.0000
  S   S287      1.0  0.65344  0.17680  0.91236  1.0000
  S   S288      1.0  0.64017  0.22672  0.88804  1.0000
  H   H855      1.0  0.52714  0.38118  0.78319  1.0000
  H   H856      1.0  0.55006  0.37340  0.71462  1.0000
  S   S289      1.0  0.65054  0.19809  0.53408  1.0000
  Fe  Fe146     1.0  0.67013  0.18228  0.95011  1.0000
  S   S290      1.0  0.69914  0.17655  0.94398  1.0000
  Fe  Fe147     1.0  0.63316  0.16839  0.94389  1.0000
  S   S291      1.0  0.61909  0.14261  0.94475  1.0000
  S   S292      1.0  0.66003  0.20946  0.95456  1.0000
  S   S293      1.0  0.62105  0.19505  0.94764  1.0000
  Fe  Fe148     1.0  0.64080  0.26510  0.66170  1.0000
  S   S294      1.0  0.65595  0.28859  0.67021  1.0000
  S   S295      1.0  0.63198  0.26066  0.61649  1.0000
  Fe  Fe149     1.0  0.63719  0.25710  0.72578  1.0000
  S   S296      1.0  0.65131  0.28053  0.73812  1.0000
  S   S297      1.0  0.62967  0.23481  0.75439  1.0000
  Fe  Fe150     1.0  0.63556  0.29427  0.70368  1.0000
  S   S298      1.0  0.62346  0.32166  0.70665  1.0000
  Fe  Fe151     1.0  0.67015  0.27279  0.70353  1.0000
  S   S299      1.0  0.69847  0.26444  0.71042  1.0000
  S   S300      1.0  0.62006  0.27125  0.69414  1.0000
  S   S301      1.0  0.65627  0.24888  0.69214  1.0000
  Fe  Fe152     1.0  0.53680  0.42165  0.64195  1.0000
  S   S302      1.0  0.50889  0.42429  0.65412  1.0000
  S   S303      1.0  0.55291  0.44295  0.62326  1.0000
  Fe  Fe153     1.0  0.53879  0.38250  0.65525  1.0000
  S   S304      1.0  0.51037  0.38273  0.66694  1.0000
  S   S305      1.0  0.55319  0.35602  0.65714  1.0000
  Fe  Fe154     1.0  0.50613  0.40007  0.62878  1.0000
  H   H857      1.0  0.50763  0.38427  0.55831  1.0000
  Fe  Fe155     1.0  0.51560  0.40676  0.69097  1.0000
  C   C855      1.0  0.73292  0.29990  0.73513  1.0000
  S   S306      1.0  0.53393  0.39801  0.61524  1.0000
  S   S307      1.0  0.54416  0.40596  0.68059  1.0000
  Fe  Fe156     1.0  0.53889  0.07969  0.89399  1.0000
  S   S308      1.0  0.51013  0.08556  0.89052  1.0000
  S   S309      1.0  0.55528  0.10390  0.88968  1.0000
  Fe  Fe157     1.0  0.53267  0.04120  0.90198  1.0000
  S   S310      1.0  0.50393  0.04511  0.90068  1.0000
  S   S311      1.0  0.54232  0.01349  0.90936  1.0000
  Fe  Fe158     1.0  0.50879  0.06219  0.86315  1.0000
  C   C856      1.0  0.73226  0.26454  0.72729  1.0000
  Fe  Fe159     1.0  0.50746  0.06799  0.92813  1.0000
  N   N69       1.0  0.52622  0.44344  0.56180  1.0000
  S   S312      1.0  0.53769  0.05733  0.86329  1.0000
  S   S313      1.0  0.53610  0.06304  0.93288  1.0000
  H   H858      1.0  0.68428  0.19653  0.50766  1.0000
  H   H859      1.0  0.67521  0.25791  0.95574  1.0000
  H   H860      1.0  0.54444  0.39015  0.73926  1.0000
  C   C857      1.0  0.54840  0.08536  0.49635  1.0000
  C   C858      1.0  0.49279  0.04289  0.70887  1.0000
  C   C859      1.0  0.50667  0.36372  0.77727  1.0000
  C   C860      1.0  0.64401  0.11982  0.89933  1.0000
  H   H861      1.0  0.51270  0.42103  0.57356  1.0000
  C   C861      1.0  0.53662  0.00092  0.85548  1.0000
  H   H862      1.0  0.50208  0.33918  0.71885  1.0000
  H   H863      1.0  0.53476  0.01418  0.84886  1.0000
  C   C862      1.0  0.66362  0.25662  0.96849  1.0000
  H   H864      1.0  0.49572  0.02278  0.79693  1.0000
  C   C863      1.0  0.54053  0.99711  0.88371  1.0000
  C   C864      1.0  0.68466  0.13632  0.95127  1.0000
  C   C865      1.0  0.51530  0.11692  0.94524  1.0000
  N   N70       1.0  0.65818  0.12509  0.91739  1.0000
  C   C866      1.0  0.60865  0.22432  0.63030  1.0000
  H   H865      1.0  0.63477  0.11174  0.91106  1.0000
  H   H866      1.0  0.50956  0.48418  0.56221  1.0000
  C   C867      1.0  0.55065  0.46503  0.61329  1.0000
  C   C868      1.0  0.50535  0.02485  0.77979  1.0000
  H   H867      1.0  0.69372  0.15996  0.52183  1.0000
  C   C869      1.0  0.51210  0.43489  0.57106  1.0000
  C   C870      1.0  0.60308  0.33067  0.69508  1.0000
  C   C871      1.0  0.59946  0.34842  0.69844  1.0000
  C   C872      1.0  0.58411  0.35637  0.68773  1.0000
  C   C873      1.0  0.57209  0.34665  0.67348  1.0000
  C   C874      1.0  0.57549  0.32883  0.67082  1.0000
  C   C875      1.0  0.59083  0.32089  0.68151  1.0000
  H   H868      1.0  0.60878  0.35615  0.70895  1.0000
  H   H869      1.0  0.58182  0.37008  0.68994  1.0000
  H   H870      1.0  0.56628  0.32112  0.66001  1.0000
  H   H871      1.0  0.59323  0.30723  0.67897  1.0000
  C   C876      1.0  0.60104  0.13231  0.92939  1.0000
  C   C877      1.0  0.59703  0.11567  0.93873  1.0000
  C   C878      1.0  0.58318  0.10678  0.92697  1.0000
  C   C879      1.0  0.57308  0.11437  0.90549  1.0000
  C   C880      1.0  0.57714  0.13099  0.89611  1.0000
  C   C881      1.0  0.59096  0.13990  0.90794  1.0000
  H   H872      1.0  0.63658  0.13139  0.89165  1.0000
  H   H873      1.0  0.58042  0.09399  0.93434  1.0000
  H   H874      1.0  0.56950  0.13705  0.87953  1.0000
  H   H875      1.0  0.59380  0.15263  0.90037  1.0000
  C   C882      1.0  0.63812  0.22831  0.85060  1.0000
  C   C883      1.0  0.63980  0.24447  0.83752  1.0000
  C   C884      1.0  0.63760  0.24661  0.80811  1.0000
  C   C885      1.0  0.63352  0.23261  0.79135  1.0000
  C   C886      1.0  0.63196  0.21643  0.80436  1.0000
  C   C887      1.0  0.63436  0.21424  0.83376  1.0000
  H   H876      1.0  0.64257  0.25547  0.85033  1.0000
  H   H877      1.0  0.63856  0.25920  0.79857  1.0000
  H   H878      1.0  0.62870  0.20552  0.79170  1.0000
  H   H879      1.0  0.63291  0.20176  0.84349  1.0000
  C   C888      1.0  0.63887  0.24403  0.59298  1.0000
  C   C889      1.0  0.64962  0.23022  0.60171  1.0000
  C   C890      1.0  0.65336  0.21645  0.58314  1.0000
  C   C891      1.0  0.64674  0.21652  0.55548  1.0000
  C   C892      1.0  0.63646  0.23060  0.54649  1.0000
  C   C893      1.0  0.63244  0.24420  0.56524  1.0000
  H   H880      1.0  0.65466  0.22991  0.62297  1.0000
  H   H881      1.0  0.66131  0.20561  0.59033  1.0000
  H   H882      1.0  0.63119  0.23078  0.52536  1.0000
  H   H883      1.0  0.62410  0.25481  0.55826  1.0000
  C   C894      1.0  0.73084  0.19748  0.53571  1.0000
  C   C895      1.0  0.71766  0.29246  0.72572  1.0000
  C   C896      1.0  0.71726  0.27472  0.72176  1.0000
  H   H884      1.0  0.67890  0.17355  0.54200  1.0000
  C   C897      1.0  0.70982  0.28106  0.79211  1.0000
  H   H885      1.0  0.70625  0.30046  0.72143  1.0000
  N   N71       1.0  0.62327  0.20980  0.67876  1.0000
  H   H886      1.0  0.51459  0.01363  0.77879  1.0000
  C   C898      1.0  0.52432  0.09013  0.52935  1.0000
  C   C899      1.0  0.50145  0.99419  0.91552  1.0000
  H   H887      1.0  0.61232  0.23272  0.97319  1.0000
  H   H888      1.0  0.73207  0.25078  0.72431  1.0000
  H   H889      1.0  0.69626  0.14500  0.91249  1.0000
  H   H890      1.0  0.50490  0.08370  0.79627  1.0000
  C   C900      1.0  0.54608  0.37598  0.73687  1.0000
  C   C901      1.0  0.62567  0.20182  0.65325  1.0000
  C   C902      1.0  0.52194  0.37160  0.76938  1.0000
  H   H891      1.0  0.51340  0.13066  0.95084  1.0000
  C   C903      1.0  0.73377  0.17754  0.95664  1.0000
  N   N72       1.0  0.52313  0.10734  0.96894  1.0000
  C   C904      1.0  0.49630  0.38876  0.54682  1.0000
  C   C905      1.0  0.67197  0.13291  0.90530  1.0000
  H   H892      1.0  0.54165  0.42903  0.53259  1.0000
  S   S314      1.0  0.50976  0.41215  0.73771  1.0000
  H   H893      1.0  0.52350  0.11598  0.92582  1.0000
  C   C906      1.0  0.70765  0.21044  0.50824  1.0000
  C   C907      1.0  0.49722  0.99674  0.88716  1.0000
  H   H894      1.0  0.52573  0.47099  0.63222  1.0000
  H   H895      1.0  0.50526  0.37828  0.50692  1.0000
  H   H896      1.0  0.55662  0.37109  0.75086  1.0000
  C   C908      1.0  0.50890  0.09857  0.53783  1.0000
  C   C909      1.0  0.52508  0.10697  0.48737  1.0000
  H   H897      1.0  0.60344  0.23029  0.61123  1.0000
  H   H898      1.0  0.69665  0.16272  0.55942  1.0000
  C   C910      1.0  0.69270  0.16929  0.53948  1.0000
  H   H899      1.0  0.73293  0.22090  0.51166  1.0000
  C   C911      1.0  0.49942  0.35205  0.75898  1.0000
  H   H900      1.0  0.51251  0.03636  0.78597  1.0000
  C   C912      1.0  0.60647  0.23247  0.65631  1.0000
  H   H901      1.0  0.53647  0.46769  0.55075  1.0000
  H   H902      1.0  0.62043  0.20273  0.60835  1.0000
  H   H903      1.0  0.59945  0.24475  0.65754  1.0000
  N   N73       1.0  0.52991  0.36774  0.74419  1.0000
  C   C913      1.0  0.52307  0.35606  0.72633  1.0000
  C   C914      1.0  0.72010  0.18405  0.54292  1.0000
  C   C915      1.0  0.50765  0.34815  0.73334  1.0000
  C   C916      1.0  0.50141  0.11123  0.52038  1.0000
  H   H904      1.0  0.62239  0.20350  0.72260  1.0000
  C   C917      1.0  0.68547  0.13849  0.92200  1.0000
  H   H905      1.0  0.52941  0.35295  0.70635  1.0000
  H   H906      1.0  0.64836  0.24851  0.93365  1.0000
  H   H907      1.0  0.69482  0.14113  0.96446  1.0000
  H   H908      1.0  0.60872  0.25344  0.95607  1.0000
  C   C918      1.0  0.49542  0.06137  0.51156  1.0000
  H   H909      1.0  0.50244  0.09486  0.55725  1.0000
  C   C919      1.0  0.49380  0.05607  0.53991  1.0000
  C   C920      1.0  0.51004  0.47029  0.56448  1.0000
  N   N74       1.0  0.61494  0.32186  0.62225  1.0000
  C   C921      1.0  0.59942  0.32704  0.61075  1.0000
  C   C922      1.0  0.62512  0.33348  0.63502  1.0000
  C   C923      1.0  0.59385  0.34432  0.61152  1.0000
  C   C924      1.0  0.61998  0.35087  0.63605  1.0000
  C   C925      1.0  0.60423  0.35628  0.62424  1.0000
  C   C926      1.0  0.62023  0.30361  0.62280  1.0000
  H   H910      1.0  0.59102  0.31775  0.60162  1.0000
  H   H911      1.0  0.63697  0.32922  0.64546  1.0000
  H   H912      1.0  0.58124  0.34831  0.60341  1.0000
  H   H913      1.0  0.62783  0.35993  0.64701  1.0000
  H   H914      1.0  0.59975  0.36961  0.62587  1.0000
  H   H915      1.0  0.61787  0.29817  0.64418  1.0000
  H   H916      1.0  0.61310  0.29604  0.60716  1.0000
  H   H917      1.0  0.63421  0.30180  0.61761  1.0000
  N   N75       1.0  0.69591  0.25445  0.78399  1.0000
  H   H918      1.0  0.54810  0.10532  0.94971  1.0000
  H   H919      1.0  0.64907  0.11232  0.88100  1.0000
  C   C927      1.0  0.54024  0.10232  0.96800  1.0000
  H   H920      1.0  0.55368  0.44179  0.55714  1.0000
  C   C928      1.0  0.64838  0.25123  0.95612  1.0000
  C   C929      1.0  0.68084  0.24509  0.77485  1.0000
  C   C930      1.0  0.72455  0.21073  0.51821  1.0000
  C   C931      1.0  0.49356  0.40917  0.78934  1.0000
  C   C932      1.0  0.53548  0.98758  0.83565  1.0000
  C   C933      1.0  0.53625  0.47593  0.61979  1.0000
  H   H921      1.0  0.72539  0.17341  0.55541  1.0000
  H   H922      1.0  0.67876  0.23374  0.78868  1.0000
  H   H923      1.0  0.66878  0.25323  0.77588  1.0000
  H   H924      1.0  0.68272  0.24083  0.75263  1.0000
  H   H925      1.0  0.73579  0.17598  0.93414  1.0000
  H   H926      1.0  0.64305  0.20998  0.70946  1.0000
  C   C934      1.0  0.61825  0.20886  0.62870  1.0000
  H   H927      1.0  0.52970  0.07980  0.54241  1.0000
  H   H928      1.0  0.50260  0.11155  0.93992  1.0000
  H   H929      1.0  0.50292  0.04658  0.54844  1.0000
  C   C935      1.0  0.54222  0.43374  0.55463  1.0000
  H   H930      1.0  0.70945  0.29499  0.79162  1.0000
  H   H931      1.0  0.51038  0.04972  0.74141  1.0000
  C   C936      1.0  0.65729  0.12288  0.94610  1.0000
  C   C937      1.0  0.63147  0.20260  0.70426  1.0000
  H   H932      1.0  0.49587  0.00968  0.87861  1.0000
  C   C938      1.0  0.50952  0.11547  0.49496  1.0000
  H   H933      1.0  0.61234  0.23150  0.70061  1.0000
  H   H934      1.0  0.50334  0.41761  0.79673  1.0000
  H   H935      1.0  0.60470  0.10958  0.95524  1.0000
  H   H936      1.0  0.63541  0.18885  0.70172  1.0000
  H   H937      1.0  0.55867  0.08799  0.51181  1.0000
  H   H938      1.0  0.63350  0.19004  0.65164  1.0000
  S   S315      1.0  0.65092  0.17179  0.98125  1.0000
  H   H939      1.0  0.68376  0.27918  0.77764  1.0000
  C   C939      1.0  0.49335  0.40456  0.76061  1.0000
  H   H940      1.0  0.57533  0.46350  0.59210  1.0000
  N   N76       1.0  0.63394  0.24880  0.97229  1.0000
  C   C940      1.0  0.69532  0.27203  0.78423  1.0000
  N   N77       1.0  0.53220  0.09439  0.50443  1.0000
  C   C941      1.0  0.69725  0.19686  0.51599  1.0000
  H   H941      1.0  0.64610  0.11720  0.95584  1.0000
  H   H942      1.0  0.67244  0.13515  0.88268  1.0000
  C   C942      1.0  0.52527  0.46087  0.55801  1.0000
  C   C943      1.0  0.71082  0.24548  0.79088  1.0000
  C   C944      1.0  0.61391  0.22499  0.68048  1.0000
  C   C945      1.0  0.56412  0.47164  0.59717  1.0000
  N   N78       1.0  0.49663  0.02734  0.75258  1.0000
  H   H943      1.0  0.62096  0.23636  0.93868  1.0000
  C   C946      1.0  0.49436  0.07869  0.78429  1.0000
  C   C947      1.0  0.67046  0.12852  0.96346  1.0000
  C   C948      1.0  0.49569  0.46172  0.57453  1.0000
  N   N79       1.0  0.70348  0.18395  0.53324  1.0000
  H   H944      1.0  0.73655  0.27889  0.80454  1.0000
  C   C949      1.0  0.61819  0.24260  0.95939  1.0000
  H   H945      1.0  0.54425  0.42266  0.56928  1.0000
  H   H946      1.0  0.50357  0.00515  0.92898  1.0000
  Fe  Fe160     1.0  0.63976  0.19888  0.98325  1.0000
  C   C950      1.0  0.50096  0.04056  0.73498  1.0000
  C   C951      1.0  0.72559  0.25410  0.79874  1.0000
  C   C952      1.0  0.71679  0.17863  0.96754  1.0000
  H   H947      1.0  0.49790  0.09573  0.74869  1.0000
  H   H948      1.0  0.49580  0.05373  0.69538  1.0000
  H   H949      1.0  0.50017  0.36712  0.79698  1.0000
  C   C953      1.0  0.72504  0.27202  0.79931  1.0000
  H   H950      1.0  0.71140  0.23156  0.79003  1.0000
  S   S316      1.0  0.51277  0.05268  0.49098  1.0000
  H   H951      1.0  0.73748  0.24698  0.80385  1.0000
  H   H952      1.0  0.70274  0.22033  0.49385  1.0000
  C   C954      1.0  0.49489  0.38534  0.51765  1.0000
  H   H953      1.0  0.54646  0.07129  0.49561  1.0000
  H   H954      1.0  0.73316  0.31367  0.73792  1.0000
  H   H955      1.0  0.53281  0.99070  0.81377  1.0000
  C   C955      1.0  0.49667  0.44390  0.57771  1.0000
  C   C956      1.0  0.73684  0.16101  0.49265  1.0000
  H   H956      1.0  0.73569  0.14947  0.50528  1.0000
  H   H957      1.0  0.66947  0.12721  0.98625  1.0000
  H   H958      1.0  0.49120  0.44993  0.94866  1.0000
  C   C957      1.0  0.49037  0.08546  0.75731  1.0000
  Fe  Fe161     1.0  0.67316  0.78101  0.28029  1.0000
  S   S317      1.0  0.66999  0.75315  0.27059  1.0000
  S   S318      1.0  0.69975  0.79302  0.27938  1.0000
  Fe  Fe162     1.0  0.63399  0.78810  0.29175  1.0000
  S   S319      1.0  0.62878  0.76038  0.28220  1.0000
  S   S320      1.0  0.60843  0.80259  0.30396  1.0000
  Fe  Fe163     1.0  0.65202  0.75359  0.30866  1.0000
  S   S321      1.0  0.65243  0.73105  0.34002  1.0000
  Fe  Fe164     1.0  0.64700  0.76246  0.24518  1.0000
  S   S322      1.0  0.63835  0.75540  0.20062  1.0000
  S   S323      1.0  0.65659  0.78095  0.32011  1.0000
  S   S324      1.0  0.65094  0.79058  0.25299  1.0000
  Fe  Fe165     1.0  0.67195  0.67842  0.00889  1.0000
  S   S325      1.0  0.67300  0.70606  0.02088  1.0000
  C   C958      1.0  0.53156  0.57964  0.19989  1.0000
  Fe  Fe166     1.0  0.63393  0.67557  0.02974  1.0000
  S   S326      1.0  0.63288  0.70372  0.04188  1.0000
  S   S327      1.0  0.60821  0.66251  0.04062  1.0000
  H   H959      1.0  0.50830  0.55747  0.42816  1.0000
  H   H960      1.0  0.49125  0.60491  0.45652  1.0000
  Fe  Fe167     1.0  0.65909  0.69862  0.06086  1.0000
  S   S328      1.0  0.66886  0.70500  0.10506  1.0000
  H   H961      1.0  0.70670  0.76477  0.23968  1.0000
  S   S329      1.0  0.65983  0.67034  0.05031  1.0000
  Fe  Fe168     1.0  0.53126  0.54630  0.09886  1.0000
  C   C959      1.0  0.57236  0.63262  0.99009  1.0000
  S   S330      1.0  0.52909  0.52237  0.12687  1.0000
  Fe  Fe169     1.0  0.54705  0.57904  0.07248  1.0000
  S   S331      1.0  0.52089  0.59252  0.06734  1.0000
  S   S332      1.0  0.57319  0.58931  0.05717  1.0000
  Fe  Fe170     1.0  0.51519  0.58194  0.11113  1.0000
  S   S333      1.0  0.50133  0.59551  0.14785  1.0000
  Fe  Fe171     1.0  0.51237  0.56702  0.05090  1.0000
  H   H962      1.0  0.49487  0.92387  0.20697  1.0000
  S   S334      1.0  0.54184  0.57032  0.11732  1.0000
  S   S335      1.0  0.53859  0.55368  0.05421  1.0000
  Fe  Fe172     1.0  0.54747  0.88913  0.33598  1.0000
  S   S336      1.0  0.52258  0.87699  0.32425  1.0000
  S   S337      1.0  0.57512  0.87788  0.32902  1.0000
  Fe  Fe173     1.0  0.52821  0.92278  0.35695  1.0000
  S   S338      1.0  0.50232  0.91262  0.34576  1.0000
  S   S339      1.0  0.52531  0.94740  0.38306  1.0000
  Fe  Fe174     1.0  0.51217  0.88800  0.36575  1.0000
  H   H963      1.0  0.55860  0.57417  0.00434  1.0000
  Fe  Fe175     1.0  0.51481  0.90288  0.30545  1.0000
  C   C960      1.0  0.49221  0.90183  0.23424  1.0000
  S   S340      1.0  0.53762  0.89834  0.37843  1.0000
  S   S341      1.0  0.54026  0.91471  0.31544  1.0000
  C   C961      1.0  0.53401  0.96811  0.38012  1.0000
  H   H964      1.0  0.59597  0.75005  0.42368  1.0000
  H   H965      1.0  0.64001  0.69509  0.16825  1.0000
  C   C962      1.0  0.54720  0.97192  0.36093  1.0000
  C   C963      1.0  0.52284  0.53267  0.20181  1.0000
  H   H966      1.0  0.55267  0.96191  0.34749  1.0000
  C   C964      1.0  0.54772  0.61534  0.99998  1.0000
  C   C965      1.0  0.54521  0.49406  0.10052  1.0000
  C   C966      1.0  0.60199  0.72396  0.38809  1.0000
  C   C967      1.0  0.52852  0.54870  0.19299  1.0000
  H   H967      1.0  0.50911  0.51902  0.23426  1.0000
  H   H968      1.0  0.51303  0.94210  0.45910  1.0000
  H   H969      1.0  0.70366  0.69651  0.43302  1.0000
  C   C968      1.0  0.53414  0.50014  0.12200  1.0000
  C   C969      1.0  0.71663  0.67084  0.98794  1.0000
  H   H970      1.0  0.52280  0.88041  0.22393  1.0000
  H   H971      1.0  0.57493  0.65295  0.06178  1.0000
  H   H972      1.0  0.59498  0.71018  0.12069  1.0000
  H   H973      1.0  0.68162  0.69290  0.44286  1.0000
  H   H974      1.0  0.73260  0.75728  0.21033  1.0000
  C   C970      1.0  0.52757  0.87116  0.24036  1.0000
  H   H975      1.0  0.52519  0.52146  0.18862  1.0000
  C   C971      1.0  0.52714  0.98125  0.39758  1.0000
  H   H976      1.0  0.68740  0.69335  0.40623  1.0000
  C   C972      1.0  0.59932  0.64189  0.04723  1.0000
  C   C973      1.0  0.60842  0.62641  0.04171  1.0000
  C   C974      1.0  0.60036  0.61052  0.04564  1.0000
  C   C975      1.0  0.58310  0.60977  0.05526  1.0000
  C   C976      1.0  0.57413  0.62524  0.06143  1.0000
  C   C977      1.0  0.58216  0.64113  0.05734  1.0000
  H   H977      1.0  0.62160  0.62665  0.03397  1.0000
  H   H978      1.0  0.60751  0.59870  0.04086  1.0000
  H   H979      1.0  0.56090  0.62499  0.06889  1.0000
  H   H980      1.0  0.53438  0.61453  0.00684  1.0000
  C   C978      1.0  0.59955  0.82373  0.31069  1.0000
  C   C979      1.0  0.58162  0.82590  0.31571  1.0000
  C   C980      1.0  0.57392  0.84226  0.32150  1.0000
  C   C981      1.0  0.58407  0.85675  0.32257  1.0000
  C   C982      1.0  0.60198  0.85459  0.31743  1.0000
  C   C983      1.0  0.60967  0.83825  0.31147  1.0000
  H   H981      1.0  0.57360  0.81482  0.31517  1.0000
  H   H982      1.0  0.56014  0.84364  0.32530  1.0000
  H   H983      1.0  0.61001  0.86566  0.31816  1.0000
  H   H984      1.0  0.62345  0.83688  0.30776  1.0000
  C   C984      1.0  0.64755  0.74174  0.17413  1.0000
  C   C985      1.0  0.66198  0.73086  0.17915  1.0000
  C   C986      1.0  0.66854  0.72001  0.15752  1.0000
  C   C987      1.0  0.66075  0.71983  0.13072  1.0000
  C   C988      1.0  0.64644  0.73084  0.12563  1.0000
  C   C989      1.0  0.63989  0.74170  0.14724  1.0000
  H   H985      1.0  0.66799  0.73071  0.19973  1.0000
  H   H986      1.0  0.67962  0.71153  0.16169  1.0000
  H   H987      1.0  0.64031  0.73086  0.10515  1.0000
  H   H988      1.0  0.62875  0.75010  0.14311  1.0000
  C   C990      1.0  0.64715  0.73090  0.37660  1.0000
  C   C991      1.0  0.64178  0.74577  0.39112  1.0000
  C   C992      1.0  0.63743  0.74485  0.42013  1.0000
  C   C993      1.0  0.63858  0.72913  0.43498  1.0000
  C   C994      1.0  0.64413  0.71433  0.42049  1.0000
  C   C995      1.0  0.64832  0.71522  0.39148  1.0000
  H   H989      1.0  0.64086  0.75794  0.37998  1.0000
  H   H990      1.0  0.63318  0.75638  0.43116  1.0000
  H   H991      1.0  0.64489  0.70212  0.43149  1.0000
  H   H992      1.0  0.65241  0.70363  0.38044  1.0000
  H   H993      1.0  0.68639  0.75164  0.38107  1.0000
  H   H994      1.0  0.51627  0.59496  0.42762  1.0000
  H   H995      1.0  0.51951  0.87305  0.25970  1.0000
  C   C996      1.0  0.68001  0.75320  0.42548  1.0000
  C   C997      1.0  0.68857  0.72688  0.40179  1.0000
  C   C998      1.0  0.51100  0.54584  0.24404  1.0000
  C   C999      1.0  0.49811  0.56336  0.46974  1.0000
  C   C1000     1.0  0.71873  0.78530  0.26143  1.0000
  C   C1001     1.0  0.71846  0.77166  0.24238  1.0000
  H   H996      1.0  0.62822  0.66831  0.09295  1.0000
  C   C1002     1.0  0.63161  0.69310  0.15039  1.0000
  H   H997      1.0  0.54120  0.90119  0.25090  1.0000
  H   H998      1.0  0.69230  0.72029  0.38244  1.0000
  C   C1003     1.0  0.62515  0.67830  0.10827  1.0000
  C   C1004     1.0  0.51451  0.92869  0.46532  1.0000
  C   C1005     1.0  0.52349  0.89954  0.45421  1.0000
  C   C1006     1.0  0.68818  0.77016  0.17055  1.0000
  H   H999      1.0  0.71441  0.67414  0.03294  1.0000
  C   C1007     1.0  0.52211  0.91687  0.44660  1.0000
  H   H1000     1.0  0.66656  0.77811  0.19680  1.0000
  H   H1001     1.0  0.53774  0.58421  0.00873  1.0000
  N   N80       1.0  0.54568  0.87413  0.24687  1.0000
  C   C1008     1.0  0.55737  0.86059  0.24911  1.0000
  C   C1009     1.0  0.55061  0.89052  0.25181  1.0000
  C   C1010     1.0  0.57463  0.86336  0.25562  1.0000
  C   C1011     1.0  0.56772  0.89373  0.25871  1.0000
  C   C1012     1.0  0.57980  0.88005  0.26043  1.0000
  H   H1002     1.0  0.55337  0.84752  0.24628  1.0000
  H   H1003     1.0  0.51439  0.51295  0.07002  1.0000
  H   H1004     1.0  0.58380  0.85259  0.25814  1.0000
  H   H1005     1.0  0.57145  0.90665  0.26365  1.0000
  H   H1006     1.0  0.59293  0.88227  0.26697  1.0000
  C   C1013     1.0  0.60627  0.70175  0.12378  1.0000
  C   C1014     1.0  0.71353  0.81245  0.20561  1.0000
  H   H1007     1.0  0.67703  0.76691  0.42494  1.0000
  H   H1008     1.0  0.51830  0.49276  0.15748  1.0000
  C   C1015     1.0  0.70511  0.77351  0.16249  1.0000
  N   N81       1.0  0.52529  0.56298  0.20919  1.0000
  C   C1016     1.0  0.51394  0.53128  0.22744  1.0000
  H   H1009     1.0  0.55098  0.50303  0.08602  1.0000
  C   C1017     1.0  0.68532  0.74466  0.40090  1.0000
  H   H1010     1.0  0.67350  0.75029  0.46970  1.0000
  Fe  Fe176     1.0  0.64686  0.70866  0.00056  1.0000
  N   N82       1.0  0.68640  0.71785  0.42641  1.0000
  H   H1011     1.0  0.64782  0.65766  0.14606  1.0000
  H   H1012     1.0  0.52650  0.92109  0.42596  1.0000
  H   H1013     1.0  0.51399  0.57301  0.24723  1.0000
  H   H1014     1.0  0.53194  0.58058  0.17645  1.0000
  H   H1015     1.0  0.49332  0.51005  0.12570  1.0000
  C   C1018     1.0  0.51683  0.56167  0.23457  1.0000
  H   H1016     1.0  0.71098  0.82390  0.19202  1.0000
  H   H1017     1.0  0.54470  0.58152  0.20826  1.0000
  H   H1018     1.0  0.68160  0.75945  0.16143  1.0000
  C   C1019     1.0  0.51819  0.59904  0.44925  1.0000
  H   H1019     1.0  0.49353  0.55931  0.15613  1.0000
  S   S342      1.0  0.49774  0.87329  0.40000  1.0000
  H   H1020     1.0  0.51698  0.97844  0.41253  1.0000
  H   H1021     1.0  0.61405  0.71404  0.16219  1.0000
  N   N83       1.0  0.55734  0.60076  0.99367  1.0000
  C   C1020     1.0  0.73318  0.76746  0.22571  1.0000
  H   H1022     1.0  0.60576  0.72173  0.41051  1.0000
  H   H1023     1.0  0.52269  0.59033  0.20705  1.0000
  C   C1021     1.0  0.61032  0.68881  0.10434  1.0000
  H   H1024     1.0  0.59357  0.78108  0.41180  1.0000
  C   C1022     1.0  0.53466  0.59827  0.46109  1.0000
  H   H1025     1.0  0.58924  0.71829  0.38454  1.0000
  H   H1026     1.0  0.52872  0.89014  0.43932  1.0000
  H   H1027     1.0  0.50440  0.49445  0.08522  1.0000
  C   C1023     1.0  0.67805  0.74393  0.45057  1.0000
  H   H1028     1.0  0.52570  0.85802  0.23225  1.0000
  H   H1029     1.0  0.72656  0.78986  0.16825  1.0000
  C   C1024     1.0  0.68998  0.69925  0.42702  1.0000
  H   H1030     1.0  0.50362  0.54502  0.26360  1.0000
  S   S343      1.0  0.49244  0.56039  0.01736  1.0000
  H   H1031     1.0  0.73339  0.70686  0.47129  1.0000
  C   C1025     1.0  0.65120  0.66957  0.13461  1.0000
  H   H1032     1.0  0.60217  0.68700  0.08609  1.0000
  N   N84       1.0  0.63574  0.68074  0.13081  1.0000
  H   H1033     1.0  0.54572  0.59371  0.44870  1.0000
  H   H1034     1.0  0.61193  0.71710  0.37486  1.0000
  C   C1026     1.0  0.68141  0.72618  0.45067  1.0000
  C   C1027     1.0  0.50215  0.50593  0.07145  1.0000
  H   H1035     1.0  0.57845  0.64497  0.98978  1.0000
  H   H1036     1.0  0.53526  0.54966  0.17288  1.0000
  H   H1037     1.0  0.67955  0.71905  0.47015  1.0000
  N   N85       1.0  0.60108  0.74233  0.38111  1.0000
  C   C1028     1.0  0.59748  0.75415  0.40184  1.0000
  C   C1029     1.0  0.60308  0.74751  0.35362  1.0000
  C   C1030     1.0  0.59614  0.77171  0.39531  1.0000
  C   C1031     1.0  0.60152  0.76492  0.34634  1.0000
  C   C1032     1.0  0.59816  0.77709  0.36732  1.0000
  H   H1038     1.0  0.60607  0.73821  0.33716  1.0000
  H   H1039     1.0  0.60291  0.76902  0.32453  1.0000
  H   H1040     1.0  0.59716  0.79065  0.36175  1.0000
  H   H1041     1.0  0.66131  0.67627  0.14644  1.0000
  C   C1033     1.0  0.54944  0.58394  0.99499  1.0000
  H   H1042     1.0  0.70885  0.81530  0.22745  1.0000
  C   C1034     1.0  0.72316  0.67344  0.01502  1.0000
  N   N86       1.0  0.70494  0.79760  0.19402  1.0000
  C   C1035     1.0  0.71331  0.78745  0.17436  1.0000
  C   C1036     1.0  0.68833  0.79441  0.20203  1.0000
  C   C1037     1.0  0.73420  0.79404  0.26464  1.0000
  C   C1038     1.0  0.67972  0.78065  0.19042  1.0000
  H   H1043     1.0  0.65715  0.66617  0.11383  1.0000
  C   C1039     1.0  0.61690  0.70386  0.14710  1.0000
  S   S344      1.0  0.50462  0.55802  0.09422  1.0000
  H   H1044     1.0  0.68175  0.80238  0.21777  1.0000
  H   H1045     1.0  0.72773  0.80989  0.20708  1.0000
  H   H1046     1.0  0.71186  0.76531  0.14725  1.0000
  C   C1040     1.0  0.73650  0.69447  0.48075  1.0000
  C   C1041     1.0  0.55510  0.63147  0.99837  1.0000
  S   S345      1.0  0.63208  0.72839  0.47105  1.0000
  C   C1042     1.0  0.49708  0.56201  0.44007  1.0000
  H   H1047     1.0  0.73455  0.80464  0.27928  1.0000
  C   C1043     1.0  0.50405  0.60469  0.46574  1.0000
  H   H1048     1.0  0.51520  0.97658  0.32634  1.0000
  S   S346      1.0  0.50543  0.91051  0.26093  1.0000
  H   H1049     1.0  0.51005  0.55991  0.48046  1.0000
  H   H1050     1.0  0.54763  0.64296  0.00423  1.0000
  H   H1051     1.0  0.51802  0.88075  0.48605  1.0000
  H   H1052     1.0  0.49884  0.50128  0.05009  1.0000
  C   C1044     1.0  0.51732  0.89430  0.48063  1.0000
  C   C1045     1.0  0.52687  0.48825  0.14075  1.0000
  S   S347      1.0  0.64606  0.68119  0.98702  1.0000
  C   C1046     1.0  0.49046  0.58424  0.17517  1.0000
  S   S348      1.0  0.65412  0.68280  0.48692  1.0000
  Fe  Fe177     1.0  0.67691  0.77628  0.78292  1.0000
  S   S349      1.0  0.66596  0.75148  0.76885  1.0000
  S   S350      1.0  0.70646  0.77442  0.78585  1.0000
  Fe  Fe178     1.0  0.64001  0.79241  0.79610  1.0000
  S   S351      1.0  0.62734  0.76837  0.78194  1.0000
  S   S352      1.0  0.62417  0.81303  0.82119  1.0000
  Fe  Fe179     1.0  0.64821  0.75412  0.80671  1.0000
  S   S353      1.0  0.64339  0.73129  0.83601  1.0000
  Fe  Fe180     1.0  0.64650  0.76806  0.74553  1.0000
  S   S354      1.0  0.64103  0.76583  0.69819  1.0000
  S   S355      1.0  0.66021  0.77785  0.82226  1.0000
  S   S356      1.0  0.65808  0.79316  0.75820  1.0000
  Fe  Fe181     1.0  0.67595  0.68942  0.51575  1.0000
  S   S357      1.0  0.66345  0.71439  0.53027  1.0000
  C   C1047     1.0  0.49683  0.89805  0.69609  1.0000
  Fe  Fe182     1.0  0.64130  0.67048  0.52493  1.0000
  S   S358      1.0  0.62698  0.69481  0.53814  1.0000
  S   S359      1.0  0.63007  0.64338  0.52648  1.0000
  C   C1048     1.0  0.49834  0.89748  0.94280  1.0000
  H   H1053     1.0  0.54577  0.57984  0.97348  1.0000
  Fe  Fe183     1.0  0.65043  0.69958  0.56479  1.0000
  S   S360      1.0  0.65008  0.70248  0.61312  1.0000
  H   H1054     1.0  0.70926  0.80033  0.74097  1.0000
  S   S361      1.0  0.66455  0.67490  0.55232  1.0000
  Fe  Fe184     1.0  0.53621  0.54741  0.57873  1.0000
  S   S362      1.0  0.50820  0.55184  0.58996  1.0000
  S   S363      1.0  0.54971  0.52085  0.57911  1.0000
  Fe  Fe185     1.0  0.54265  0.58609  0.56761  1.0000
  S   S364      1.0  0.51474  0.59253  0.57846  1.0000
  S   S365      1.0  0.55679  0.61115  0.55734  1.0000
  Fe  Fe186     1.0  0.51745  0.57415  0.61505  1.0000
  C   C1049     1.0  0.73487  0.79634  0.72303  1.0000
  Fe  Fe187     1.0  0.50796  0.56980  0.55211  1.0000
  H   H1055     1.0  0.51512  0.89682  0.54050  1.0000
  S   S366      1.0  0.54571  0.56882  0.60585  1.0000
  S   S367      1.0  0.53554  0.56419  0.53916  1.0000
  Fe  Fe188     1.0  0.54307  0.88749  0.82190  1.0000
  S   S368      1.0  0.51716  0.87873  0.83770  1.0000
  S   S369      1.0  0.56350  0.87025  0.79867  1.0000
  Fe  Fe189     1.0  0.53096  0.92601  0.82694  1.0000
  S   S370      1.0  0.50450  0.91945  0.84178  1.0000
  S   S371      1.0  0.53678  0.95403  0.81793  1.0000
  Fe  Fe190     1.0  0.51824  0.90012  0.86996  1.0000
  C   C1050     1.0  0.52470  0.53490  0.66053  1.0000
  Fe  Fe191     1.0  0.50567  0.89902  0.80819  1.0000
  H   H1056     1.0  0.61977  0.80054  0.87853  1.0000
  S   S372      1.0  0.54505  0.90754  0.85596  1.0000
  S   S373      1.0  0.53121  0.90692  0.79138  1.0000
  C   C1051     1.0  0.53777  0.97029  0.84392  1.0000
  C   C1052     1.0  0.58956  0.91166  0.85407  1.0000
  C   C1053     1.0  0.72773  0.66955  0.50711  1.0000
  C   C1054     1.0  0.54143  0.96643  0.87223  1.0000
  C   C1055     1.0  0.69294  0.72782  0.67173  1.0000
  H   H1057     1.0  0.54335  0.95319  0.87886  1.0000
  H   H1058     1.0  0.60884  0.75017  0.82912  1.0000
  H   H1059     1.0  0.58771  0.74918  0.84551  1.0000
  H   H1060     1.0  0.50870  0.89859  0.68395  1.0000
  H   H1061     1.0  0.50975  0.89914  0.73645  1.0000
  H   H1062     1.0  0.54605  0.97673  0.91370  1.0000
  H   H1063     1.0  0.68735  0.77993  0.72384  1.0000
  N   N87       1.0  0.51740  0.53618  0.68917  1.0000
  S   S374      1.0  0.69431  0.66737  0.98217  1.0000
  H   H1064     1.0  0.58068  0.90337  0.78553  1.0000
  H   H1065     1.0  0.63213  0.66377  0.57901  1.0000
  S   S375      1.0  0.51172  0.58239  0.66056  1.0000
  C   C1056     1.0  0.68919  0.73590  0.87877  1.0000
  C   C1057     1.0  0.50463  0.94615  0.91988  1.0000
  H   H1066     1.0  0.72341  0.66757  0.94397  1.0000
  C   C1058     1.0  0.49514  0.57616  0.68424  1.0000
  C   C1059     1.0  0.58441  0.92902  0.85458  1.0000
  H   H1067     1.0  0.73955  0.75791  0.77491  1.0000
  H   H1068     1.0  0.59238  0.66909  0.61551  1.0000
  C   C1060     1.0  0.60928  0.63477  0.53336  1.0000
  C   C1061     1.0  0.59454  0.64517  0.53897  1.0000
  C   C1062     1.0  0.57860  0.63768  0.54559  1.0000
  C   C1063     1.0  0.57712  0.61970  0.54708  1.0000
  C   C1064     1.0  0.59181  0.60930  0.54121  1.0000
  C   C1065     1.0  0.60771  0.61679  0.53430  1.0000
  H   H1069     1.0  0.59542  0.65899  0.53830  1.0000
  H   H1070     1.0  0.56737  0.64592  0.55000  1.0000
  H   H1071     1.0  0.59099  0.59547  0.54216  1.0000
  H   H1072     1.0  0.61897  0.60857  0.52998  1.0000
  C   C1066     1.0  0.60687  0.82843  0.81435  1.0000
  C   C1067     1.0  0.60112  0.83247  0.78703  1.0000
  C   C1068     1.0  0.58782  0.84516  0.78279  1.0000
  C   C1069     1.0  0.57983  0.85387  0.80572  1.0000
  C   C1070     1.0  0.58541  0.84968  0.83308  1.0000
  C   C1071     1.0  0.59888  0.83715  0.83729  1.0000
  H   H1073     1.0  0.60710  0.82600  0.76910  1.0000
  H   H1074     1.0  0.58374  0.84826  0.76149  1.0000
  H   H1075     1.0  0.57948  0.85618  0.85102  1.0000
  H   H1076     1.0  0.60317  0.83423  0.85854  1.0000
  C   C1072     1.0  0.64301  0.74788  0.67511  1.0000
  C   C1073     1.0  0.64065  0.75053  0.64588  1.0000
  C   C1074     1.0  0.64272  0.73685  0.62657  1.0000
  C   C1075     1.0  0.64701  0.72027  0.63632  1.0000
  C   C1076     1.0  0.64923  0.71759  0.66557  1.0000
  C   C1077     1.0  0.64734  0.73131  0.68486  1.0000
  H   H1077     1.0  0.63725  0.76329  0.63809  1.0000
  H   H1078     1.0  0.64091  0.73913  0.60418  1.0000
  H   H1079     1.0  0.65252  0.70482  0.67339  1.0000
  H   H1080     1.0  0.64920  0.72904  0.70723  1.0000
  C   C1078     1.0  0.64360  0.73166  0.87353  1.0000
  C   C1079     1.0  0.64776  0.74634  0.88854  1.0000
  C   C1080     1.0  0.64789  0.74602  0.91836  1.0000
  C   C1081     1.0  0.64383  0.73107  0.93350  1.0000
  C   C1082     1.0  0.63984  0.71635  0.91847  1.0000
  C   C1083     1.0  0.63962  0.71670  0.88866  1.0000
  H   H1081     1.0  0.65080  0.75797  0.87725  1.0000
  H   H1082     1.0  0.65093  0.75749  0.92979  1.0000
  H   H1083     1.0  0.63660  0.70479  0.92983  1.0000
  H   H1084     1.0  0.63638  0.70527  0.87728  1.0000
  C   C1084     1.0  0.49746  0.89844  0.72590  1.0000
  C   C1085     1.0  0.69835  0.73213  0.69878  1.0000
  C   C1086     1.0  0.62566  0.66547  0.59987  1.0000
  H   H1085     1.0  0.52448  0.50160  0.61485  1.0000
  S   S376      1.0  0.70242  0.69526  0.49672  1.0000
  H   H1086     1.0  0.63184  0.63205  0.59332  1.0000
  C   C1087     1.0  0.61101  0.76617  0.92030  1.0000
  C   C1088     1.0  0.72251  0.77840  0.75978  1.0000
  C   C1089     1.0  0.72092  0.79225  0.74090  1.0000
  C   C1090     1.0  0.68565  0.74051  0.65414  1.0000
  H   H1087     1.0  0.50809  0.91408  0.97484  1.0000
  C   C1091     1.0  0.61590  0.78270  0.91295  1.0000
  S   S377      1.0  0.64267  0.73181  0.97097  1.0000
  C   C1092     1.0  0.61137  0.77604  0.86386  1.0000
  H   H1088     1.0  0.49272  0.61096  0.53266  1.0000
  H   H1089     1.0  0.59182  0.88882  0.82850  1.0000
  H   H1090     1.0  0.68143  0.73762  0.85916  1.0000
  N   N88       1.0  0.50993  0.90599  0.49894  1.0000
  H   H1091     1.0  0.60525  0.73428  0.85536  1.0000
  C   C1093     1.0  0.58200  0.91077  0.80472  1.0000
  C   C1094     1.0  0.60646  0.75482  0.89902  1.0000
  C   C1095     1.0  0.60182  0.74778  0.84927  1.0000
  C   C1096     1.0  0.61876  0.63512  0.60065  1.0000
  C   C1097     1.0  0.69622  0.74913  0.70794  1.0000
  H   H1092     1.0  0.57388  0.95035  0.83059  1.0000
  H   H1093     1.0  0.68113  0.73722  0.63325  1.0000
  H   H1094     1.0  0.69415  0.71464  0.66445  1.0000
  Fe  Fe192     1.0  0.64153  0.70743  0.50208  1.0000
  C   C1098     1.0  0.61602  0.78771  0.88458  1.0000
  C   C1099     1.0  0.54919  0.49965  0.59352  1.0000
  H   H1095     1.0  0.67352  0.78462  0.69454  1.0000
  H   H1096     1.0  0.71789  0.66254  0.51812  1.0000
  H   H1097     1.0  0.61146  0.60861  0.60055  1.0000
  H   H1098     1.0  0.49725  0.85658  0.78043  1.0000
  H   H1099     1.0  0.57048  0.95045  0.78113  1.0000
  H   H1100     1.0  0.61969  0.79155  0.92918  1.0000
  H   H1101     1.0  0.67729  0.76700  0.65068  1.0000
  N   N89       1.0  0.68862  0.76138  0.69078  1.0000
  C   C1100     1.0  0.68352  0.75732  0.66410  1.0000
  C   C1101     1.0  0.49443  0.58331  0.71150  1.0000
  C   C1102     1.0  0.59669  0.65582  0.61262  1.0000
  H   H1102     1.0  0.61125  0.76197  0.94225  1.0000
  H   H1103     1.0  0.60309  0.74187  0.90488  1.0000
  H   H1104     1.0  0.50337  0.59308  0.71703  1.0000
  H   H1105     1.0  0.55707  0.93250  0.77599  1.0000
  N   N90       1.0  0.57730  0.92787  0.80525  1.0000
  H   H1106     1.0  0.68533  0.70213  0.95898  1.0000
  H   H1107     1.0  0.67875  0.70704  0.85535  1.0000
  H   H1108     1.0  0.57396  0.49331  0.57475  1.0000
  H   H1109     1.0  0.53576  0.52540  0.66007  1.0000
  C   C1103     1.0  0.54299  0.97980  0.89192  1.0000
  H   H1110     1.0  0.59412  0.90525  0.87319  1.0000
  H   H1111     1.0  0.68602  0.74720  0.89231  1.0000
  H   H1112     1.0  0.73933  0.80431  0.80027  1.0000
  C   C1104     1.0  0.60731  0.62181  0.60469  1.0000
  H   H1113     1.0  0.50211  0.93219  0.50572  1.0000
  C   C1105     1.0  0.52239  0.60896  0.50487  1.0000
  H   H1114     1.0  0.69668  0.78708  0.69095  1.0000
  C   C1106     1.0  0.58486  0.64283  0.61665  1.0000
  H   H1115     1.0  0.61931  0.67850  0.59989  1.0000
  H   H1116     1.0  0.61149  0.78010  0.84186  1.0000
  H   H1117     1.0  0.49274  0.98442  0.84737  1.0000
  C   C1107     1.0  0.59023  0.62573  0.61257  1.0000
  H   H1118     1.0  0.70403  0.72238  0.71265  1.0000
  C   C1108     1.0  0.50393  0.90013  0.52676  1.0000
  H   H1119     1.0  0.58100  0.61559  0.61454  1.0000
  C   C1109     1.0  0.68387  0.70315  0.93621  1.0000
  H   H1120     1.0  0.63566  0.66508  0.61660  1.0000
  C   C1110     1.0  0.56334  0.48862  0.58729  1.0000
  C   C1111     1.0  0.50452  0.52559  0.69735  1.0000
  H   H1121     1.0  0.49560  0.91008  0.53746  1.0000
  N   N91       1.0  0.50623  0.60925  0.49334  1.0000
  S   S378      1.0  0.51456  0.90320  0.91781  1.0000
  H   H1122     1.0  0.57862  0.93245  0.76085  1.0000
  C   C1112     1.0  0.49131  0.61525  0.51029  1.0000
  C   C1113     1.0  0.51697  0.54909  0.73520  1.0000
  C   C1114     1.0  0.67707  0.69038  0.89156  1.0000
  C   C1115     1.0  0.68649  0.77915  0.70047  1.0000
  C   C1116     1.0  0.58832  0.90245  0.82902  1.0000
  C   C1117     1.0  0.50373  0.97743  0.92605  1.0000
  H   H1123     1.0  0.52153  0.55874  0.74948  1.0000
  C   C1118     1.0  0.52305  0.85920  0.76447  1.0000
  C   C1119     1.0  0.53339  0.86068  0.74040  1.0000
  H   H1124     1.0  0.57151  0.64598  0.62220  1.0000
  H   H1125     1.0  0.58489  0.93622  0.87409  1.0000
  C   C1120     1.0  0.50844  0.92301  0.49159  1.0000
  N   N92       1.0  0.61336  0.65185  0.60448  1.0000
  H   H1126     1.0  0.49942  0.51651  0.68259  1.0000
  H   H1127     1.0  0.67633  0.67700  0.93162  1.0000
  H   H1128     1.0  0.70049  0.75242  0.72899  1.0000
  H   H1129     1.0  0.52880  0.85965  0.78528  1.0000
  H   H1130     1.0  0.70313  0.73580  0.87306  1.0000
  H   H1131     1.0  0.52925  0.54755  0.65312  1.0000
  H   H1132     1.0  0.51484  0.53101  0.64513  1.0000
  H   H1133     1.0  0.54719  0.86235  0.74257  1.0000
  H   H1134     1.0  0.53376  0.86143  0.69482  1.0000
  C   C1121     1.0  0.57821  0.93695  0.82985  1.0000
  N   N93       1.0  0.60691  0.75976  0.87120  1.0000
  N   N94       1.0  0.50165  0.96362  0.90883  1.0000
  C   C1122     1.0  0.49884  0.57913  0.96789  1.0000
  H   H1135     1.0  0.50182  0.94534  0.94291  1.0000
  C   C1123     1.0  0.57059  0.93621  0.77950  1.0000
  H   H1136     1.0  0.51828  0.94181  0.91608  1.0000
  C   C1124     1.0  0.68704  0.71857  0.92210  1.0000
  C   C1125     1.0  0.68038  0.70598  0.87808  1.0000
  H   H1137     1.0  0.50882  0.58537  0.97940  1.0000
  H   H1138     1.0  0.53377  0.55631  0.70114  1.0000
  N   N95       1.0  0.68516  0.71986  0.89340  1.0000
  C   C1126     1.0  0.72828  0.66973  0.96496  1.0000
  C   C1127     1.0  0.52381  0.54766  0.70781  1.0000
  H   H1139     1.0  0.52422  0.61296  0.52654  1.0000
  C   C1128     1.0  0.50526  0.85729  0.76156  1.0000
  H   H1140     1.0  0.50308  0.59336  0.92917  1.0000
  C   C1129     1.0  0.52588  0.86011  0.71370  1.0000
  C   C1130     1.0  0.58199  0.61771  0.98339  1.0000
  N   N96       1.0  0.49798  0.85680  0.73532  1.0000
  C   C1131     1.0  0.50806  0.85799  0.71153  1.0000
  C   C1132     1.0  0.57422  0.60179  0.98528  1.0000
  C   C1133     1.0  0.53555  0.49328  0.60998  1.0000
  C   C1134     1.0  0.72353  0.68559  0.49507  1.0000
  C   C1135     1.0  0.49729  0.52678  0.72451  1.0000
  H   H1141     1.0  0.67307  0.67947  0.87946  1.0000
  C   C1136     1.0  0.50353  0.53866  0.74347  1.0000
  C   C1137     1.0  0.49551  0.58367  0.93940  1.0000
  H   H1142     1.0  0.49611  0.93693  0.90944  1.0000
  H   H1143     1.0  0.69084  0.72950  0.93435  1.0000
  H   H1144     1.0  0.50225  0.85782  0.69070  1.0000
  H   H1145     1.0  0.49689  0.95508  0.86694  1.0000
  C   C1138     1.0  0.67884  0.68901  0.92081  1.0000
  H   H1146     1.0  0.49585  0.88872  0.52445  1.0000
  H   H1147     1.0  0.50745  0.97558  0.94794  1.0000
  C   C1139     1.0  0.49845  0.90488  0.96990  1.0000
  H   H1148     1.0  0.49749  0.54023  0.76414  1.0000
  C   C1140     1.0  0.53682  0.60336  0.48902  1.0000
  H   H1149     1.0  0.54957  0.60291  0.49849  1.0000
  C   C1141     1.0  0.49782  0.96601  0.88086  1.0000
  H   H1150     1.0  0.73368  0.80737  0.70907  1.0000
  H   H1151     1.0  0.58193  0.59021  0.98088  1.0000
  H   H1152     1.0  0.59556  0.61844  0.97782  1.0000
  C   C1142     1.0  0.73809  0.76853  0.76017  1.0000
  C   C1143     1.0  0.49545  0.98258  0.86965  1.0000
  Fe  Fe193     1.0  0.82985  0.16757  0.03046  1.0000
  S   S379      1.0  0.84138  0.19377  0.02824  1.0000
  S   S380      1.0  0.84551  0.14171  0.02921  1.0000
  Fe  Fe194     1.0  0.79261  0.18316  0.02120  1.0000
  S   S381      1.0  0.80232  0.20992  0.01758  1.0000
  S   S382      1.0  0.76349  0.18002  0.02778  1.0000
  H   H1153     1.0  0.86179  0.20957  0.40368  1.0000
  C   C1144     1.0  0.78790  0.21575  0.17113  1.0000
  Fe  Fe195     1.0  0.81879  0.20298  0.05532  1.0000
  S   S383      1.0  0.81597  0.22452  0.08794  1.0000
  H   H1154     1.0  0.80805  0.25070  0.12845  1.0000
  S   S384      1.0  0.80832  0.17652  0.06011  1.0000
  Fe  Fe196     1.0  0.79541  0.26848  0.28060  1.0000
  S   S385      1.0  0.80768  0.24200  0.28055  1.0000
  S   S386      1.0  0.76624  0.26446  0.28296  1.0000
  Fe  Fe197     1.0  0.83139  0.28447  0.28568  1.0000
  S   S387      1.0  0.84523  0.25848  0.28632  1.0000
  S   S388      1.0  0.84629  0.30969  0.28141  1.0000
  Fe  Fe198     1.0  0.82751  0.25174  0.25078  1.0000
  S   S389      1.0  0.83796  0.23349  0.21661  1.0000
  Fe  Fe199     1.0  0.82406  0.25055  0.31620  1.0000
  S   S390      1.0  0.82589  0.22895  0.34903  1.0000
  S   S391      1.0  0.81453  0.27796  0.24814  1.0000
  S   S392      1.0  0.81105  0.27686  0.31801  1.0000
  Fe  Fe200     1.0  0.92605  0.07605  0.08191  1.0000
  S   S393      1.0  0.95414  0.08047  0.07141  1.0000
  S   S394      1.0  0.90709  0.09891  0.09172  1.0000
  Fe  Fe201     1.0  0.93215  0.03646  0.08083  1.0000
  S   S395      1.0  0.96012  0.03861  0.06988  1.0000
  S   S396      1.0  0.92085  0.00983  0.07873  1.0000
  Fe  Fe202     1.0  0.96007  0.05921  0.10325  1.0000
  H   H1155     1.0  0.76551  0.19176  0.47691  1.0000
  Fe  Fe203     1.0  0.95185  0.05938  0.03917  1.0000
  H   H1156     1.0  0.77250  0.23925  0.16751  1.0000
  S   S397      1.0  0.93232  0.05594  0.11576  1.0000
  S   S398      1.0  0.92349  0.05614  0.04829  1.0000
  Fe  Fe204     1.0  0.94750  0.39476  0.29720  1.0000
  S   S399      1.0  0.91947  0.39695  0.31141  1.0000
  S   S400      1.0  0.95150  0.40031  0.24994  1.0000
  Fe  Fe205     1.0  0.95982  0.38638  0.35764  1.0000
  S   S401      1.0  0.93282  0.38735  0.37488  1.0000
  H   H1157     1.0  0.78150  0.21313  0.07206  1.0000
  Fe  Fe206     1.0  0.92514  0.37261  0.33605  1.0000
  S   S402      1.0  0.90755  0.34939  0.34212  1.0000
  Fe  Fe207     1.0  0.92951  0.41145  0.34867  1.0000
  S   S403      1.0  0.91663  0.43433  0.37141  1.0000
  S   S404      1.0  0.95282  0.36977  0.32047  1.0000
  S   S405      1.0  0.95681  0.41109  0.33280  1.0000
  C   C1145     1.0  0.92510  0.45528  0.37145  1.0000
  C   C1146     1.0  0.93847  0.45979  0.35312  1.0000
  C   C1147     1.0  0.91807  0.46776  0.39005  1.0000
  H   H1158     1.0  0.94396  0.45040  0.33857  1.0000
  H   H1159     1.0  0.90770  0.46445  0.40430  1.0000
  C   C1148     1.0  0.96976  0.39779  0.22708  1.0000
  C   C1149     1.0  0.96823  0.40321  0.19871  1.0000
  C   C1150     1.0  0.86395  0.16273  0.46431  1.0000
  C   C1151     1.0  0.77863  0.21830  0.37939  1.0000
  H   H1160     1.0  0.95642  0.40977  0.19186  1.0000
  S   S406      1.0  0.98838  0.38215  0.02139  1.0000
  H   H1161     1.0  0.89437  0.15766  0.01225  1.0000
  C   C1152     1.0  0.96272  0.42781  0.45911  1.0000
  C   C1153     1.0  0.88186  0.03947  0.06403  1.0000
  C   C1154     1.0  0.92716  0.99546  0.13182  1.0000
  C   C1155     1.0  0.96992  0.38395  0.43963  1.0000
  C   C1156     1.0  0.95780  0.35425  0.24637  1.0000
  C   C1157     1.0  0.92419  0.48463  0.39014  1.0000
  H   H1162     1.0  0.77484  0.22786  0.31061  1.0000
  C   C1158     1.0  0.98499  0.06559  0.23019  1.0000
  C   C1159     1.0  0.95925  0.36421  0.16873  1.0000
  C   C1160     1.0  0.98512  0.38940  0.23567  1.0000
  H   H1163     1.0  0.96242  0.43575  0.39061  1.0000
  Fe  Fe208     1.0  0.82386  0.19867  0.99084  1.0000
  C   C1161     1.0  0.98723  0.38614  0.48263  1.0000
  C   C1162     1.0  0.96938  0.06863  0.18533  1.0000
  H   H1164     1.0  0.86327  0.17830  0.41348  1.0000
  H   H1165     1.0  0.95745  0.38287  0.42979  1.0000
  H   H1166     1.0  0.95855  0.07396  0.17347  1.0000
  C   C1163     1.0  0.97115  0.38469  0.46933  1.0000
  C   C1164     1.0  0.98242  0.05901  0.17137  1.0000
  H   H1167     1.0  0.95865  0.41362  0.39962  1.0000
  H   H1168     1.0  0.94633  0.36294  0.25035  1.0000
  H   H1169     1.0  0.92885  0.00839  0.13924  1.0000
  C   C1165     1.0  0.86366  0.32021  0.29842  1.0000
  C   C1166     1.0  0.87104  0.31423  0.32373  1.0000
  C   C1167     1.0  0.88456  0.32317  0.33641  1.0000
  C   C1168     1.0  0.89116  0.33809  0.32393  1.0000
  C   C1169     1.0  0.88397  0.34392  0.29836  1.0000
  C   C1170     1.0  0.87030  0.33510  0.28586  1.0000
  H   H1170     1.0  0.86618  0.30285  0.33380  1.0000
  H   H1171     1.0  0.88991  0.31850  0.35622  1.0000
  H   H1172     1.0  0.88881  0.35532  0.28836  1.0000
  H   H1173     1.0  0.86479  0.33989  0.26626  1.0000
  C   C1171     1.0  0.77267  0.20645  0.08671  1.0000
  C   C1172     1.0  0.89222  0.03507  0.14093  1.0000
  H   H1174     1.0  0.76009  0.29755  0.25408  1.0000
  C   C1173     1.0  0.86282  0.13022  0.04691  1.0000
  C   C1174     1.0  0.86924  0.11454  0.03550  1.0000
  C   C1175     1.0  0.88303  0.10504  0.04834  1.0000
  C   C1176     1.0  0.89044  0.11089  0.07325  1.0000
  C   C1177     1.0  0.88397  0.12653  0.08472  1.0000
  C   C1178     1.0  0.87041  0.13621  0.07156  1.0000
  H   H1175     1.0  0.86346  0.10967  0.01655  1.0000
  H   H1176     1.0  0.88775  0.09307  0.03917  1.0000
  H   H1177     1.0  0.88949  0.13120  0.10402  1.0000
  H   H1178     1.0  0.86567  0.14816  0.08078  1.0000
  C   C1179     1.0  0.75370  0.18477  0.47663  1.0000
  S   S407      1.0  0.82118  0.22949  0.48343  1.0000
  H   H1179     1.0  0.96745  0.41913  0.98805  1.0000
  H   H1180     1.0  0.95953  0.38425  0.48212  1.0000
  H   H1181     1.0  0.77169  0.20772  0.32805  1.0000
  C   C1180     1.0  0.82130  0.22928  0.44600  1.0000
  C   C1181     1.0  0.82001  0.21404  0.43086  1.0000
  C   C1182     1.0  0.82141  0.21423  0.40116  1.0000
  C   C1183     1.0  0.82377  0.22967  0.38628  1.0000
  C   C1184     1.0  0.82476  0.24496  0.40138  1.0000
  C   C1185     1.0  0.82360  0.24473  0.43113  1.0000
  H   H1182     1.0  0.81832  0.20206  0.44205  1.0000
  H   H1183     1.0  0.82068  0.20233  0.38963  1.0000
  H   H1184     1.0  0.82669  0.25691  0.39018  1.0000
  H   H1185     1.0  0.82471  0.25657  0.44271  1.0000
  C   C1186     1.0  0.82242  0.22667  0.12361  1.0000
  C   C1187     1.0  0.83311  0.21442  0.13723  1.0000
  C   C1188     1.0  0.83767  0.21671  0.16574  1.0000
  C   C1189     1.0  0.83138  0.23108  0.18104  1.0000
  C   C1190     1.0  0.82059  0.24326  0.16749  1.0000
  C   C1191     1.0  0.81631  0.24115  0.13884  1.0000
  H   H1186     1.0  0.83796  0.20327  0.12575  1.0000
  H   H1187     1.0  0.84610  0.20724  0.17600  1.0000
  H   H1188     1.0  0.81561  0.25436  0.17895  1.0000
  C   C1192     1.0  0.88525  0.06081  0.10145  1.0000
  C   C1193     1.0  0.79393  0.20096  0.15721  1.0000
  H   H1189     1.0  0.96074  0.07968  0.22499  1.0000
  H   H1190     1.0  0.88342  0.05059  0.04948  1.0000
  C   C1194     1.0  0.96899  0.99437  0.11310  1.0000
  H   H1191     1.0  0.77865  0.21867  0.42509  1.0000
  C   C1195     1.0  0.74934  0.27277  0.26096  1.0000
  C   C1196     1.0  0.97749  0.07523  0.47128  1.0000
  H   H1192     1.0  0.97990  0.40337  0.15695  1.0000
  C   C1197     1.0  0.98156  0.39966  0.17887  1.0000
  C   C1198     1.0  0.86308  0.18718  0.43104  1.0000
  H   H1193     1.0  0.98784  0.34222  0.22577  1.0000
  C   C1199     1.0  0.77989  0.21912  0.32759  1.0000
  C   C1200     1.0  0.77687  0.22748  0.15713  1.0000
  C   C1201     1.0  0.88863  0.03115  0.11280  1.0000
  C   C1202     1.0  0.89223  0.05222  0.14925  1.0000
  N   N97       1.0  0.96376  0.35524  0.21692  1.0000
  H   H1194     1.0  0.79390  0.18682  0.11842  1.0000
  C   C1203     1.0  0.77920  0.22626  0.40579  1.0000
  H   H1195     1.0  0.79340  0.21498  0.32208  1.0000
  H   H1196     1.0  0.88892  0.07862  0.13546  1.0000
  H   H1197     1.0  0.86632  0.15496  0.44498  1.0000
  C   C1204     1.0  0.77197  0.22418  0.12931  1.0000
  C   C1205     1.0  0.97071  0.07192  0.21455  1.0000
  H   H1198     1.0  0.78224  0.25018  0.42745  1.0000
  H   H1199     1.0  0.76377  0.23355  0.11825  1.0000
  N   N98       1.0  0.77767  0.20947  0.11603  1.0000
  C   C1206     1.0  0.88862  0.06519  0.12945  1.0000
  H   H1200     1.0  0.77760  0.20447  0.37855  1.0000
  N   N99       1.0  0.88551  0.04396  0.09338  1.0000
  C   C1207     1.0  0.74909  0.28965  0.25070  1.0000
  H   H1201     1.0  0.87451  0.15940  0.47946  1.0000
  H   H1202     1.0  0.95143  0.37100  0.15305  1.0000
  C   C1208     1.0  0.78172  0.24513  0.35610  1.0000
  H   H1203     1.0  0.95452  0.48009  0.33826  1.0000
  H   H1204     1.0  0.88276  0.07104  0.08616  1.0000
  H   H1205     1.0  0.85154  0.15890  0.47405  1.0000
  H   H1206     1.0  0.97071  0.09525  0.44126  1.0000
  H   H1207     1.0  0.86847  0.03497  0.06238  1.0000
  H   H1208     1.0  0.89530  0.05548  0.17086  1.0000
  C   C1209     1.0  0.78874  0.19806  0.12942  1.0000
  N   N100      1.0  0.86580  0.27055  0.21370  1.0000
  C   C1210     1.0  0.86809  0.28401  0.23154  1.0000
  C   C1211     1.0  0.87442  0.25513  0.21817  1.0000
  C   C1212     1.0  0.87952  0.28234  0.25425  1.0000
  C   C1213     1.0  0.88579  0.25295  0.24086  1.0000
  C   C1214     1.0  0.88837  0.26669  0.25895  1.0000
  C   C1215     1.0  0.85332  0.27249  0.19064  1.0000
  H   H1209     1.0  0.86084  0.29608  0.22860  1.0000
  H   H1210     1.0  0.87223  0.24427  0.20455  1.0000
  H   H1211     1.0  0.88112  0.29301  0.26852  1.0000
  H   H1212     1.0  0.89229  0.24059  0.24462  1.0000
  H   H1213     1.0  0.89695  0.26514  0.27689  1.0000
  H   H1214     1.0  0.84001  0.27166  0.19929  1.0000
  H   H1215     1.0  0.85458  0.28505  0.17970  1.0000
  H   H1216     1.0  0.85520  0.26220  0.17459  1.0000
  C   C1216     1.0  0.95825  0.42696  0.40777  1.0000
  C   C1217     1.0  0.98575  0.34912  0.18191  1.0000
  H   H1217     1.0  0.94464  0.43076  0.41306  1.0000
  C   C1218     1.0  0.97960  0.34814  0.20974  1.0000
  H   H1218     1.0  0.80305  0.19212  0.16750  1.0000
  S   S408      1.0  0.98397  0.38386  0.38523  1.0000
  H   H1219     1.0  0.96306  0.99898  0.06921  1.0000
  C   C1219     1.0  0.78119  0.24396  0.40710  1.0000
  S   S409      1.0  0.98685  0.07150  0.26630  1.0000
  C   C1220     1.0  0.97833  0.08353  0.44478  1.0000
  C   C1221     1.0  0.97551  0.35725  0.16133  1.0000
  C   C1222     1.0  0.86237  0.20484  0.42532  1.0000
  H   H1220     1.0  0.78301  0.25255  0.33676  1.0000
  C   C1223     1.0  0.86172  0.21022  0.47547  1.0000
  H   H1221     1.0  0.89105  0.02912  0.05663  1.0000
  N   N101      1.0  0.88204  0.39970  0.37659  1.0000
  C   C1224     1.0  0.88050  0.40961  0.35268  1.0000
  C   C1225     1.0  0.87823  0.38269  0.37600  1.0000
  C   C1226     1.0  0.87453  0.40262  0.32753  1.0000
  C   C1227     1.0  0.87193  0.37539  0.35138  1.0000
  C   C1228     1.0  0.87017  0.38540  0.32697  1.0000
  C   C1229     1.0  0.88855  0.40707  0.40270  1.0000
  H   H1222     1.0  0.88405  0.42296  0.35283  1.0000
  H   H1223     1.0  0.88021  0.37459  0.39451  1.0000
  H   H1224     1.0  0.87357  0.41046  0.30853  1.0000
  H   H1225     1.0  0.86894  0.36189  0.35104  1.0000
  H   H1226     1.0  0.86572  0.37971  0.30758  1.0000
  H   H1227     1.0  0.90272  0.40448  0.40413  1.0000
  H   H1228     1.0  0.88617  0.42124  0.40320  1.0000
  H   H1229     1.0  0.88213  0.40157  0.42159  1.0000
  H   H1230     1.0  0.94890  0.42707  0.46236  1.0000
  H   H1231     1.0  0.96990  0.00791  0.11809  1.0000
  H   H1232     1.0  0.98049  0.35873  0.13996  1.0000
  H   H1233     1.0  0.98661  0.38532  0.25744  1.0000
  H   H1234     1.0  0.78444  0.26719  0.38285  1.0000
  C   C1230     1.0  0.86173  0.21640  0.44773  1.0000
  C   C1231     1.0  0.74584  0.18002  0.00379  1.0000
  H   H1235     1.0  0.79227  0.21841  0.19237  1.0000
  H   H1236     1.0  0.88875  0.01778  0.10645  1.0000
  C   C1232     1.0  0.95355  0.36310  0.19682  1.0000
  N   N102      1.0  0.86335  0.18123  0.45836  1.0000
  N   N103      1.0  0.96956  0.42800  0.43234  1.0000
  C   C1233     1.0  0.94442  0.47669  0.35295  1.0000
  H   H1237     1.0  0.75920  0.21112  0.08261  1.0000
  H   H1238     1.0  0.89523  0.02484  0.15598  1.0000
  N   N104      1.0  0.77971  0.22778  0.35501  1.0000
  S   S410      1.0  0.98279  0.05665  0.13397  1.0000
  S   S411      1.0  0.81319  0.17213  0.99171  1.0000
  H   H1239     1.0  0.96805  0.35844  0.26086  1.0000
  H   H1240     1.0  0.86059  0.23012  0.44364  1.0000
  C   C1234     1.0  0.78247  0.25349  0.38213  1.0000
  H   H1241     1.0  0.77328  0.19253  0.08165  1.0000
  C   C1235     1.0  0.92350  0.99265  0.10336  1.0000
  C   C1236     1.0  0.96527  0.98936  0.08561  1.0000
  H   H1242     1.0  0.94121  0.36917  0.20264  1.0000
  H   H1243     1.0  0.88756  0.17942  0.00420  1.0000
  H   H1244     1.0  0.95438  0.34091  0.25181  1.0000
  S   S412      1.0  0.95761  0.05725  0.99164  1.0000
  C   C1237     1.0  0.98483  0.38439  0.42281  1.0000
  H   H1245     1.0  0.87447  0.16637  0.02707  1.0000
  C   C1238     1.0  0.88291  0.16627  0.00794  1.0000
  C   C1239     1.0  0.86258  0.19250  0.48043  1.0000
  C   C1240     1.0  0.97350  0.42808  0.48271  1.0000
  C   C1241     1.0  0.98739  0.06008  0.47554  1.0000
  H   H1246     1.0  0.74111  0.20169  0.44616  1.0000
  C   C1242     1.0  0.98707  0.42810  0.42830  1.0000
  H   H1247     1.0  0.88173  0.13420  0.98877  1.0000
  C   C1243     1.0  0.98942  0.07716  0.42316  1.0000
  H   H1248     1.0  0.99029  0.08396  0.40324  1.0000
  Fe  Fe209     1.0  0.83285  0.17298  0.53789  1.0000
  S   S413      1.0  0.83385  0.20102  0.54965  1.0000
  S   S414      1.0  0.85936  0.15847  0.53687  1.0000
  Fe  Fe210     1.0  0.79369  0.17675  0.52533  1.0000
  S   S415      1.0  0.79228  0.20463  0.53661  1.0000
  S   S416      1.0  0.76911  0.16260  0.51610  1.0000
  C   C1244     1.0  0.84143  0.26897  0.92350  1.0000
  S   S417      1.0  0.83704  0.21066  0.95231  1.0000
  Fe  Fe211     1.0  0.80911  0.19721  0.57362  1.0000
  S   S418      1.0  0.80076  0.20546  0.61811  1.0000
  H   H1249     1.0  0.79106  0.21618  0.67382  1.0000
  S   S419      1.0  0.80896  0.16889  0.56412  1.0000
  Fe  Fe212     1.0  0.79254  0.28677  0.76485  1.0000
  S   S420      1.0  0.79866  0.25844  0.76574  1.0000
  S   S421      1.0  0.76688  0.29979  0.75168  1.0000
  Fe  Fe213     1.0  0.82932  0.29590  0.78634  1.0000
  S   S422      1.0  0.83779  0.26785  0.78885  1.0000
  S   S423      1.0  0.84317  0.32082  0.79728  1.0000
  Fe  Fe214     1.0  0.82428  0.26519  0.74668  1.0000
  S   S424      1.0  0.83693  0.25325  0.70725  1.0000
  Fe  Fe215     1.0  0.81137  0.26335  0.80774  1.0000
  S   S425      1.0  0.80163  0.24884  0.84655  1.0000
  S   S426      1.0  0.81744  0.29343  0.74330  1.0000
  S   S427      1.0  0.80367  0.29148  0.80770  1.0000
  Fe  Fe216     1.0  0.92451  0.07730  0.57955  1.0000
  S   S428      1.0  0.95068  0.08926  0.57937  1.0000
  S   S429      1.0  0.89770  0.09040  0.58760  1.0000
  Fe  Fe217     1.0  0.94059  0.04118  0.56745  1.0000
  S   S430      1.0  0.96738  0.05111  0.56510  1.0000
  S   S431      1.0  0.93797  0.01281  0.55739  1.0000
  Fe  Fe218     1.0  0.95994  0.06588  0.60460  1.0000
  H   H1250     1.0  0.97714  0.02139  0.95187  1.0000
  Fe  Fe219     1.0  0.95599  0.07325  0.54022  1.0000
  C   C1245     1.0  0.97428  0.08092  0.71814  1.0000
  S   S432      1.0  0.93344  0.05488  0.60763  1.0000
  S   S433      1.0  0.92952  0.06235  0.53958  1.0000
  Fe  Fe220     1.0  0.95202  0.40176  0.79622  1.0000
  S   S434      1.0  0.92356  0.40197  0.80739  1.0000
  S   S435      1.0  0.95873  0.40972  0.75068  1.0000
  Fe  Fe221     1.0  0.96244  0.39313  0.85802  1.0000
  S   S436      1.0  0.93486  0.39216  0.87252  1.0000
  H   H1251     1.0  0.90855  0.46916  0.90144  1.0000
  Fe  Fe222     1.0  0.92977  0.37772  0.83213  1.0000
  S   S437      1.0  0.91682  0.35148  0.82874  1.0000
  Fe  Fe223     1.0  0.93105  0.41641  0.84651  1.0000
  S   S438      1.0  0.91725  0.43930  0.86790  1.0000
  S   S439      1.0  0.95810  0.37697  0.81925  1.0000
  S   S440      1.0  0.95878  0.41790  0.83362  1.0000
  C   C1246     1.0  0.92499  0.46053  0.86701  1.0000
  C   C1247     1.0  0.93742  0.46547  0.84726  1.0000
  H   H1252     1.0  0.84412  0.28932  0.84129  1.0000
  H   H1253     1.0  0.94269  0.45620  0.83231  1.0000
  Fe  Fe224     1.0  0.81700  0.20612  0.51154  1.0000
  C   C1248     1.0  0.97299  0.40009  0.72522  1.0000
  C   C1249     1.0  0.93439  0.99619  0.58224  1.0000
  H   H1254     1.0  0.81986  0.25717  0.94398  1.0000
  H   H1255     1.0  0.96815  0.42732  0.50394  1.0000
  C   C1250     1.0  0.97154  0.07713  0.68937  1.0000
  H   H1256     1.0  0.80798  0.28848  0.87136  1.0000
  C   C1251     1.0  0.91820  0.47284  0.88612  1.0000
  C   C1252     1.0  0.85208  0.16610  0.94743  1.0000
  C   C1253     1.0  0.80552  0.29260  0.67423  1.0000
  H   H1257     1.0  0.98893  0.43091  0.95503  1.0000
  C   C1254     1.0  0.97228  0.38310  0.93939  1.0000
  C   C1255     1.0  0.86455  0.18492  0.63862  1.0000
  C   C1256     1.0  0.81743  0.28347  0.88638  1.0000
  H   H1258     1.0  0.96080  0.37965  0.92815  1.0000
  N   N105      1.0  0.87313  0.16034  0.98367  1.0000
  H   H1259     1.0  0.78634  0.30734  0.69805  1.0000
  H   H1260     1.0  0.98447  0.40537  0.65556  1.0000
  H   H1261     1.0  0.96153  0.05610  0.93155  1.0000
  H   H1262     1.0  0.79783  0.25558  0.64007  1.0000
  N   N106      1.0  0.85131  0.18955  0.65669  1.0000
  H   H1263     1.0  0.89167  0.04932  0.50599  1.0000
  N   N107      1.0  0.77914  0.27020  0.66410  1.0000
  H   H1264     1.0  0.86178  0.21217  0.67361  1.0000
  H   H1265     1.0  0.95194  0.48638  0.83034  1.0000
  H   H1266     1.0  0.87953  0.05896  0.59315  1.0000
  H   H1267     1.0  0.98695  0.05359  0.49581  1.0000
  C   C1257     1.0  0.74786  0.28970  0.74089  1.0000
  H   H1268     1.0  0.86353  0.12362  0.95040  1.0000
  H   H1269     1.0  0.92646  0.01287  0.61634  1.0000
  C   C1258     1.0  0.86386  0.32897  0.80588  1.0000
  C   C1259     1.0  0.87844  0.31828  0.81102  1.0000
  C   C1260     1.0  0.89436  0.32542  0.81833  1.0000
  C   C1261     1.0  0.89608  0.34334  0.82041  1.0000
  C   C1262     1.0  0.88154  0.35403  0.81504  1.0000
  C   C1263     1.0  0.86558  0.34688  0.80798  1.0000
  H   H1270     1.0  0.87745  0.30451  0.80952  1.0000
  H   H1271     1.0  0.90547  0.31696  0.82239  1.0000
  H   H1272     1.0  0.88254  0.36781  0.81650  1.0000
  H   H1273     1.0  0.85444  0.35534  0.80418  1.0000
  H   H1274     1.0  0.97427  0.01059  0.90271  1.0000
  H   H1275     1.0  0.75585  0.25833  0.67667  1.0000
  H   H1276     1.0  0.75888  0.26395  0.74116  1.0000
  C   C1264     1.0  0.86950  0.13918  0.55078  1.0000
  C   C1265     1.0  0.88696  0.13536  0.54391  1.0000
  C   C1266     1.0  0.89573  0.12048  0.55462  1.0000
  C   C1267     1.0  0.88721  0.10920  0.57268  1.0000
  C   C1268     1.0  0.86972  0.11300  0.57949  1.0000
  C   C1269     1.0  0.86089  0.12779  0.56853  1.0000
  H   H1277     1.0  0.89385  0.14400  0.53023  1.0000
  H   H1278     1.0  0.90916  0.11784  0.54914  1.0000
  H   H1279     1.0  0.86293  0.10440  0.59335  1.0000
  H   H1280     1.0  0.84744  0.13028  0.57382  1.0000
  H   H1281     1.0  0.92935  0.42276  0.92223  1.0000
  H   H1282     1.0  0.84256  0.20562  0.69101  1.0000
  C   C1270     1.0  0.96951  0.01614  0.65404  1.0000
  H   H1283     1.0  0.84349  0.17516  0.93638  1.0000
  C   C1271     1.0  0.87371  0.14330  0.97681  1.0000
  C   C1272     1.0  0.82697  0.22037  0.92228  1.0000
  C   C1273     1.0  0.80900  0.22219  0.92004  1.0000
  C   C1274     1.0  0.80155  0.23056  0.89634  1.0000
  C   C1275     1.0  0.81191  0.23727  0.87464  1.0000
  C   C1276     1.0  0.82990  0.23533  0.87672  1.0000
  C   C1277     1.0  0.83736  0.22689  0.90041  1.0000
  H   H1284     1.0  0.80084  0.21725  0.93664  1.0000
  H   H1285     1.0  0.78763  0.23199  0.89496  1.0000
  H   H1286     1.0  0.83803  0.24044  0.86024  1.0000
  H   H1287     1.0  0.85127  0.22553  0.90191  1.0000
  C   C1278     1.0  0.81087  0.21922  0.64207  1.0000
  C   C1279     1.0  0.82650  0.22690  0.63572  1.0000
  C   C1280     1.0  0.83425  0.23737  0.65587  1.0000
  C   C1281     1.0  0.82644  0.24034  0.68244  1.0000
  C   C1282     1.0  0.81077  0.23275  0.68868  1.0000
  C   C1283     1.0  0.80309  0.22218  0.66863  1.0000
  H   H1288     1.0  0.83264  0.22469  0.61538  1.0000
  H   H1289     1.0  0.84639  0.24320  0.65087  1.0000
  H   H1290     1.0  0.80468  0.23484  0.70910  1.0000
  C   C1284     1.0  0.84026  0.29754  0.85951  1.0000
  H   H1291     1.0  0.84292  0.15943  0.59404  1.0000
  C   C1285     1.0  0.96365  0.42288  0.96677  1.0000
  H   H1292     1.0  0.87216  0.17036  0.60131  1.0000
  H   H1293     1.0  0.97576  0.00023  0.58793  1.0000
  C   C1286     1.0  0.96555  0.00081  0.66788  1.0000
  C   C1287     1.0  0.95476  0.43140  0.91168  1.0000
  C   C1288     1.0  0.97322  0.38078  0.96898  1.0000
  H   H1294     1.0  0.86252  0.19355  0.69683  1.0000
  C   C1289     1.0  0.75226  0.17001  0.49339  1.0000
  C   C1290     1.0  0.98628  0.01596  0.90949  1.0000
  H   H1295     1.0  0.87739  0.18968  0.64176  1.0000
  H   H1296     1.0  0.90028  0.03420  0.62442  1.0000
  H   H1297     1.0  0.97812  0.44923  0.88536  1.0000
  C   C1291     1.0  0.84528  0.16780  0.61172  1.0000
  S   S441      1.0  0.81760  0.17853  0.49790  1.0000
  H   H1298     1.0  0.95122  0.43452  0.89009  1.0000
  C   C1292     1.0  0.98630  0.38957  0.92440  1.0000
  C   C1293     1.0  0.81185  0.27307  0.90862  1.0000
  C   C1294     1.0  0.86338  0.13722  0.95518  1.0000
  H   H1299     1.0  0.89094  0.01406  0.61557  1.0000
  N   N108      1.0  0.83456  0.28687  0.88322  1.0000
  C   C1295     1.0  0.83517  0.18337  0.65290  1.0000
  H   H1300     1.0  0.96248  0.00111  0.69028  1.0000
  H   H1301     1.0  0.96356  0.41669  0.69162  1.0000
  H   H1302     1.0  0.86182  0.18519  0.97493  1.0000
  H   H1303     1.0  0.85095  0.26289  0.93739  1.0000
  H   H1304     1.0  0.76116  0.17743  0.96586  1.0000
  C   C1296     1.0  0.98624  0.44870  0.70771  1.0000
  H   H1305     1.0  0.84414  0.14417  0.92400  1.0000
  H   H1306     1.0  0.96064  0.08301  0.67831  1.0000
  N   N109      1.0  0.93399  0.35269  0.75941  1.0000
  C   C1297     1.0  0.93727  0.36906  0.75083  1.0000
  C   C1298     1.0  0.91747  0.34703  0.75941  1.0000
  C   C1299     1.0  0.92382  0.38023  0.74192  1.0000
  C   C1300     1.0  0.90367  0.35790  0.75091  1.0000
  C   C1301     1.0  0.90691  0.37463  0.74218  1.0000
  C   C1302     1.0  0.94799  0.34142  0.77037  1.0000
  H   H1307     1.0  0.95030  0.37368  0.75125  1.0000
  H   H1308     1.0  0.91479  0.33426  0.76719  1.0000
  H   H1309     1.0  0.92652  0.39329  0.73555  1.0000
  H   H1310     1.0  0.89053  0.35350  0.75195  1.0000
  H   H1311     1.0  0.89631  0.38332  0.73607  1.0000
  H   H1312     1.0  0.94689  0.32816  0.76229  1.0000
  H   H1313     1.0  0.96092  0.34597  0.76403  1.0000
  H   H1314     1.0  0.94726  0.34107  0.79387  1.0000
  H   H1315     1.0  0.96238  0.37555  0.98027  1.0000
  H   H1316     1.0  0.97627  0.02770  0.61419  1.0000
  H   H1317     1.0  0.82459  0.18706  0.66702  1.0000
  C   C1303     1.0  0.98844  0.07353  0.73294  1.0000
  C   C1304     1.0  0.83190  0.17250  0.63032  1.0000
  C   C1305     1.0  0.86173  0.17401  0.61582  1.0000
  C   C1306     1.0  0.92838  0.99971  0.60961  1.0000
  H   H1318     1.0  0.97869  0.44145  0.72368  1.0000
  C   C1307     1.0  0.80870  0.27797  0.65792  1.0000
  C   C1308     1.0  0.97314  0.06148  0.93981  1.0000
  C   C1309     1.0  0.76522  0.25840  0.65872  1.0000
  H   H1319     1.0  0.81895  0.16800  0.62706  1.0000
  H   H1320     1.0  0.77042  0.24498  0.65627  1.0000
  C   C1310     1.0  0.97325  0.00042  0.61055  1.0000
  S   S442      1.0  0.98597  0.39248  0.88706  1.0000
  N   N110      1.0  0.88934  0.03369  0.58361  1.0000
  C   C1311     1.0  0.89552  0.02276  0.56308  1.0000
  C   C1312     1.0  0.88390  0.05008  0.57679  1.0000
  C   C1313     1.0  0.89635  0.02816  0.53486  1.0000
  C   C1314     1.0  0.88439  0.05586  0.54874  1.0000
  C   C1315     1.0  0.89067  0.04480  0.52767  1.0000
  C   C1316     1.0  0.85247  0.14872  0.94048  1.0000
  H   H1321     1.0  0.90028  0.00990  0.56846  1.0000
  H   H1322     1.0  0.82984  0.30678  0.85247  1.0000
  C   C1317     1.0  0.88941  0.02826  0.61334  1.0000
  H   H1323     1.0  0.74421  0.19716  0.54260  1.0000
  H   H1324     1.0  0.85141  0.30534  0.86541  1.0000
  C   C1318     1.0  0.74821  0.17838  0.97458  1.0000
  H   H1325     1.0  0.91962  0.98892  0.64912  1.0000
  C   C1319     1.0  0.94233  0.42471  0.92984  1.0000
  C   C1320     1.0  0.98463  0.40013  0.67680  1.0000
  C   C1321     1.0  0.98801  0.38521  0.98405  1.0000
  C   C1322     1.0  0.97280  0.40653  0.69734  1.0000
  H   H1326     1.0  0.86244  0.18781  0.50205  1.0000
  S   S443      1.0  0.96601  0.08559  0.49946  1.0000
  C   C1323     1.0  0.85472  0.20071  0.68072  1.0000
  C   C1324     1.0  0.84655  0.27957  0.90116  1.0000
  C   C1325     1.0  0.79522  0.26694  0.65274  1.0000
  C   C1326     1.0  0.77580  0.28477  0.67947  1.0000
  H   H1327     1.0  0.88053  0.06906  0.54365  1.0000
  C   C1327     1.0  0.97460  0.06399  0.96913  1.0000
  H   H1328     1.0  0.96538  0.08970  0.72897  1.0000
  H   H1329     1.0  0.79833  0.26999  0.91051  1.0000
  C   C1328     1.0  0.82395  0.26580  0.92729  1.0000
  H   H1330     1.0  0.76297  0.28764  0.68788  1.0000
  H   H1331     1.0  0.86019  0.28179  0.89807  1.0000
  H   H1332     1.0  0.97742  0.45153  0.68971  1.0000
  C   C1329     1.0  0.98964  0.07104  0.97951  1.0000
  H   H1333     1.0  0.87707  0.03230  0.62392  1.0000
  C   C1330     1.0  0.97576  0.42957  0.94798  1.0000
  C   C1331     1.0  0.98415  0.44021  0.90106  1.0000
  S   S444      1.0  0.98084  0.06119  0.63834  1.0000
  C   C1332     1.0  0.86250  0.17171  0.96929  1.0000
  H   H1334     1.0  0.75825  0.26235  0.63918  1.0000
  C   C1333     1.0  0.78895  0.29611  0.68497  1.0000
  N   N111      1.0  0.97117  0.43388  0.92089  1.0000
  C   C1334     1.0  0.74746  0.27195  0.73693  1.0000
  H   H1335     1.0  0.90192  0.01963  0.51890  1.0000
  H   H1336     1.0  0.86053  0.21913  0.49299  1.0000
  C   C1335     1.0  0.97332  0.01589  0.62519  1.0000
  C   C1336     1.0  0.98308  0.06603  0.67491  1.0000
  C   C1337     1.0  0.94685  0.42039  0.95755  1.0000
  H   H1337     1.0  0.96958  0.02819  0.66549  1.0000
  C   C1338     1.0  0.98793  0.02186  0.93709  1.0000
  H   H1338     1.0  0.81595  0.30105  0.67894  1.0000
  H   H1339     1.0  0.82163  0.27495  0.64996  1.0000
  C   C1339     1.0  0.98491  0.38685  0.73219  1.0000
  H   H1340     1.0  0.93744  0.41487  0.97170  1.0000
  C   C1340     1.0  0.98662  0.06567  0.92107  1.0000
  H   H1341     1.0  0.98533  0.06353  0.89863  1.0000
  S   S445      1.0  0.98771  0.38787  0.52012  1.0000
  H   H1342     1.0  0.98533  0.38183  0.75357  1.0000
  C   C1341     1.0  0.94260  0.48263  0.84614  1.0000
  H   H1343     1.0  0.99018  0.46094  0.71719  1.0000
  Fe  Fe225     1.0  0.95939  0.89612  0.12387  1.0000
  S   S446      1.0  0.93040  0.90088  0.12473  1.0000
  S   S447      1.0  0.98033  0.89743  0.08944  1.0000
  Fe  Fe226     1.0  0.96178  0.89466  0.18961  1.0000
  S   S448      1.0  0.93317  0.89949  0.19514  1.0000
  H   H1344     1.0  0.95395  0.51224  0.30647  1.0000
  Fe  Fe227     1.0  0.92973  0.88051  0.15969  1.0000
  S   S449      1.0  0.91483  0.85530  0.16567  1.0000
  Fe  Fe228     1.0  0.93572  0.91936  0.16010  1.0000
  S   S450      1.0  0.92734  0.94749  0.16680  1.0000
  S   S451      1.0  0.95857  0.87476  0.15603  1.0000
  S   S452      1.0  0.96443  0.91554  0.15739  1.0000
  Fe  Fe229     1.0  0.96163  0.56830  0.39004  1.0000
  S   S453      1.0  0.93621  0.56018  0.37326  1.0000
  H   H1345     1.0  0.94827  0.53394  0.31672  1.0000
  Fe  Fe230     1.0  0.95454  0.55342  0.44941  1.0000
  S   S454      1.0  0.92878  0.54377  0.43556  1.0000
  H   H1346     1.0  0.80886  0.67240  0.09673  1.0000
  Fe  Fe231     1.0  0.94219  0.53496  0.39550  1.0000
  S   S455      1.0  0.94486  0.51051  0.36879  1.0000
  Fe  Fe232     1.0  0.92494  0.56993  0.41481  1.0000
  S   S456      1.0  0.89790  0.58334  0.41884  1.0000
  S   S457      1.0  0.96808  0.54293  0.41080  1.0000
  S   S458      1.0  0.95019  0.57985  0.43040  1.0000
  Fe  Fe233     1.0  0.82974  0.79388  0.19549  1.0000
  S   S459      1.0  0.84541  0.76960  0.20410  1.0000
  S   S460      1.0  0.84111  0.81999  0.18297  1.0000
  Fe  Fe234     1.0  0.79503  0.77527  0.20540  1.0000
  S   S461      1.0  0.80906  0.75003  0.21419  1.0000
  S   S462      1.0  0.76564  0.77224  0.20384  1.0000
  Fe  Fe235     1.0  0.82689  0.76527  0.24045  1.0000
  S   S463      1.0  0.83590  0.75929  0.28553  1.0000
  Fe  Fe236     1.0  0.82592  0.75658  0.17685  1.0000
  S   S464      1.0  0.83404  0.73590  0.14471  1.0000
  S   S465      1.0  0.81212  0.79044  0.23353  1.0000
  S   S466      1.0  0.81105  0.78096  0.16638  1.0000
  Fe  Fe237     1.0  0.84123  0.67273  0.45712  1.0000
  S   S467      1.0  0.84190  0.70087  0.44474  1.0000
  S   S468      1.0  0.86756  0.65782  0.45563  1.0000
  C   C1342     1.0  0.96375  0.97191  0.07964  1.0000
  S   S469      1.0  0.80020  0.70371  0.45690  1.0000
  N   N112      1.0  0.96589  0.95978  0.10051  1.0000
  Fe  Fe238     1.0  0.81767  0.69633  0.42030  1.0000
  S   S470      1.0  0.81109  0.70269  0.37407  1.0000
  H   H1347     1.0  0.95236  0.93671  0.10480  1.0000
  S   S471      1.0  0.82149  0.73335  0.01134  1.0000
  S   S472      1.0  0.81775  0.66799  0.43098  1.0000
  C   C1343     1.0  0.91525  0.54162  0.00191  1.0000
  C   C1344     1.0  0.96413  0.94153  0.09426  1.0000
  C   C1345     1.0  0.77781  0.74537  0.31838  1.0000
  S   S473      1.0  0.77544  0.67160  0.00317  1.0000
  H   H1348     1.0  0.97486  0.84745  0.20859  1.0000
  H   H1349     1.0  0.91560  0.86862  0.22507  1.0000
  C   C1346     1.0  0.78809  0.75344  0.33814  1.0000
  H   H1350     1.0  0.76055  0.79701  0.25018  1.0000
  C   C1347     1.0  0.82938  0.74298  0.30943  1.0000
  C   C1348     1.0  0.83506  0.74339  0.33762  1.0000
  C   C1349     1.0  0.82969  0.73116  0.35769  1.0000
  C   C1350     1.0  0.81865  0.71826  0.34969  1.0000
  C   C1351     1.0  0.81310  0.71774  0.32144  1.0000
  C   C1352     1.0  0.81839  0.73004  0.30141  1.0000
  H   H1351     1.0  0.84356  0.75336  0.34405  1.0000
  H   H1352     1.0  0.83400  0.73182  0.37934  1.0000
  H   H1353     1.0  0.80461  0.70778  0.31499  1.0000
  H   H1354     1.0  0.81396  0.72952  0.27981  1.0000
  C   C1353     1.0  0.82993  0.73532  0.10779  1.0000
  C   C1354     1.0  0.83606  0.72103  0.09214  1.0000
  C   C1355     1.0  0.83314  0.71997  0.06281  1.0000
  C   C1356     1.0  0.82439  0.73342  0.04860  1.0000
  C   C1357     1.0  0.81825  0.74773  0.06424  1.0000
  C   C1358     1.0  0.82079  0.74859  0.09372  1.0000
  H   H1355     1.0  0.84311  0.71065  0.10278  1.0000
  H   H1356     1.0  0.83803  0.70893  0.05107  1.0000
  H   H1357     1.0  0.81146  0.75821  0.05346  1.0000
  H   H1358     1.0  0.81593  0.75964  0.10545  1.0000
  C   C1359     1.0  0.88995  0.60456  0.42725  1.0000
  C   C1360     1.0  0.87197  0.60819  0.42670  1.0000
  C   C1361     1.0  0.86486  0.62429  0.43543  1.0000
  C   C1362     1.0  0.87565  0.63712  0.44463  1.0000
  C   C1363     1.0  0.89364  0.63360  0.44469  1.0000
  C   C1364     1.0  0.90076  0.61749  0.43602  1.0000
  H   H1359     1.0  0.86344  0.59832  0.41999  1.0000
  H   H1360     1.0  0.85101  0.62668  0.43538  1.0000
  H   H1361     1.0  0.90217  0.64344  0.45155  1.0000
  H   H1362     1.0  0.91459  0.61500  0.43650  1.0000
  N   N113      1.0  0.77631  0.75170  0.29141  1.0000
  C   C1365     1.0  0.98315  0.89727  0.99218  1.0000
  H   H1363     1.0  0.78311  0.77143  0.26237  1.0000
  C   C1366     1.0  0.97781  0.57736  0.01483  1.0000
  C   C1367     1.0  0.97178  0.90016  0.30407  1.0000
  H   H1364     1.0  0.98921  0.85914  0.03272  1.0000
  C   C1368     1.0  0.97209  0.56842  0.28010  1.0000
  H   H1365     1.0  0.95678  0.88926  0.99380  1.0000
  C   C1369     1.0  0.79626  0.69018  0.06769  1.0000
  C   C1370     1.0  0.97035  0.57125  0.30940  1.0000
  C   C1371     1.0  0.97897  0.55967  0.00988  1.0000
  H   H1366     1.0  0.91431  0.84562  0.22668  1.0000
  H   H1367     1.0  0.95808  0.56941  0.31983  1.0000
  H   H1368     1.0  0.98752  0.53512  0.02704  1.0000
  C   C1372     1.0  0.93730  0.48924  0.37133  1.0000
  H   H1369     1.0  0.78290  0.72553  0.03241  1.0000
  H   H1370     1.0  0.76904  0.70710  0.03394  1.0000
  C   C1373     1.0  0.74116  0.67410  0.01918  1.0000
  C   C1374     1.0  0.89412  0.84589  0.17080  1.0000
  C   C1375     1.0  0.87845  0.85534  0.16862  1.0000
  C   C1376     1.0  0.86250  0.84721  0.17251  1.0000
  C   C1377     1.0  0.86184  0.82954  0.17903  1.0000
  C   C1378     1.0  0.87754  0.82012  0.18158  1.0000
  C   C1379     1.0  0.89348  0.82821  0.17732  1.0000
  H   H1371     1.0  0.87857  0.86891  0.16362  1.0000
  H   H1372     1.0  0.85055  0.85472  0.17045  1.0000
  H   H1373     1.0  0.87743  0.80660  0.18682  1.0000
  H   H1374     1.0  0.90543  0.82069  0.17915  1.0000
  C   C1380     1.0  0.92630  0.96454  0.14167  1.0000
  C   C1381     1.0  0.92284  0.96173  0.11313  1.0000
  H   H1375     1.0  0.95225  0.52936  0.28024  1.0000
  H   H1376     1.0  0.93083  0.98379  0.17301  1.0000
  H   H1377     1.0  0.92086  0.94883  0.10583  1.0000
  C   C1382     1.0  0.98590  0.52905  0.28353  1.0000
  C   C1383     1.0  0.97043  0.89886  0.27442  1.0000
  H   H1378     1.0  0.96046  0.90387  0.31646  1.0000
  H   H1379     1.0  0.98653  0.85333  0.25614  1.0000
  C   C1384     1.0  0.79518  0.71324  0.11212  1.0000
  C   C1385     1.0  0.80312  0.68519  0.09388  1.0000
  C   C1386     1.0  0.75283  0.67273  0.99627  1.0000
  H   H1380     1.0  0.96644  0.86115  0.29548  1.0000
  C   C1387     1.0  0.96625  0.89383  0.03583  1.0000
  H   H1381     1.0  0.97334  0.98571  0.15592  1.0000
  H   H1382     1.0  0.76539  0.72911  0.27487  1.0000
  H   H1383     1.0  0.92454  0.60187  0.00381  1.0000
  H   H1384     1.0  0.95442  0.89023  0.04627  1.0000
  C   C1388     1.0  0.98802  0.57039  0.26613  1.0000
  H   H1385     1.0  0.80186  0.78588  0.29633  1.0000
  C   C1389     1.0  0.98034  0.89858  0.05195  1.0000
  C   C1390     1.0  0.92122  0.97575  0.09419  1.0000
  C   C1391     1.0  0.91860  0.85706  0.23831  1.0000
  C   C1392     1.0  0.76534  0.74320  0.27105  1.0000
  H   H1386     1.0  0.97187  0.53227  0.35067  1.0000
  N   N114      1.0  0.85712  0.65762  0.37552  1.0000
  C   C1393     1.0  0.87420  0.65691  0.38287  1.0000
  C   C1394     1.0  0.84850  0.67313  0.37219  1.0000
  C   C1395     1.0  0.88301  0.67199  0.38748  1.0000
  C   C1396     1.0  0.85697  0.68845  0.37628  1.0000
  C   C1397     1.0  0.87430  0.68785  0.38419  1.0000
  C   C1398     1.0  0.84767  0.64180  0.37226  1.0000
  H   H1387     1.0  0.88103  0.64464  0.38594  1.0000
  H   H1388     1.0  0.83491  0.67372  0.36664  1.0000
  H   H1389     1.0  0.89638  0.67133  0.39421  1.0000
  H   H1390     1.0  0.85002  0.70070  0.37383  1.0000
  H   H1391     1.0  0.88089  0.69966  0.38805  1.0000
  H   H1392     1.0  0.84036  0.64213  0.35213  1.0000
  H   H1393     1.0  0.85650  0.63021  0.37199  1.0000
  H   H1394     1.0  0.83846  0.64045  0.39021  1.0000
  C   C1399     1.0  0.92999  0.55050  0.00852  1.0000
  H   H1395     1.0  0.80531  0.77415  0.34490  1.0000
  C   C1400     1.0  0.80267  0.69687  0.11615  1.0000
  C   C1401     1.0  0.96766  0.89322  0.00609  1.0000
  C   C1402     1.0  0.74901  0.78969  0.24822  1.0000
  H   H1396     1.0  0.97458  0.89520  0.44991  1.0000
  H   H1397     1.0  0.77008  0.74513  0.24902  1.0000
  C   C1403     1.0  0.98448  0.57637  0.32511  1.0000
  C   C1404     1.0  0.96611  0.85018  0.22615  1.0000
  C   C1405     1.0  0.79673  0.76815  0.33020  1.0000
  S   S474      1.0  0.98368  0.89002  0.22127  1.0000
  H   H1398     1.0  0.96110  0.56429  0.26827  1.0000
  H   H1399     1.0  0.90344  0.60174  0.98842  1.0000
  C   C1406     1.0  0.98758  0.89656  0.31780  1.0000
  H   H1400     1.0  0.79508  0.72251  0.12917  1.0000
  H   H1401     1.0  0.93493  0.86307  0.28691  1.0000
  H   H1402     1.0  0.95818  0.90151  0.26415  1.0000
  C   C1407     1.0  0.90082  0.55057  0.99098  1.0000
  C   C1408     1.0  0.78443  0.76633  0.28366  1.0000
  C   C1409     1.0  0.79483  0.77471  0.30286  1.0000
  H   H1403     1.0  0.91853  0.49416  0.40430  1.0000
  N   N115      1.0  0.93722  0.85559  0.24365  1.0000
  C   C1410     1.0  0.94357  0.85912  0.26984  1.0000
  C   C1411     1.0  0.94825  0.85127  0.22190  1.0000
  C   C1412     1.0  0.96136  0.85795  0.27492  1.0000
  H   H1404     1.0  0.96051  0.96820  0.05834  1.0000
  C   C1413     1.0  0.97266  0.85345  0.25288  1.0000
  H   H1405     1.0  0.94148  0.54365  0.01633  1.0000
  H   H1406     1.0  0.94329  0.84891  0.20096  1.0000
  H   H1407     1.0  0.76316  0.69434  0.46690  1.0000
  H   H1408     1.0  0.94183  0.57494  0.00841  1.0000
  H   H1409     1.0  0.79043  0.70540  0.01892  1.0000
  N   N116      1.0  0.86090  0.77150  0.11749  1.0000
  C   C1414     1.0  0.85638  0.78692  0.12968  1.0000
  C   C1415     1.0  0.85661  0.76835  0.09003  1.0000
  C   C1416     1.0  0.84696  0.79951  0.11450  1.0000
  C   C1417     1.0  0.84714  0.78064  0.07428  1.0000
  C   C1418     1.0  0.84226  0.79629  0.08668  1.0000
  C   C1419     1.0  0.87118  0.75865  0.13348  1.0000
  H   H1410     1.0  0.85996  0.78958  0.15130  1.0000
  H   H1411     1.0  0.86015  0.75612  0.08032  1.0000
  H   H1412     1.0  0.84333  0.81168  0.12434  1.0000
  H   H1413     1.0  0.84345  0.77789  0.05272  1.0000
  H   H1414     1.0  0.83485  0.80592  0.07479  1.0000
  H   H1415     1.0  0.86682  0.75821  0.15588  1.0000
  H   H1416     1.0  0.86957  0.74550  0.12507  1.0000
  H   H1417     1.0  0.88506  0.76176  0.13262  1.0000
  C   C1420     1.0  0.74843  0.77663  0.22815  1.0000
  H   H1418     1.0  0.96317  0.93904  0.07123  1.0000
  H   H1419     1.0  0.91088  0.85804  0.25814  1.0000
  H   H1420     1.0  0.80831  0.69336  0.13641  1.0000
  N   N117      1.0  0.78944  0.70645  0.06368  1.0000
  H   H1421     1.0  0.98260  0.59769  0.04430  1.0000
  C   C1421     1.0  0.93013  0.56825  0.00396  1.0000
  C   C1422     1.0  0.78249  0.71144  0.03600  1.0000
  H   H1422     1.0  0.97558  0.93394  0.10206  1.0000
  H   H1423     1.0  0.78318  0.73074  0.08238  1.0000
  C   C1423     1.0  0.98070  0.53207  0.33281  1.0000
  C   C1424     1.0  0.96284  0.91229  0.48071  1.0000
  Fe  Fe239     1.0  0.82440  0.70590  0.48263  1.0000
  H   H1424     1.0  0.78987  0.74796  0.35912  1.0000
  C   C1425     1.0  0.78858  0.71785  0.08557  1.0000
  H   H1425     1.0  0.75189  0.74858  0.27265  1.0000
  H   H1426     1.0  0.79657  0.68103  0.05045  1.0000
  H   H1427     1.0  0.91517  0.52779  0.00471  1.0000
  C   C1426     1.0  0.95643  0.52596  0.30204  1.0000
  S   S475      1.0  0.82240  0.68285  0.99892  1.0000
  N   N118      1.0  0.97478  0.52916  0.30616  1.0000
  C   C1427     1.0  0.96924  0.96459  0.12763  1.0000
  H   H1428     1.0  0.96815  0.92370  0.47125  1.0000
  H   H1429     1.0  0.74608  0.67531  0.04038  1.0000
  H   H1430     1.0  0.77142  0.73375  0.32458  1.0000
  H   H1431     1.0  0.97227  0.58591  0.99894  1.0000
  H   H1432     1.0  0.97025  0.95501  0.14438  1.0000
  Fe  Fe240     1.0  0.80197  0.67595  0.46937  1.0000
  S   S476      1.0  0.98312  0.57897  0.36243  1.0000
  H   H1433     1.0  0.91816  0.97346  0.07229  1.0000
  C   C1428     1.0  0.75345  0.68743  0.47833  1.0000
  C   C1429     1.0  0.98375  0.58401  0.04054  1.0000
  S   S477      1.0  0.98981  0.56411  0.23009  1.0000
  H   H1434     1.0  0.87349  0.58079  0.47013  1.0000
  S   S478      1.0  0.98834  0.89752  0.35530  1.0000
  C   C1430     1.0  0.92831  0.98148  0.15092  1.0000
  H   H1435     1.0  0.96360  0.86897  0.47313  1.0000
  H   H1436     1.0  0.98118  0.52722  0.26227  1.0000
  C   C1431     1.0  0.97095  0.98193  0.13431  1.0000
  C   C1432     1.0  0.91656  0.59544  0.98788  1.0000
  C   C1433     1.0  0.96651  0.89624  0.46876  1.0000
  N   N119      1.0  0.91587  0.57696  0.99357  1.0000
  C   C1434     1.0  0.98488  0.89370  0.25823  1.0000
  C   C1435     1.0  0.98649  0.54882  0.03067  1.0000
  C   C1436     1.0  0.96041  0.88153  0.48187  1.0000
  H   H1437     1.0  0.87289  0.60139  0.48668  1.0000
  Fe  Fe241     1.0  0.95233  0.89246  0.62744  1.0000
  S   S479      1.0  0.92416  0.90055  0.62205  1.0000
  N   N120      1.0  0.77718  0.78179  0.80887  1.0000
  Fe  Fe242     1.0  0.95344  0.90365  0.68927  1.0000
  S   S480      1.0  0.92547  0.91192  0.68727  1.0000
  S   S481      1.0  0.96410  0.91237  0.73162  1.0000
  Fe  Fe243     1.0  0.92035  0.88742  0.66435  1.0000
  S   S482      1.0  0.89658  0.87363  0.68214  1.0000
  Fe  Fe244     1.0  0.93163  0.92428  0.64565  1.0000
  S   S483      1.0  0.92208  0.95238  0.64402  1.0000
  S   S484      1.0  0.94816  0.87825  0.66893  1.0000
  S   S485      1.0  0.95990  0.91702  0.64829  1.0000
  Fe  Fe245     1.0  0.95749  0.57539  0.87892  1.0000
  S   S486      1.0  0.93138  0.56579  0.86860  1.0000
  S   S487      1.0  0.97143  0.58969  0.84375  1.0000
  Fe  Fe246     1.0  0.95675  0.55961  0.93870  1.0000
  S   S488      1.0  0.93062  0.54855  0.93122  1.0000
  C   C1437     1.0  0.75292  0.80068  0.79763  1.0000
  Fe  Fe247     1.0  0.94087  0.54080  0.88830  1.0000
  S   S489      1.0  0.94184  0.51665  0.86084  1.0000
  Fe  Fe248     1.0  0.92341  0.57465  0.91228  1.0000
  S   S490      1.0  0.89613  0.58658  0.92094  1.0000
  S   S491      1.0  0.96736  0.55029  0.89681  1.0000
  S   S492      1.0  0.94913  0.58600  0.92174  1.0000
  Fe  Fe249     1.0  0.83428  0.78800  0.68971  1.0000
  S   S493      1.0  0.84162  0.76067  0.70206  1.0000
  S   S494      1.0  0.85638  0.80302  0.66900  1.0000
  Fe  Fe250     1.0  0.79558  0.78127  0.70253  1.0000
  S   S495      1.0  0.80075  0.75368  0.71474  1.0000
  S   S496      1.0  0.76836  0.79366  0.70326  1.0000
  Fe  Fe251     1.0  0.82310  0.76380  0.73885  1.0000
  S   S497      1.0  0.83035  0.75817  0.78498  1.0000
  Fe  Fe252     1.0  0.81867  0.75298  0.67663  1.0000
  S   S498      1.0  0.82125  0.72975  0.64715  1.0000
  S   S499      1.0  0.81725  0.79171  0.72825  1.0000
  S   S500      1.0  0.81199  0.77994  0.66268  1.0000
  Fe  Fe253     1.0  0.83659  0.67539  0.95859  1.0000
  S   S501      1.0  0.83737  0.70308  0.94353  1.0000
  H   H1438     1.0  0.98658  0.54935  0.58966  1.0000
  H   H1439     1.0  0.92762  0.55493  0.49729  1.0000
  S   S502      1.0  0.79632  0.70721  0.95908  1.0000
  H   H1440     1.0  0.94173  0.97619  0.55277  1.0000
  Fe  Fe254     1.0  0.81230  0.69796  0.92193  1.0000
  S   S503      1.0  0.80455  0.70346  0.87590  1.0000
  Fe  Fe255     1.0  0.82132  0.70983  0.98243  1.0000
  S   S504      1.0  0.82497  0.72911  0.51210  1.0000
  S   S505      1.0  0.81188  0.67008  0.93576  1.0000
  H   H1441     1.0  0.95572  0.88325  0.78824  1.0000
  C   C1438     1.0  0.98689  0.87700  0.54344  1.0000
  H   H1442     1.0  0.91139  0.62022  0.93180  1.0000
  H   H1443     1.0  0.96909  0.97339  0.61341  1.0000
  C   C1439     1.0  0.98751  0.57944  0.76312  1.0000
  C   C1440     1.0  0.78638  0.68425  0.55455  1.0000
  C   C1441     1.0  0.75204  0.77261  0.74228  1.0000
  H   H1444     1.0  0.76407  0.76513  0.74327  1.0000
  C   C1442     1.0  0.82312  0.74267  0.80972  1.0000
  C   C1443     1.0  0.81042  0.73105  0.80315  1.0000
  C   C1444     1.0  0.80460  0.71948  0.82392  1.0000
  C   C1445     1.0  0.81157  0.71917  0.85134  1.0000
  C   C1446     1.0  0.82428  0.73078  0.85790  1.0000
  C   C1447     1.0  0.82998  0.74246  0.83721  1.0000
  H   H1445     1.0  0.80496  0.73110  0.78215  1.0000
  H   H1446     1.0  0.79470  0.71062  0.81863  1.0000
  H   H1447     1.0  0.82977  0.73072  0.87889  1.0000
  H   H1448     1.0  0.83976  0.75145  0.84257  1.0000
  C   C1448     1.0  0.82189  0.72987  0.60959  1.0000
  C   C1449     1.0  0.81820  0.74473  0.59368  1.0000
  C   C1450     1.0  0.81898  0.74420  0.56387  1.0000
  C   C1451     1.0  0.82342  0.72885  0.54961  1.0000
  C   C1452     1.0  0.82693  0.71395  0.56551  1.0000
  C   C1453     1.0  0.82624  0.71450  0.59531  1.0000
  H   H1449     1.0  0.81485  0.75666  0.60433  1.0000
  H   H1450     1.0  0.81628  0.75582  0.55180  1.0000
  H   H1451     1.0  0.83038  0.70205  0.55488  1.0000
  H   H1452     1.0  0.82908  0.70291  0.60739  1.0000
  C   C1454     1.0  0.88722  0.60752  0.92943  1.0000
  C   C1455     1.0  0.86914  0.60988  0.93234  1.0000
  C   C1456     1.0  0.86146  0.62598  0.93999  1.0000
  C   C1457     1.0  0.87178  0.63999  0.94529  1.0000
  C   C1458     1.0  0.88985  0.63764  0.94228  1.0000
  C   C1459     1.0  0.89751  0.62162  0.93419  1.0000
  H   H1453     1.0  0.86098  0.59913  0.92876  1.0000
  H   H1454     1.0  0.84758  0.62743  0.94231  1.0000
  C   C1460     1.0  0.98167  0.90540  0.56264  1.0000
  C   C1461     1.0  0.78711  0.78993  0.78925  1.0000
  C   C1462     1.0  0.97386  0.55588  0.52097  1.0000
  H   H1455     1.0  0.82710  0.66763  0.80774  1.0000
  C   C1463     1.0  0.78741  0.68739  0.58347  1.0000
  C   C1464     1.0  0.96937  0.98531  0.62508  1.0000
  C   C1465     1.0  0.97598  0.54782  0.54751  1.0000
  H   H1456     1.0  0.76540  0.73011  0.52073  1.0000
  H   H1457     1.0  0.97351  0.92317  0.78676  1.0000
  C   C1466     1.0  0.93575  0.49499  0.86511  1.0000
  H   H1458     1.0  0.87037  0.58237  0.50806  1.0000
  N   N121      1.0  0.94746  0.89888  0.51874  1.0000
  C   C1467     1.0  0.98092  0.91143  0.78238  1.0000
  C   C1468     1.0  0.94352  0.55311  0.77487  1.0000
  H   H1459     1.0  0.97074  0.53529  0.55110  1.0000
  C   C1469     1.0  0.76022  0.78682  0.81290  1.0000
  H   H1460     1.0  0.98734  0.88165  0.73079  1.0000
  S   S506      1.0  0.97086  0.55029  0.97869  1.0000
  H   H1461     1.0  0.94851  0.84016  0.73410  1.0000
  H   H1462     1.0  0.91815  0.49933  0.89995  1.0000
  C   C1470     1.0  0.88581  0.85376  0.67824  1.0000
  C   C1471     1.0  0.89090  0.84137  0.65823  1.0000
  C   C1472     1.0  0.88178  0.82600  0.65587  1.0000
  C   C1473     1.0  0.86750  0.82265  0.67353  1.0000
  C   C1474     1.0  0.86252  0.83497  0.69371  1.0000
  C   C1475     1.0  0.87157  0.85038  0.69595  1.0000
  H   H1463     1.0  0.90176  0.84368  0.64439  1.0000
  H   H1464     1.0  0.88583  0.81665  0.64016  1.0000
  H   H1465     1.0  0.85159  0.83271  0.70744  1.0000
  H   H1466     1.0  0.86742  0.85981  0.71148  1.0000
  C   C1476     1.0  0.92736  0.96890  0.61991  1.0000
  C   C1477     1.0  0.93386  0.96539  0.59282  1.0000
  C   C1478     1.0  0.98609  0.55227  0.78780  1.0000
  C   C1479     1.0  0.98951  0.58008  0.53868  1.0000
  H   H1467     1.0  0.93593  0.95221  0.58619  1.0000
  H   H1468     1.0  0.78307  0.69549  0.51341  1.0000
  C   C1480     1.0  0.74625  0.67093  0.96902  1.0000
  C   C1481     1.0  0.77939  0.72871  0.52556  1.0000
  C   C1482     1.0  0.95380  0.86079  0.76263  1.0000
  H   H1469     1.0  0.94374  0.90911  0.56002  1.0000
  H   H1470     1.0  0.98535  0.86327  0.54478  1.0000
  H   H1471     1.0  0.75505  0.66964  0.95123  1.0000
  C   C1483     1.0  0.93738  0.90043  0.54504  1.0000
  H   H1472     1.0  0.97974  0.85883  0.98335  1.0000
  H   H1473     1.0  0.94664  0.87155  0.51758  1.0000
  H   H1474     1.0  0.89802  0.64833  0.94621  1.0000
  C   C1484     1.0  0.98499  0.55573  0.56942  1.0000
  H   H1475     1.0  0.97617  0.91376  0.57877  1.0000
  C   C1485     1.0  0.94428  0.85268  0.74199  1.0000
  C   C1486     1.0  0.92822  0.90222  0.77102  1.0000
  H   H1476     1.0  0.92361  0.51192  0.80430  1.0000
  N   N122      1.0  0.96546  0.98568  0.65335  1.0000
  C   C1487     1.0  0.94821  0.87701  0.77226  1.0000
  H   H1477     1.0  0.78403  0.74098  0.53403  1.0000
  C   C1488     1.0  0.76301  0.80919  0.77783  1.0000
  N   N123      1.0  0.78243  0.71452  0.54561  1.0000
  C   C1489     1.0  0.97908  0.90329  0.75617  1.0000
  C   C1490     1.0  0.92422  0.87710  0.74130  1.0000
  H   H1478     1.0  0.78754  0.67122  0.54650  1.0000
  H   H1479     1.0  0.78200  0.73076  0.58181  1.0000
  H   H1480     1.0  0.91142  0.53478  0.84428  1.0000
  H   H1481     1.0  0.78790  0.81000  0.75745  1.0000
  H   H1482     1.0  0.78958  0.67681  0.59818  1.0000
  C   C1491     1.0  0.95084  0.88309  0.50701  1.0000
  H   H1483     1.0  0.91265  0.88340  0.73278  1.0000
  N   N124      1.0  0.86103  0.74976  0.61411  1.0000
  C   C1492     1.0  0.86083  0.74599  0.58590  1.0000
  C   C1493     1.0  0.85840  0.76633  0.62301  1.0000
  C   C1494     1.0  0.85742  0.75892  0.56582  1.0000
  C   C1495     1.0  0.85491  0.77956  0.60354  1.0000
  C   C1496     1.0  0.85435  0.77580  0.57478  1.0000
  C   C1497     1.0  0.86493  0.73611  0.63481  1.0000
  H   H1484     1.0  0.86284  0.73285  0.57880  1.0000
  H   H1485     1.0  0.85890  0.76941  0.64531  1.0000
  H   H1486     1.0  0.85671  0.75575  0.54354  1.0000
  H   H1487     1.0  0.85264  0.79265  0.61085  1.0000
  H   H1488     1.0  0.85149  0.78593  0.55952  1.0000
  H   H1489     1.0  0.85839  0.73892  0.65536  1.0000
  H   H1490     1.0  0.85999  0.72364  0.62769  1.0000
  H   H1491     1.0  0.87908  0.73484  0.63820  1.0000
  N   N125      1.0  0.92239  0.53931  0.80382  1.0000
  C   C1498     1.0  0.92973  0.55399  0.79415  1.0000
  C   C1499     1.0  0.92888  0.52356  0.79554  1.0000
  H   H1492     1.0  0.91762  0.90115  0.78678  1.0000
  H   H1493     1.0  0.94811  0.50969  0.77048  1.0000
  C   C1500     1.0  0.93711  0.97900  0.57395  1.0000
  H   H1494     1.0  0.96034  0.95873  0.65395  1.0000
  H   H1495     1.0  0.92508  0.56650  0.80148  1.0000
  S   S507      1.0  0.86302  0.66055  0.95619  1.0000
  C   C1501     1.0  0.98069  0.57207  0.51666  1.0000
  C   C1502     1.0  0.78308  0.71770  0.57399  1.0000
  C   C1503     1.0  0.92329  0.59828  0.50337  1.0000
  H   H1496     1.0  0.74785  0.65002  0.51392  1.0000
  C   C1504     1.0  0.90760  0.54025  0.82339  1.0000
  H   H1497     1.0  0.88941  0.54377  0.98515  1.0000
  N   N126      1.0  0.83682  0.68030  0.84356  1.0000
  C   C1505     1.0  0.83695  0.66736  0.86324  1.0000
  C   C1506     1.0  0.84764  0.69372  0.84618  1.0000
  C   C1507     1.0  0.84841  0.66740  0.88591  1.0000
  C   C1508     1.0  0.85910  0.69428  0.86885  1.0000
  C   C1509     1.0  0.85956  0.68095  0.88869  1.0000
  C   C1510     1.0  0.82480  0.67968  0.81981  1.0000
  H   H1498     1.0  0.82805  0.65699  0.86162  1.0000
  H   H1499     1.0  0.84723  0.70424  0.83103  1.0000
  H   H1500     1.0  0.84849  0.65711  0.90147  1.0000
  H   H1501     1.0  0.82623  0.69070  0.80504  1.0000
  H   H1502     1.0  0.86833  0.68122  0.90648  1.0000
  C   C1511     1.0  0.92149  0.56767  0.49771  1.0000
  H   H1503     1.0  0.81128  0.68022  0.82796  1.0000
  H   H1504     1.0  0.94946  0.56474  0.76746  1.0000
  H   H1505     1.0  0.78257  0.75504  0.81182  1.0000
  H   H1506     1.0  0.80040  0.78556  0.78541  1.0000
  S   S508      1.0  0.96311  0.54488  0.49382  1.0000
  H   H1507     1.0  0.78672  0.72633  0.50558  1.0000
  C   C1512     1.0  0.98019  0.56072  0.81244  1.0000
  C   C1513     1.0  0.94278  0.52220  0.77652  1.0000
  C   C1514     1.0  0.92364  0.48996  0.88536  1.0000
  S   S509      1.0  0.96658  0.87848  0.59138  1.0000
  H   H1508     1.0  0.92174  0.85459  0.71543  1.0000
  C   C1515     1.0  0.78570  0.70421  0.59334  1.0000
  S   S510      1.0  0.77897  0.66207  0.48782  1.0000
  C   C1516     1.0  0.75060  0.78672  0.72389  1.0000
  H   H1509     1.0  0.77826  0.76541  0.84536  1.0000
  H   H1510     1.0  0.96555  0.85471  0.77091  1.0000
  H   H1511     1.0  0.90274  0.55367  0.82681  1.0000
  H   H1512     1.0  0.96085  0.53627  0.75120  1.0000
  C   C1517     1.0  0.94998  0.53710  0.76587  1.0000
  Fe  Fe256     1.0  0.79761  0.68004  0.97469  1.0000
  H   H1513     1.0  0.92369  0.91037  0.75296  1.0000
  C   C1518     1.0  0.78444  0.76686  0.82425  1.0000
  C   C1519     1.0  0.97794  0.57860  0.81263  1.0000
  C   C1520     1.0  0.78384  0.69805  0.53583  1.0000
  C   C1521     1.0  0.98161  0.58791  0.78785  1.0000
  H   H1514     1.0  0.93910  0.90903  0.78061  1.0000
  H   H1515     1.0  0.97745  0.55337  0.83135  1.0000
  H   H1516     1.0  0.78681  0.70688  0.61575  1.0000
  H   H1517     1.0  0.86743  0.70508  0.87120  1.0000
  H   H1518     1.0  0.97989  0.60176  0.78778  1.0000
  N   N127      1.0  0.93383  0.88512  0.76108  1.0000
  C   C1522     1.0  0.78020  0.80380  0.77354  1.0000
  C   C1523     1.0  0.92930  0.86078  0.73145  1.0000
  H   H1519     1.0  0.93652  0.88786  0.55619  1.0000
  H   H1520     1.0  0.89681  0.53279  0.81506  1.0000
  H   H1521     1.0  0.79852  0.76814  0.82786  1.0000
  H   H1522     1.0  0.75209  0.77991  0.82750  1.0000
  H   H1523     1.0  0.89932  0.61278  0.49927  1.0000
  H   H1524     1.0  0.75736  0.81948  0.76495  1.0000
  S   S511      1.0  0.82548  0.67835  0.49679  1.0000
  C   C1524     1.0  0.74474  0.66248  0.50467  1.0000
  H   H1525     1.0  0.99006  0.58672  0.74408  1.0000
  H   H1526     1.0  0.93086  0.60948  0.50712  1.0000
  H   H1527     1.0  0.92411  0.90553  0.54058  1.0000
  C   C1525     1.0  0.90546  0.60004  0.49889  1.0000
  H   H1528     1.0  0.89025  0.57517  0.97777  1.0000
  C   C1526     1.0  0.87724  0.58773  0.48951  1.0000
  H   H1529     1.0  0.94827  0.97144  0.67884  1.0000
  H   H1530     1.0  0.94510  0.58035  0.50632  1.0000
  H   H1531     1.0  0.98767  0.53841  0.78792  1.0000
  C   C1527     1.0  0.93130  0.58196  0.50288  1.0000
  C   C1528     1.0  0.98964  0.56153  0.76296  1.0000
  H   H1532     1.0  0.89633  0.55877  0.48803  1.0000
  C   C1529     1.0  0.75768  0.67136  0.49024  1.0000
  H   H1533     1.0  0.97930  0.57839  0.49632  1.0000
  C   C1530     1.0  0.97946  0.88769  0.56447  1.0000
  S   S512      1.0  0.98479  0.89465  0.95499  1.0000
  C   C1531     1.0  0.96116  0.96986  0.66844  1.0000
  H   H1534     1.0  0.97105  0.96658  0.68466  1.0000
  H   H1535     1.0  0.92219  0.59753  0.96652  1.0000
  C   C1532     1.0  0.98864  0.88807  0.75084  1.0000
  N   N128      1.0  0.89598  0.58594  0.49352  1.0000
  C   C1533     1.0  0.90378  0.56991  0.49275  1.0000
  C   C1534     1.0  0.95318  0.91339  0.50580  1.0000
  H   H1536     1.0  0.95078  0.92587  0.51536  1.0000
  C   C1535     1.0  0.92461  0.98611  0.62816  1.0000
  C   C1536     1.0  0.90138  0.56835  0.98686  1.0000
