data_image0
_chemical_formula_structural       FeS2FeS2FeSFeS3HCH3CFeS2FeS2FeSFeNS2C2H2C2HC5H3CHSCHCHC2HC4HC4H6C6H4C4HCH2C2SH2CSC2HCH2CH3CHC2H4SNH2CHSHNH3C2NC5HSH4C3NH3C5H6C2HS2H4CNCHNHC5HCH2FeS2FeS2FeSFeS3CH3CHFeS2FeS2FeSFeCS2HCFeHSC6H3C3HSH2CSCHC3H2C3HCH3C8H4C4HCNC4HC2HNHC2H2NC6H9NH2CHC3HCH6C3SH2CH3CHCH2CFeC3SNH2CNHSCHCH4CH4FeS2FeS2FeSFeS3FeS2FeS2FeSFeS3FeS2FeS2FeSFeS3C2NC6H5C5H4C6H4CFeC4SH3C6H4CHC3NH2CH2CH2NC2H4CH2CH2CHSCH2CH3CHCH3C2H2CHNH2C2H2CNCH3C4H5NCH2C2HCH2SC5NC4H2CH2C2H4CHCHC3HCHCH2CH5CHCHC3HCFeCHCH2CFeS2FeSHFeSFeS3FeS2FeS2FeSFeS3FeS2FeS2FeSFeS3HC8H2FeHC6H3C7H4C5H5C6H4CHC2HCH2CH3CH3C2H4C2SHCH2CH2C2HCHCH2CH4CN2CSC2NC3N2HC2HNHCH3CNC2H2C3SCSHC2H3CHCH2CH3CHC3HCHC2H4NH2CH2CHC2SCH2CH4CHC3H3FeS2FeS2FeSFeS3FeS2FeS2FeSFeS3FeSH2SCFeNFeSCSC2NSC6H4C7H2C2HC2H3CFeH2C4SHC6HCHC6H4C3H2CHCSHC2H2CHSC3HCHC3HC2HNC6H8NC5H5SHFeH6CNCHC2HCH2C2H2NHCHCH2SCH3C3H2CH2NC2HNSCSH3C2H2CH4CHC2FeH7CHCSHCFeCFeHFeS2FeS2FeSFeS3FeSCFeS2FeSFeS3FeS2HS2CHFeSHSH2CSC6HCH2C2HC3H3C2HCNCH2C3H2CH2CHC6H3C6H4C3H2CH4C3H2NC2HCH2NHCFeSC2NC6H8C4HCH3C2SHC2HC2HC2SH2C3SHC3NH7FeCH5CH2C2HC5NH3C3H2FeSH4C2FeS2HCHS2FeSHSFeCFeS2FeS2HCSHS2FeHSFeSC2HSFeS2FeS2FeSFeS3C3H2SC6H4C6H4C2NC4H3FeSHC6H4C3HC4HCHC2NHC6H3CSFeHSFeH3NC5H8CNC2NCHNH2CH2NC4H5CHCH3CSHFeH5C2FeC3HCH2CHC2H2CH2C2HC3HCFeC2SH3CHCHFeH2C2HFeS2CFeSCSHSCSFeHFeS2FeS2FeH2S3FeCSFeSC2HSFeS2FeS2FeSFeS3C2FeCHC7H4C6H4CSHS2CHCNC2FeHC6H4CHCH2CH3C3H3C6H3FeHCHCN2C7HCH2CH2CH3C2H4CH4N2H3SHC2HFeCHNH2SNC6H9C2H6SC3H2CH2C2HCH7C2HNSHFeSHSFeHSH4SFeS2FeS2FeSFeCS2CHSFeS2C7H3C6H4C6H2SFeC6H4C2H3C3SCH3C2SCNSC2H5C3HCFeCSH2CH2NH2CH5CH2C2FeCH3SHNCH3C4NHCHCH4SH2SHFe2SC2HC2SFeS2FeS2FeSFeHS2FeSCSH2C6H3SC6H4C4HC2H3C6H4C2NHCH4CNSH2C3HSCH2FeH2CHCHC2HCHFeH3SHFeH3SHCSHCH2SC2Fe2SHFeS2FeS2FeSFeS3HCHC2HNC2H4C6H4C6H4C2HNCHSHSCHC2SCHCSHNFeHSH3CSHCH3FeC2HCHCHC4HCH3CH2CH2NC2HSH3FeS2FeS2FeS2FeSFeS3HC5HSCH2CHC6H4C6H4C2HC2NH2C2HSHSCH2CH5NHCH2NC3HCH2C2H3NC3HCH3C3SCHCH2CH3CFeHC2HFeS2H2FeS2FeS2FeSFeS3FeSNCHNHC2H2C6H4C6H4C6H6C3H2CH2NC3HC2SC3H6SC2SH2C3HC2H3C2FeHSH2CNHCH2CH4SHFeHSH2FeS2FeS2FeSFeS3HSCH3C2H2C7H4C6H4C6H8CHNHC2NC3H2SH3C2SH2CHNHCHCH2C2H2CSC2HCSNC3FeCHCH3C2H2FeHCSCHSFeCSCS2FeH2FeS2CHFeS3C4HFeS2FeS2C3H3C2H2CH3C7H4C6H4C6HCH2CHNC6H8C2HNC2H2CH2CH2NH2SFeNCHFeSHCH2C4H2SC2H2CHNHSHCFeHSCFeS2FeSCFeCHFeS2H2FeS3H2CH2FeCSHS2C3HC3HCFeH3SHC6H4C6H4C6H4SC2SH2NSH2C3H2C2SNCHC3HCHNCH4CHC2HFeNCHCHC5FeH2SNCH2C2H2CNH2C2H4C2HFeHSH2SCH2C3H2C2SH5C2FeS7HFeS2HCHFeS2CSCS2HFeS2HFeSHSHFeS2FeS2FeSFeS3HC3HC6H4C6H5CHC2H4CSC2NHC6H4CHC4HC4H2CHCH4CH3CHCH3CFeCHC2NHCFeHSHFeHC2H2CHC2HC2HCFe2HNCH3NC6H4C2H3CH3C2HC2HCH3CHNHC4NH3FeCH6NCFeH3SH3C5HSCHCFeHSH2S3Fe2S2H3FeS2FeSFeS3FeS2HFeSCSHFeS2FeS2FeSFeS3H2CH2C6H4C6H4C5H3C5H2C6H4C2H2FeC4SH2C3NCN2C6H8NC6H4CH4NH2C3SH2FeH3CNC6H6NC4HSC2HCH2C3H2C2HCH3CSCFeCHCH2C2H3FeNCSH4SC2HCH2NCH3CSH2C2Fe2SC3HC2FeCHCH2FeS2FeS2FeSFeS3FeS2FeS2FeSFeS3HSC2FeCHFeNSHSCFeHFeS2C2H3C7H4C6H4C2H2C2H4C2HNC6H4CH2C3SCH2C6HNH2C2H2CH2C2HFeC2H6C3HFeSCHNCNCSCH5C2H5C2HC2H2C2NC6H9CH2CHC3HNSC2HCHC2HCHCH2FeC5HSH2C2HC3HCSFeS2FeS2FeSFeS3FeS2FeS2FeSFeS3CSH4Fe2HSCSHFe2CS2C5HC6H4C6HCH2C6H2CH2CH2C6H4CFeHC3HSH2C6H2CHC2HC3H3NC4H5NHCH3NC6H8SC2HC2H3CHSCHCH2CNFeH3SHNCH2CSHS2HNHC4FeHCH4CHC2HCH6SNHC2S2H5FeS2FeS2FeSFeS3FeS2FeS2FeSFeS3FeS2CHCFeHFeS3CH2NH2C7H4C6H4CSCHC6H4C6H4C6H4C2H4SC2HCHSNC5H4CH4CNC3HC2HFeH2SC2HC2HCHCFeH3CNC6H9C2H3CH3FeH3NC2HFeNHCS2CH2CHC3HCHC2HCH4CFeNHC2H4CSHCH3NC2HFeS2FeS2FeSFeS3FeS2FeS2FeSFeS3FeS2C3FeCFeS3CHCHC2HC6H4C6H8C6H4C6H4C6H4SHC3NHC3H2SC2H3NSNSCH2FeH2CH2C3HCHNC5H2C3HCH2C2HCH6FeCFeCHSH2C3SH3C2H3CHS2HCH4C2H4S2C2H2CFeS2FeS2FeSFeS3FeS2FeS2FeSFeHS2CSHNC8H4CNHC3HC2H3NC6H5CH2C2H2C3H2CFeC2SH2CH2CNCHSCH7CH4NC2H3C3HCH3SH3C3HCSC2HCHNC5H4C5H2SH2NHCHC2HC2HSH2SC2FeS2FeS2FeSFeS3FeS2FeS2FeSFeCS2HNHCH2C6HCNHNH2C4HCH4C6H4C2HC2H2C3HSHCHCHCSC2HC2HCH7CNC2HSHCH2C3HC2HCH2CHCH2CHCHCHNHFeCH2C2HC4H2C2HCH2CH4CH2SH2C3
_chemical_formula_sum              "Fe288 S576 H1728 C1728 N144"
_cell_length_a       90.32
_cell_length_b       86.5719
_cell_length_c       41.0191
_cell_angle_alpha    91.2487
_cell_angle_beta     88.88
_cell_angle_gamma    112.818

_space_group_name_H-M_alt    "P 1"
_space_group_IT_number       1

loop_
  _space_group_symop_operation_xyz
  'x, y, z'

loop_
  _atom_site_type_symbol
  _atom_site_label
  _atom_site_symmetry_multiplicity
  _atom_site_fract_x
  _atom_site_fract_y
  _atom_site_fract_z
  _atom_site_occupancy
  Fe  Fe1       1.0  0.05504  0.22745  0.31002  1.0000
  S   S1        1.0  0.04153  0.24443  0.30982  1.0000
  S   S2        1.0  0.06016  0.21890  0.25985  1.0000
  Fe  Fe2       1.0  0.05460  0.22633  0.38423  1.0000
  S   S3        1.0  0.04099  0.24323  0.38897  1.0000
  S   S4        1.0  0.06001  0.21700  0.43214  1.0000
  Fe  Fe3       1.0  0.02545  0.22763  0.34851  1.0000
  S   S5        1.0  0.99825  0.22071  0.34342  1.0000
  Fe  Fe4       1.0  0.05812  0.25827  0.35009  1.0000
  S   S6        1.0  0.07187  0.28618  0.35785  1.0000
  S   S7        1.0  0.03794  0.20965  0.34601  1.0000
  S   S8        1.0  0.07272  0.24236  0.34800  1.0000
  H   H1        1.0  0.13303  0.19253  0.49276  1.0000
  C   C1        1.0  0.12286  0.27793  0.18960  1.0000
  H   H2        1.0  0.09918  0.28222  0.39042  1.0000
  H   H3        1.0  0.99366  0.19450  0.39178  1.0000
  H   H4        1.0  0.12092  0.26476  0.18860  1.0000
  C   C2        1.0  0.21378  0.30686  0.08957  1.0000
  Fe  Fe5       1.0  0.15706  0.26777  0.10189  1.0000
  S   S9        1.0  0.16001  0.25037  0.06340  1.0000
  S   S10       1.0  0.16758  0.29619  0.10428  1.0000
  Fe  Fe6       1.0  0.13803  0.23932  0.14694  1.0000
  S   S11       1.0  0.13941  0.21935  0.11202  1.0000
  S   S12       1.0  0.13039  0.23747  0.20028  1.0000
  Fe  Fe7       1.0  0.16531  0.23627  0.10415  1.0000
  S   S13       1.0  0.18692  0.22917  0.09379  1.0000
  Fe  Fe8       1.0  0.13400  0.23461  0.07329  1.0000
  N   N1        1.0  0.19710  0.08833  0.45035  1.0000
  S   S14       1.0  0.16444  0.25510  0.14177  1.0000
  S   S15       1.0  0.13055  0.25316  0.10904  1.0000
  C   C3        1.0  0.17780  0.30742  0.06991  1.0000
  C   C4        1.0  0.17871  0.29914  0.04081  1.0000
  H   H5        1.0  0.15488  0.23452  0.46414  1.0000
  H   H6        1.0  0.13605  0.18371  0.09015  1.0000
  C   C5        1.0  0.11562  0.29999  0.20973  1.0000
  C   C6        1.0  0.21313  0.09945  0.28711  1.0000
  H   H7        1.0  0.18709  0.17760  0.06322  1.0000
  C   C7        1.0  0.20609  0.21138  0.10263  1.0000
  C   C8        1.0  0.19247  0.21416  0.11384  1.0000
  C   C9        1.0  0.18334  0.20451  0.13950  1.0000
  C   C10       1.0  0.09032  0.31569  0.32791  1.0000
  C   C11       1.0  0.06580  0.25477  0.47523  1.0000
  H   H8        1.0  0.98631  0.17548  0.32133  1.0000
  H   H9        1.0  0.17287  0.20650  0.14851  1.0000
  H   H10       1.0  0.20051  0.09232  0.28262  1.0000
  C   C12       1.0  0.10690  0.22824  0.00672  1.0000
  H   H11       1.0  0.10493  0.26804  0.24969  1.0000
  S   S16       1.0  0.21880  0.13595  0.17174  1.0000
  C   C13       1.0  0.16117  0.23007  0.48153  1.0000
  H   H12       1.0  0.00963  0.16727  0.31539  1.0000
  C   C14       1.0  0.14710  0.18217  0.08368  1.0000
  H   H13       1.0  0.08881  0.25626  0.00991  1.0000
  C   C15       1.0  0.21038  0.19890  0.11645  1.0000
  C   C16       1.0  0.21615  0.29378  0.03935  1.0000
  H   H14       1.0  0.19737  0.26607  0.06627  1.0000
  C   C17       1.0  0.07961  0.29894  0.32349  1.0000
  C   C18       1.0  0.17562  0.17848  0.06851  1.0000
  C   C19       1.0  0.07513  0.29273  0.29189  1.0000
  C   C20       1.0  0.03411  0.17906  0.27332  1.0000
  H   H15       1.0  0.06681  0.27991  0.28822  1.0000
  C   C21       1.0  0.07956  0.22364  0.44837  1.0000
  C   C22       1.0  0.09329  0.23165  0.42920  1.0000
  C   C23       1.0  0.10863  0.23698  0.44312  1.0000
  C   C24       1.0  0.11038  0.23479  0.47648  1.0000
  H   H16       1.0  0.12112  0.27509  0.47807  1.0000
  H   H17       1.0  0.15978  0.21576  0.04666  1.0000
  H   H18       1.0  0.09209  0.23362  0.40360  1.0000
  H   H19       1.0  0.11918  0.24314  0.42807  1.0000
  H   H20       1.0  0.10753  0.24758  0.04113  1.0000
  H   H21       1.0  0.09073  0.27615  0.23490  1.0000
  C   C25       1.0  0.11075  0.23248  0.21601  1.0000
  C   C26       1.0  0.10873  0.23494  0.24951  1.0000
  C   C27       1.0  0.09333  0.23115  0.26318  1.0000
  C   C28       1.0  0.07978  0.22462  0.24346  1.0000
  C   C29       1.0  0.08179  0.22224  0.20990  1.0000
  C   C30       1.0  0.09723  0.22632  0.19612  1.0000
  H   H22       1.0  0.11914  0.23970  0.26504  1.0000
  H   H23       1.0  0.09193  0.23294  0.28906  1.0000
  H   H24       1.0  0.07137  0.21718  0.19447  1.0000
  H   H25       1.0  0.09865  0.22438  0.17029  1.0000
  C   C31       1.0  0.98108  0.20364  0.35813  1.0000
  C   C32       1.0  0.08134  0.22104  0.48154  1.0000
  C   C33       1.0  0.17747  0.23952  0.48704  1.0000
  C   C34       1.0  0.98207  0.19287  0.38216  1.0000
  H   H26       1.0  0.18787  0.06166  0.45122  1.0000
  C   C35       1.0  0.21317  0.11755  0.45959  1.0000
  H   H27       1.0  0.21662  0.12566  0.05749  1.0000
  H   H28       1.0  0.18985  0.27662  0.09623  1.0000
  C   C36       1.0  0.21320  0.11143  0.01221  1.0000
  C   C37       1.0  0.15164  0.17121  0.10176  1.0000
  S   S17       1.0  0.20552  0.04556  0.40420  1.0000
  H   H29       1.0  0.21757  0.12828  0.47620  1.0000
  H   H30       1.0  0.06576  0.24504  0.49252  1.0000
  C   C38       1.0  0.21331  0.10485  0.40672  1.0000
  S   S18       1.0  0.20491  0.17206  0.15828  1.0000
  C   C39       1.0  0.13593  0.20623  0.49362  1.0000
  C   C40       1.0  0.18763  0.19204  0.15330  1.0000
  H   H31       1.0  0.21572  0.11693  0.24837  1.0000
  C   C41       1.0  0.20219  0.10210  0.47067  1.0000
  H   H32       1.0  0.07724  0.29846  0.24071  1.0000
  H   H33       1.0  0.21328  0.21879  0.08286  1.0000
  C   C42       1.0  0.10279  0.24141  0.01821  1.0000
  H   H34       1.0  0.14345  0.28495  0.15708  1.0000
  H   H35       1.0  0.16991  0.16129  0.10842  1.0000
  H   H36       1.0  0.18585  0.99289  0.41715  1.0000
  C   C43       1.0  0.20108  0.18902  0.14172  1.0000
  H   H37       1.0  0.07251  0.26780  0.41577  1.0000
  C   C44       1.0  0.15194  0.20267  0.03999  1.0000
  C   C45       1.0  0.21884  0.11886  0.42746  1.0000
  H   H38       1.0  0.13177  0.20963  0.47052  1.0000
  H   H39       1.0  0.21338  0.28258  0.02428  1.0000
  H   H40       1.0  0.03047  0.16537  0.27646  1.0000
  H   H41       1.0  0.04305  0.18594  0.29217  1.0000
  S   S19       1.0  0.11950  0.22098  0.02920  1.0000
  N   N2        1.0  0.08175  0.26325  0.46042  1.0000
  H   H42       1.0  0.05678  0.24804  0.45638  1.0000
  H   H43       1.0  0.17304  0.07092  0.45586  1.0000
  C   C46       1.0  0.13564  0.28931  0.17169  1.0000
  H   H44       1.0  0.18036  0.18452  0.17289  1.0000
  S   S20       1.0  0.21390  0.00423  0.37239  1.0000
  H   H45       1.0  0.12380  0.28590  0.42154  1.0000
  N   N3        1.0  0.15658  0.19098  0.05851  1.0000
  H   H46       1.0  0.21759  0.10569  0.38164  1.0000
  H   H47       1.0  0.04019  0.18233  0.24910  1.0000
  H   H48       1.0  0.18366  0.25111  0.47409  1.0000
  C   C47       1.0  0.11201  0.27976  0.43264  1.0000
  C   C48       1.0  0.20231  0.08961  0.41859  1.0000
  N   N4        1.0  0.02020  0.18380  0.27597  1.0000
  C   C49       1.0  0.00861  0.17652  0.29917  1.0000
  C   C50       1.0  0.01928  0.19606  0.25658  1.0000
  C   C51       1.0  0.99541  0.18111  0.30270  1.0000
  C   C52       1.0  0.00635  0.20109  0.25972  1.0000
  C   C53       1.0  0.99429  0.19343  0.28271  1.0000
  H   H49       1.0  0.07078  0.21473  0.49649  1.0000
  S   S21       1.0  0.20974  0.07670  0.33509  1.0000
  H   H50       1.0  0.02866  0.20220  0.23878  1.0000
  H   H51       1.0  0.19809  0.07877  0.40228  1.0000
  H   H52       1.0  0.00586  0.21110  0.24488  1.0000
  H   H53       1.0  0.98435  0.19745  0.28582  1.0000
  C   C54       1.0  0.09824  0.27761  0.41511  1.0000
  C   C55       1.0  0.11052  0.27385  0.46441  1.0000
  C   C56       1.0  0.09997  0.27120  0.22739  1.0000
  N   N5        1.0  0.11297  0.28332  0.20809  1.0000
  H   H54       1.0  0.14429  0.16451  0.12213  1.0000
  H   H55       1.0  0.09375  0.25948  0.21303  1.0000
  H   H56       1.0  0.13925  0.20100  0.04485  1.0000
  C   C57       1.0  0.16596  0.16932  0.09396  1.0000
  C   C58       1.0  0.12822  0.31172  0.19198  1.0000
  C   C59       1.0  0.17079  0.18944  0.05113  1.0000
  C   C60       1.0  0.09519  0.26563  0.47806  1.0000
  C   C61       1.0  0.08313  0.26936  0.42955  1.0000
  H   H57       1.0  0.18622  0.07130  0.48898  1.0000
  H   H58       1.0  0.17264  0.28568  0.03876  1.0000
  H   H59       1.0  0.10797  0.30434  0.22475  1.0000
  H   H60       1.0  0.20473  0.06123  0.23286  1.0000
  H   H61       1.0  0.21766  0.05826  0.28154  1.0000
  H   H62       1.0  0.15312  0.20075  0.01337  1.0000
  C   C62       1.0  0.08108  0.30326  0.26501  1.0000
  C   C63       1.0  0.18539  0.07230  0.46213  1.0000
  H   H63       1.0  0.17867  0.19703  0.03226  1.0000
  S   S22       1.0  0.12987  0.24278  0.49319  1.0000
  S   S23       1.0  0.21556  0.06347  0.49386  1.0000
  H   H64       1.0  0.19817  0.10111  0.49593  1.0000
  H   H65       1.0  0.20402  0.07917  0.18702  1.0000
  H   H66       1.0  0.20893  0.30600  0.11421  1.0000
  H   H67       1.0  0.20798  0.27318  0.10382  1.0000
  C   C64       1.0  0.20102  0.27635  0.08490  1.0000
  N   N6        1.0  0.15318  0.21566  0.49840  1.0000
  C   C65       1.0  0.21547  0.07200  0.22656  1.0000
  H   H68       1.0  0.06199  0.26403  0.48817  1.0000
  N   N7        1.0  0.21055  0.29269  0.07082  1.0000
  H   H69       1.0  0.14815  0.31520  0.15891  1.0000
  C   C66       1.0  0.21497  0.08207  0.20067  1.0000
  C   C67       1.0  0.09667  0.22675  0.49567  1.0000
  C   C68       1.0  0.13828  0.30630  0.17281  1.0000
  C   C69       1.0  0.21793  0.11513  0.04495  1.0000
  C   C70       1.0  0.18767  0.30829  0.01431  1.0000
  H   H70       1.0  0.97518  0.21997  0.41607  1.0000
  C   C71       1.0  0.19623  0.98543  0.37512  1.0000
  H   H71       1.0  0.97200  0.23888  0.42604  1.0000
  H   H72       1.0  0.97187  0.23182  0.38411  1.0000
  Fe  Fe9       1.0  0.06715  0.22976  0.82683  1.0000
  S   S24       1.0  0.04557  0.23414  0.80990  1.0000
  S   S25       1.0  0.08482  0.22245  0.79653  1.0000
  Fe  Fe10      1.0  0.06215  0.23747  0.89864  1.0000
  S   S26       1.0  0.03994  0.24218  0.88720  1.0000
  S   S27       1.0  0.07195  0.24465  0.95010  1.0000
  Fe  Fe11      1.0  0.03275  0.21944  0.85420  1.0000
  S   S28       1.0  0.00829  0.19725  0.84923  1.0000
  Fe  Fe12      1.0  0.05427  0.25645  0.84429  1.0000
  S   S29       1.0  0.05577  0.28290  0.83771  1.0000
  S   S30       1.0  0.05403  0.21354  0.86894  1.0000
  S   S31       1.0  0.07672  0.25314  0.85767  1.0000
  C   C72       1.0  0.09075  0.31652  0.76172  1.0000
  H   H73       1.0  0.15019  0.28939  0.65898  1.0000
  H   H74       1.0  0.97801  0.16964  0.84010  1.0000
  H   H75       1.0  0.18857  0.30178  0.99200  1.0000
  C   C73       1.0  0.11309  0.28496  0.89000  1.0000
  H   H76       1.0  0.12907  0.20911  0.51398  1.0000
  Fe  Fe13      1.0  0.15693  0.26785  0.59740  1.0000
  S   S32       1.0  0.16112  0.25033  0.56057  1.0000
  S   S33       1.0  0.17088  0.29584  0.60482  1.0000
  Fe  Fe14      1.0  0.12441  0.24190  0.61932  1.0000
  S   S34       1.0  0.12597  0.22245  0.58348  1.0000
  S   S35       1.0  0.10195  0.24063  0.64746  1.0000
  Fe  Fe15      1.0  0.15184  0.23071  0.59952  1.0000
  S   S36       1.0  0.15978  0.20853  0.60342  1.0000
  Fe  Fe16      1.0  0.13518  0.24323  0.54733  1.0000
  C   C74       1.0  0.18161  0.17329  0.69354  1.0000
  S   S37       1.0  0.14950  0.24893  0.63796  1.0000
  S   S38       1.0  0.13175  0.26200  0.58155  1.0000
  H   H77       1.0  0.19940  0.10613  0.77777  1.0000
  C   C75       1.0  0.18654  0.03866  0.81154  1.0000
  Fe  Fe17      1.0  0.21644  0.07558  0.92385  1.0000
  H   H78       1.0  0.08172  0.30419  0.87643  1.0000
  S   S39       1.0  0.20965  0.09415  0.95398  1.0000
  C   C76       1.0  0.20523  0.19994  0.63296  1.0000
  C   C77       1.0  0.19217  0.18710  0.61852  1.0000
  C   C78       1.0  0.17845  0.19003  0.60964  1.0000
  C   C79       1.0  0.17761  0.20582  0.61472  1.0000
  C   C80       1.0  0.19076  0.21873  0.62868  1.0000
  C   C81       1.0  0.20442  0.21576  0.63787  1.0000
  H   H79       1.0  0.19257  0.17487  0.61458  1.0000
  H   H80       1.0  0.16837  0.17993  0.59883  1.0000
  H   H81       1.0  0.19035  0.23094  0.63279  1.0000
  C   C82       1.0  0.97100  0.16980  0.93574  1.0000
  C   C83       1.0  0.19573  0.18428  0.70818  1.0000
  C   C84       1.0  0.09064  0.29895  0.88067  1.0000
  H   H82       1.0  0.20729  0.99841  0.87152  1.0000
  S   S40       1.0  0.18524  0.01540  0.88695  1.0000
  H   H83       1.0  0.09255  0.29375  0.74344  1.0000
  H   H84       1.0  0.17834  0.03258  0.83138  1.0000
  C   C85       1.0  0.17801  0.15609  0.69358  1.0000
  S   S41       1.0  0.21678  0.05152  0.94207  1.0000
  C   C86       1.0  0.11298  0.28432  0.68664  1.0000
  H   H85       1.0  0.21010  0.09010  0.81355  1.0000
  C   C87       1.0  0.06952  0.29569  0.80871  1.0000
  C   C88       1.0  0.21090  0.10549  0.77207  1.0000
  C   C89       1.0  0.07689  0.28888  0.78550  1.0000
  H   H86       1.0  0.10418  0.30975  0.83711  1.0000
  H   H87       1.0  0.07422  0.27556  0.78521  1.0000
  C   C90       1.0  0.08570  0.23828  0.97077  1.0000
  C   C91       1.0  0.09008  0.22536  0.95889  1.0000
  C   C92       1.0  0.10052  0.22029  0.97693  1.0000
  H   H88       1.0  0.18590  0.13677  0.70841  1.0000
  C   C93       1.0  0.21696  0.09645  0.79246  1.0000
  H   H89       1.0  0.10227  0.27499  0.69740  1.0000
  H   H90       1.0  0.08517  0.21904  0.93617  1.0000
  H   H91       1.0  0.10360  0.21008  0.96784  1.0000
  C   C94       1.0  0.18558  0.23418  0.51003  1.0000
  C   C95       1.0  0.18375  0.05033  0.79231  1.0000
  C   C96       1.0  0.09811  0.23645  0.68948  1.0000
  C   C97       1.0  0.08575  0.24004  0.70493  1.0000
  C   C98       1.0  0.08195  0.23644  0.73810  1.0000
  C   C99       1.0  0.09028  0.22886  0.75589  1.0000
  C   C100      1.0  0.10268  0.22533  0.74048  1.0000
  C   C101      1.0  0.10671  0.22926  0.70749  1.0000
  H   H92       1.0  0.07900  0.24555  0.69111  1.0000
  H   H93       1.0  0.07236  0.23918  0.74969  1.0000
  H   H94       1.0  0.10916  0.21944  0.75410  1.0000
  H   H95       1.0  0.11622  0.22640  0.69585  1.0000
  C   C102      1.0  0.98820  0.19496  0.85920  1.0000
  C   C103      1.0  0.98463  0.20770  0.87462  1.0000
  C   C104      1.0  0.19514  0.98910  0.87241  1.0000
  C   C105      1.0  0.11366  0.30040  0.68041  1.0000
  H   H96       1.0  0.99425  0.21959  0.88022  1.0000
  C   C106      1.0  0.20814  0.31265  0.54051  1.0000
  N   N8        1.0  0.08917  0.28895  0.90691  1.0000
  C   C107      1.0  0.16103  0.21040  0.52110  1.0000
  C   C108      1.0  0.19454  0.05810  0.76703  1.0000
  C   C109      1.0  0.20238  0.16144  0.72317  1.0000
  C   C110      1.0  0.14020  0.30842  0.65917  1.0000
  H   H97       1.0  0.17127  0.99089  0.96190  1.0000
  C   C111      1.0  0.07501  0.28467  0.92834  1.0000
  C   C112      1.0  0.18414  0.30731  0.57372  1.0000
  H   H98       1.0  0.19235  0.06725  0.75230  1.0000
  N   N9        1.0  0.12714  0.31220  0.66675  1.0000
  H   H99       1.0  0.19744  0.01478  0.95920  1.0000
  C   C113      1.0  0.17734  0.21951  0.52714  1.0000
  C   C114      1.0  0.18220  0.98865  0.95812  1.0000
  H   H100      1.0  0.20251  0.02621  0.82090  1.0000
  H   H101      1.0  0.09882  0.27369  0.93211  1.0000
  N   N10       1.0  0.05021  0.19557  0.73761  1.0000
  C   C115      1.0  0.03580  0.19677  0.74446  1.0000
  C   C116      1.0  0.05769  0.19014  0.76079  1.0000
  C   C117      1.0  0.02861  0.19267  0.77532  1.0000
  C   C118      1.0  0.05092  0.18611  0.79199  1.0000
  C   C119      1.0  0.03626  0.18732  0.79918  1.0000
  C   C120      1.0  0.05726  0.19942  0.70478  1.0000
  H   H102      1.0  0.02984  0.20107  0.72614  1.0000
  H   H103      1.0  0.06930  0.18956  0.75575  1.0000
  H   H104      1.0  0.01731  0.19391  0.78102  1.0000
  H   H105      1.0  0.05727  0.18258  0.81074  1.0000
  H   H106      1.0  0.03096  0.18439  0.82340  1.0000
  H   H107      1.0  0.05141  0.18859  0.68804  1.0000
  H   H108      1.0  0.05581  0.21065  0.69518  1.0000
  H   H109      1.0  0.07040  0.20237  0.70481  1.0000
  H   H110      1.0  0.17381  0.17817  0.68132  1.0000
  N   N11       1.0  0.21084  0.99950  0.95005  1.0000
  H   H111      1.0  0.96999  0.16146  0.91419  1.0000
  H   H112      1.0  0.97768  0.18285  0.92735  1.0000
  C   C121      1.0  0.13990  0.29244  0.66510  1.0000
  H   H113      1.0  0.06491  0.27391  0.91754  1.0000
  C   C122      1.0  0.19574  0.30193  0.56050  1.0000
  C   C123      1.0  0.20016  0.03509  0.80567  1.0000
  C   C124      1.0  0.10019  0.28198  0.91179  1.0000
  H   H114      1.0  0.12159  0.27911  0.89364  1.0000
  C   C125      1.0  0.18842  0.15010  0.70855  1.0000
  H   H115      1.0  0.12584  0.26792  0.68359  1.0000
  H   H116      1.0  0.10333  0.30338  0.68664  1.0000
  H   H117      1.0  0.19565  0.28985  0.56704  1.0000
  H   H118      1.0  0.16730  0.14746  0.68164  1.0000
  H   H119      1.0  0.15460  0.19928  0.53525  1.0000
  H   H120      1.0  0.09786  0.22491  0.52135  1.0000
  C   C126      1.0  0.18233  0.99410  0.87841  1.0000
  C   C127      1.0  0.21079  0.04323  0.78042  1.0000
  C   C128      1.0  0.09217  0.24631  0.00042  1.0000
  S   S42       1.0  0.21115  0.12414  0.71833  1.0000
  H   H121      1.0  0.17338  0.05344  0.79714  1.0000
  H   H122      1.0  0.12437  0.29722  0.84560  1.0000
  C   C129      1.0  0.11461  0.29507  0.86305  1.0000
  H   H123      1.0  0.07735  0.28097  0.95290  1.0000
  H   H124      1.0  0.19884  0.19768  0.70670  1.0000
  H   H125      1.0  0.21747  0.30868  0.53152  1.0000
  C   C130      1.0  0.07316  0.31301  0.80897  1.0000
  H   H126      1.0  0.21048  0.15662  0.73435  1.0000
  C   C131      1.0  0.97544  0.17960  0.85209  1.0000
  H   H127      1.0  0.18338  0.21543  0.54569  1.0000
  H   H128      1.0  0.20824  0.11917  0.99967  1.0000
  C   C132      1.0  0.12621  0.28036  0.67894  1.0000
  Fe  Fe18      1.0  0.20713  0.04021  0.89299  1.0000
  C   C133      1.0  0.08730  0.29923  0.76187  1.0000
  C   C134      1.0  0.10334  0.30214  0.85832  1.0000
  C   C135      1.0  0.21874  0.06220  0.73403  1.0000
  S   S43       1.0  0.20455  0.06383  0.87663  1.0000
  N   N12       1.0  0.20589  0.17830  0.72276  1.0000
  H   H129      1.0  0.07125  0.29540  0.93148  1.0000
  H   H130      1.0  0.20762  0.07572  0.55472  1.0000
  C   C136      1.0  0.19708  0.00214  0.95650  1.0000
  N   N13       1.0  0.20787  0.05453  0.76144  1.0000
  H   H131      1.0  0.97817  0.16708  0.95478  1.0000
  S   S44       1.0  0.21387  0.14701  0.63463  1.0000
  C   C137      1.0  0.21644  0.08629  0.54229  1.0000
  H   H132      1.0  0.21571  0.10441  0.57893  1.0000
  C   C138      1.0  0.21503  0.09792  0.99550  1.0000
  H   H133      1.0  0.21443  0.22580  0.64902  1.0000
  H   H134      1.0  0.19814  0.24154  0.51506  1.0000
  H   H135      1.0  0.21621  0.05323  0.71313  1.0000
  H   H136      1.0  0.21748  0.07382  0.72596  1.0000
  C   C139      1.0  0.21960  0.11368  0.74436  1.0000
  H   H137      1.0  0.21868  0.19966  0.75233  1.0000
  H   H138      1.0  0.15658  0.98540  0.88366  1.0000
  H   H139      1.0  0.09414  0.26072  0.50249  1.0000
  H   H140      1.0  0.15092  0.31776  0.64841  1.0000
  Fe  Fe19      1.0  0.02813  0.56373  0.42120  1.0000
  S   S45       1.0  0.05068  0.57131  0.39046  1.0000
  S   S46       1.0  0.00498  0.56477  0.40350  1.0000
  Fe  Fe20      1.0  0.04344  0.55539  0.47995  1.0000
  S   S47       1.0  0.06720  0.56234  0.45410  1.0000
  S   S48       1.0  0.19415  0.37178  0.39960  1.0000
  Fe  Fe21      1.0  0.06347  0.58497  0.43569  1.0000
  S   S49       1.0  0.08617  0.60915  0.43170  1.0000
  Fe  Fe22      1.0  0.05265  0.54840  0.41105  1.0000
  S   S50       1.0  0.06067  0.53002  0.38344  1.0000
  S   S51       1.0  0.04069  0.57907  0.46504  1.0000
  S   S52       1.0  0.02914  0.53976  0.43849  1.0000
  Fe  Fe23      1.0  0.12405  0.39453  0.20920  1.0000
  S   S53       1.0  0.12222  0.37034  0.18448  1.0000
  S   S54       1.0  0.11675  0.41419  0.18537  1.0000
  Fe  Fe24      1.0  0.14374  0.38961  0.26496  1.0000
  S   S55       1.0  0.14314  0.36508  0.24508  1.0000
  S   S56       1.0  0.15875  0.40451  0.30733  1.0000
  Fe  Fe25      1.0  0.14818  0.37744  0.19625  1.0000
  S   S57       1.0  0.16524  0.36945  0.16538  1.0000
  Fe  Fe26      1.0  0.11724  0.35935  0.23475  1.0000
  S   S58       1.0  0.09913  0.33246  0.23450  1.0000
  S   S59       1.0  0.15073  0.40254  0.21683  1.0000
  S   S60       1.0  0.11716  0.38308  0.25884  1.0000
  Fe  Fe27      1.0  0.01903  0.46113  0.17843  1.0000
  S   S61       1.0  0.03506  0.45160  0.14915  1.0000
  S   S62       1.0  0.99207  0.45389  0.17759  1.0000
  Fe  Fe28      1.0  0.04735  0.49145  0.20539  1.0000
  S   S63       1.0  0.06589  0.48464  0.17756  1.0000
  S   S64       1.0  0.04976  0.51557  0.23217  1.0000
  Fe  Fe29      1.0  0.04863  0.47859  0.13558  1.0000
  S   S65       1.0  0.05300  0.48476  0.08186  1.0000
  Fe  Fe30      1.0  0.05110  0.45809  0.19326  1.0000
  S   S66       1.0  0.05984  0.43932  0.21680  1.0000
  S   S67       1.0  0.03158  0.48747  0.16189  1.0000
  S   S68       1.0  0.03364  0.46557  0.22392  1.0000
  C   C140      1.0  0.19568  0.32576  0.01665  1.0000
  C   C141      1.0  0.98606  0.51022  0.27328  1.0000
  N   N14       1.0  0.19205  0.38723  0.26188  1.0000
  C   C142      1.0  0.16825  0.39533  0.33363  1.0000
  C   C143      1.0  0.18042  0.40564  0.35447  1.0000
  C   C144      1.0  0.18840  0.39869  0.37526  1.0000
  C   C145      1.0  0.18403  0.38132  0.37571  1.0000
  C   C146      1.0  0.17171  0.37104  0.35517  1.0000
  C   C147      1.0  0.16396  0.37800  0.33402  1.0000
  H   H141      1.0  0.18384  0.41908  0.35425  1.0000
  H   H142      1.0  0.19807  0.40679  0.39045  1.0000
  H   H143      1.0  0.20073  0.34758  0.04758  1.0000
  H   H144      1.0  0.15454  0.36990  0.31829  1.0000
  H   H145      1.0  0.10234  0.61145  0.49451  1.0000
  C   C148      1.0  0.18678  0.40574  0.09853  1.0000
  C   C149      1.0  0.17770  0.39710  0.12552  1.0000
  C   C150      1.0  0.17714  0.38119  0.13283  1.0000
  C   C151      1.0  0.18584  0.37408  0.11317  1.0000
  C   C152      1.0  0.19470  0.38260  0.08585  1.0000
  H   H146      1.0  0.18711  0.41803  0.09289  1.0000
  H   H147      1.0  0.17108  0.40272  0.14052  1.0000
  H   H148      1.0  0.18548  0.36176  0.11865  1.0000
  H   H149      1.0  0.08932  0.56089  0.39588  1.0000
  C   C153      1.0  0.07524  0.43194  0.20612  1.0000
  C   C154      1.0  0.07602  0.41831  0.22311  1.0000
  C   C155      1.0  0.08830  0.41235  0.21645  1.0000
  C   C156      1.0  0.10014  0.42013  0.19292  1.0000
  C   C157      1.0  0.09933  0.43372  0.17582  1.0000
  C   C158      1.0  0.08696  0.43957  0.18227  1.0000
  H   H150      1.0  0.06699  0.41225  0.24151  1.0000
  H   H151      1.0  0.08870  0.40187  0.22976  1.0000
  H   H152      1.0  0.10838  0.43982  0.15750  1.0000
  H   H153      1.0  0.08656  0.45006  0.16900  1.0000
  C   C159      1.0  0.05661  0.53597  0.04618  1.0000
  Fe  Fe31      1.0  0.21281  0.38228  0.43963  1.0000
  C   C160      1.0  0.05051  0.50634  0.03621  1.0000
  C   C161      1.0  0.05314  0.50419  0.06913  1.0000
  C   C162      1.0  0.05685  0.51781  0.09082  1.0000
  C   C163      1.0  0.05869  0.53366  0.07932  1.0000
  S   S69       1.0  0.06158  0.55656  0.03203  1.0000
  H   H154      1.0  0.97733  0.39993  0.11910  1.0000
  H   H155      1.0  0.05893  0.51631  0.11624  1.0000
  H   H156      1.0  0.06217  0.54429  0.09602  1.0000
  C   C164      1.0  0.05507  0.52427  0.34254  1.0000
  C   C165      1.0  0.05911  0.51170  0.32739  1.0000
  C   C166      1.0  0.05661  0.50816  0.29383  1.0000
  C   C167      1.0  0.05032  0.51742  0.27511  1.0000
  C   C168      1.0  0.04577  0.52960  0.29045  1.0000
  C   C169      1.0  0.04801  0.53294  0.32412  1.0000
  H   H157      1.0  0.06456  0.50493  0.34153  1.0000
  H   H158      1.0  0.06020  0.49878  0.28223  1.0000
  H   H159      1.0  0.04092  0.53684  0.27612  1.0000
  H   H160      1.0  0.04487  0.54265  0.33555  1.0000
  C   C170      1.0  0.08980  0.63050  0.44201  1.0000
  H   H161      1.0  0.16990  0.36800  0.45203  1.0000
  C   C171      1.0  0.18837  0.35919  0.27622  1.0000
  C   C172      1.0  0.07772  0.63547  0.45424  1.0000
  C   C173      1.0  0.98413  0.51867  0.36153  1.0000
  N   N15       1.0  0.99503  0.45534  0.07854  1.0000
  H   H162      1.0  0.06560  0.62625  0.45708  1.0000
  H   H163      1.0  0.16828  0.35760  0.35529  1.0000
  C   C174      1.0  0.98450  0.42406  0.14332  1.0000
  H   H164      1.0  0.09480  0.54687  0.34606  1.0000
  H   H165      1.0  0.10912  0.54634  0.04495  1.0000
  C   C175      1.0  0.16617  0.36922  0.02661  1.0000
  H   H166      1.0  0.14413  0.37120  0.09235  1.0000
  H   H167      1.0  0.99588  0.42412  0.15123  1.0000
  N   N16       1.0  0.15828  0.37550  0.04859  1.0000
  C   C176      1.0  0.99553  0.53324  0.37564  1.0000
  C   C177      1.0  0.99168  0.54718  0.38196  1.0000
  H   H168      1.0  0.09357  0.43069  0.29042  1.0000
  H   H169      1.0  0.99545  0.53050  0.23976  1.0000
  H   H170      1.0  0.00717  0.53355  0.38221  1.0000
  H   H171      1.0  0.13357  0.44994  0.21039  1.0000
  C   C178      1.0  0.11554  0.43915  0.26194  1.0000
  H   H172      1.0  0.10252  0.41342  0.32694  1.0000
  H   H173      1.0  0.14673  0.43967  0.21811  1.0000
  C   C179      1.0  0.18861  0.39884  0.24076  1.0000
  H   H174      1.0  0.15578  0.39777  0.06648  1.0000
  H   H175      1.0  0.18252  0.39258  0.21796  1.0000
  C   C180      1.0  0.08680  0.55108  0.29939  1.0000
  H   H176      1.0  0.10473  0.33903  0.30453  1.0000
  S   S70       1.0  0.20499  0.40902  0.04280  1.0000
  C   C181      1.0  0.98984  0.46866  0.08975  1.0000
  H   H177      1.0  0.08546  0.51051  0.02094  1.0000
  H   H178      1.0  0.99863  0.47804  0.27735  1.0000
  C   C182      1.0  0.13526  0.42886  0.27692  1.0000
  H   H179      1.0  0.14828  0.39093  0.02584  1.0000
  H   H180      1.0  0.18884  0.39756  0.44681  1.0000
  H   H181      1.0  0.14418  0.34307  0.10067  1.0000
  C   C183      1.0  0.15790  0.39204  0.04326  1.0000
  H   H182      1.0  0.01061  0.52778  0.19022  1.0000
  C   C184      1.0  0.09649  0.32617  0.30092  1.0000
  H   H183      1.0  0.14970  0.45931  0.23925  1.0000
  H   H184      1.0  0.19993  0.40927  0.23347  1.0000
  H   H185      1.0  0.09380  0.32059  0.35229  1.0000
  C   C185      1.0  0.15822  0.34370  0.05717  1.0000
  C   C186      1.0  0.10538  0.43029  0.28722  1.0000
  H   H186      1.0  0.01590  0.49369  0.23199  1.0000
  H   H187      1.0  0.11140  0.44640  0.24586  1.0000
  C   C187      1.0  0.18560  0.32494  0.07215  1.0000
  H   H188      1.0  0.08776  0.54006  0.28803  1.0000
  N   N17       1.0  0.13013  0.43807  0.25666  1.0000
  H   H189      1.0  0.08793  0.58083  0.39236  1.0000
  H   H190      1.0  0.97774  0.51499  0.28488  1.0000
  C   C188      1.0  0.14061  0.44732  0.22994  1.0000
  C   C189      1.0  0.98430  0.44081  0.06499  1.0000
  H   H191      1.0  0.14689  0.42812  0.27301  1.0000
  H   H192      1.0  0.12953  0.41243  0.31824  1.0000
  C   C190      1.0  0.99606  0.51889  0.24765  1.0000
  N   N18       1.0  0.00642  0.51280  0.23273  1.0000
  C   C191      1.0  0.18167  0.40536  0.49281  1.0000
  H   H193      1.0  0.19021  0.41822  0.49055  1.0000
  H   H194      1.0  0.13010  0.32491  0.19322  1.0000
  H   H195      1.0  0.02879  0.44730  0.07372  1.0000
  C   C192      1.0  0.01082  0.45772  0.08147  1.0000
  C   C193      1.0  0.01699  0.52232  0.20636  1.0000
  C   C194      1.0  0.01621  0.44527  0.07121  1.0000
  C   C195      1.0  0.16062  0.37223  0.49885  1.0000
  H   H196      1.0  0.97920  0.48865  0.30396  1.0000
  H   H197      1.0  0.21214  0.38757  0.33096  1.0000
  H   H198      1.0  0.20106  0.37685  0.07047  1.0000
  H   H199      1.0  0.02768  0.53251  0.21686  1.0000
  H   H200      1.0  0.02136  0.51422  0.19086  1.0000
  N   N19       1.0  0.09072  0.53612  0.01002  1.0000
  C   C196      1.0  0.10546  0.64280  0.43837  1.0000
  H   H201      1.0  0.99165  0.53687  0.45989  1.0000
  H   H202      1.0  0.09235  0.55277  0.05008  1.0000
  C   C197      1.0  0.20151  0.39343  0.28857  1.0000
  C   C198      1.0  0.98107  0.52635  0.45162  1.0000
  H   H203      1.0  0.18498  0.33141  0.09470  1.0000
  C   C199      1.0  0.98001  0.43734  0.15211  1.0000
  H   H204      1.0  0.04757  0.49584  0.01930  1.0000
  H   H205      1.0  0.97656  0.46455  0.08923  1.0000
  S   S71       1.0  0.20472  0.37268  0.49009  1.0000
  C   C200      1.0  0.16633  0.35326  0.03060  1.0000
  C   C201      1.0  0.19445  0.33413  0.04549  1.0000
  C   C202      1.0  0.00746  0.49837  0.24333  1.0000
  C   C203      1.0  0.97394  0.41035  0.12525  1.0000
  C   C204      1.0  0.99771  0.48944  0.26905  1.0000
  N   N20       1.0  0.08880  0.56840  0.34705  1.0000
  C   C205      1.0  0.09073  0.55499  0.33220  1.0000
  C   C206      1.0  0.08317  0.57833  0.32987  1.0000
  C   C207      1.0  0.07899  0.57470  0.29706  1.0000
  C   C208      1.0  0.08082  0.56096  0.28180  1.0000
  H   H206      1.0  0.08169  0.58902  0.34162  1.0000
  H   H207      1.0  0.07420  0.58237  0.28371  1.0000
  C   C209      1.0  0.15017  0.35019  0.07944  1.0000
  H   H208      1.0  0.10669  0.57891  0.38287  1.0000
  H   H209      1.0  0.07725  0.55768  0.25662  1.0000
  C   C210      1.0  0.12549  0.41998  0.30266  1.0000
  C   C211      1.0  0.09588  0.54214  0.04323  1.0000
  H   H210      1.0  0.01932  0.46928  0.09201  1.0000
  H   H211      1.0  0.15826  0.33132  0.06063  1.0000
  H   H212      1.0  0.99361  0.47227  0.11541  1.0000
  H   H213      1.0  0.99536  0.47981  0.07409  1.0000
  C   C212      1.0  0.18547  0.37034  0.25554  1.0000
  H   H214      1.0  0.09001  0.53217  0.06137  1.0000
  C   C213      1.0  0.19511  0.39843  0.07829  1.0000
  H   H215      1.0  0.17283  0.34842  0.01338  1.0000
  C   C214      1.0  0.05211  0.52215  0.02479  1.0000
  C   C215      1.0  0.11038  0.42058  0.30757  1.0000
  C   C216      1.0  0.97659  0.54669  0.37283  1.0000
  H   H216      1.0  0.16965  0.40082  0.03330  1.0000
  C   C217      1.0  0.15022  0.36616  0.07462  1.0000
  H   H217      1.0  0.98710  0.50781  0.35751  1.0000
  C   C218      1.0  0.09345  0.57248  0.38119  1.0000
  H   H218      1.0  0.17783  0.36539  0.23452  1.0000
  H   H219      1.0  0.11494  0.63919  0.42893  1.0000
  C   C219      1.0  0.20488  0.38267  0.30942  1.0000
  H   H220      1.0  0.97360  0.55750  0.37748  1.0000
  H   H221      1.0  0.20628  0.40676  0.29421  1.0000
  H   H222      1.0  0.98053  0.41626  0.04521  1.0000
  H   H223      1.0  0.18069  0.40407  0.25395  1.0000
  H   H224      1.0  0.00926  0.42036  0.05067  1.0000
  C   C220      1.0  0.98689  0.49540  0.28399  1.0000
  H   H225      1.0  0.20024  0.35697  0.32011  1.0000
  C   C221      1.0  0.98165  0.51063  0.44632  1.0000
  H   H226      1.0  0.99266  0.50881  0.45092  1.0000
  C   C222      1.0  0.98923  0.42800  0.05484  1.0000
  C   C223      1.0  0.00529  0.43026  0.05810  1.0000
  C   C224      1.0  0.09180  0.31998  0.26937  1.0000
  H   H227      1.0  0.18294  0.34579  0.27147  1.0000
  C   C225      1.0  0.19815  0.36544  0.30332  1.0000
  Fe  Fe32      1.0  0.21717  0.39735  0.00663  1.0000
  C   C226      1.0  0.17033  0.37712  0.47101  1.0000
  H   H228      1.0  0.97174  0.43883  0.06266  1.0000
  C   C227      1.0  0.18098  0.39377  0.46801  1.0000
  H   H229      1.0  0.17261  0.37669  0.00611  1.0000
  H   H230      1.0  0.15251  0.35925  0.50167  1.0000
  C   C228      1.0  0.08601  0.51944  0.00230  1.0000
  Fe  Fe33      1.0  0.02855  0.55846  0.93461  1.0000
  S   S72       1.0  0.04543  0.57307  0.89501  1.0000
  S   S73       1.0  0.00127  0.54642  0.93639  1.0000
  Fe  Fe34      1.0  0.05581  0.56186  0.98087  1.0000
  S   S74       1.0  0.07496  0.57681  0.94502  1.0000
  H   H231      1.0  0.13066  0.41280  0.82383  1.0000
  Fe  Fe35      1.0  0.05931  0.59103  0.93529  1.0000
  S   S75       1.0  0.06620  0.61949  0.93012  1.0000
  Fe  Fe36      1.0  0.05980  0.55785  0.90791  1.0000
  S   S76       1.0  0.07098  0.54369  0.87525  1.0000
  S   S77       1.0  0.04112  0.57731  0.97386  1.0000
  S   S78       1.0  0.04197  0.54209  0.94474  1.0000
  Fe  Fe37      1.0  0.12284  0.39308  0.71291  1.0000
  S   S79       1.0  0.12127  0.37014  0.68370  1.0000
  S   S80       1.0  0.11468  0.41326  0.69344  1.0000
  Fe  Fe38      1.0  0.14303  0.38620  0.76545  1.0000
  S   S81       1.0  0.14310  0.36305  0.74025  1.0000
  S   S82       1.0  0.15230  0.39507  0.81663  1.0000
  Fe  Fe39      1.0  0.14747  0.37743  0.69358  1.0000
  S   S83       1.0  0.16111  0.36888  0.65441  1.0000
  Fe  Fe40      1.0  0.11699  0.35673  0.73150  1.0000
  S   S84       1.0  0.10270  0.32863  0.72966  1.0000
  S   S85       1.0  0.14971  0.40148  0.71958  1.0000
  S   S86       1.0  0.11630  0.37900  0.76014  1.0000
  Fe  Fe41      1.0  0.01297  0.45454  0.68695  1.0000
  S   S87       1.0  0.03023  0.44802  0.65523  1.0000
  S   S88       1.0  0.98610  0.44113  0.69293  1.0000
  Fe  Fe42      1.0  0.03910  0.48618  0.71503  1.0000
  S   S89       1.0  0.05886  0.48232  0.68537  1.0000
  S   S90       1.0  0.03657  0.50744  0.74490  1.0000
  Fe  Fe43      1.0  0.04111  0.47565  0.64404  1.0000
  S   S91       1.0  0.04589  0.48308  0.59085  1.0000
  Fe  Fe44      1.0  0.04662  0.45485  0.69862  1.0000
  S   S92       1.0  0.05507  0.43506  0.71900  1.0000
  S   S93       1.0  0.02249  0.48131  0.67249  1.0000
  S   S94       1.0  0.02824  0.45955  0.73130  1.0000
  H   H232      1.0  0.09487  0.56055  0.99272  1.0000
  C   C229      1.0  0.99575  0.39084  0.63902  1.0000
  C   C230      1.0  0.21518  0.34333  0.61384  1.0000
  C   C231      1.0  0.16972  0.39393  0.83389  1.0000
  C   C232      1.0  0.17175  0.39579  0.86787  1.0000
  C   C233      1.0  0.18575  0.39578  0.88246  1.0000
  C   C234      1.0  0.10116  0.43993  0.77858  1.0000
  C   C235      1.0  0.11628  0.42511  0.80319  1.0000
  C   C236      1.0  0.18185  0.39201  0.81457  1.0000
  H   H233      1.0  0.16246  0.39735  0.88300  1.0000
  H   H234      1.0  0.18720  0.39737  0.90858  1.0000
  Fe  Fe45      1.0  0.21777  0.36466  0.98217  1.0000
  H   H235      1.0  0.18048  0.39065  0.78840  1.0000
  C   C237      1.0  0.19816  0.39924  0.57785  1.0000
  C   C238      1.0  0.19451  0.40748  0.60484  1.0000
  C   C239      1.0  0.18284  0.39847  0.62813  1.0000
  C   C240      1.0  0.17485  0.38110  0.62472  1.0000
  C   C241      1.0  0.17849  0.37288  0.59773  1.0000
  C   C242      1.0  0.19006  0.38189  0.57439  1.0000
  H   H236      1.0  0.20072  0.42091  0.60775  1.0000
  H   H237      1.0  0.18023  0.40491  0.64899  1.0000
  H   H238      1.0  0.17245  0.35942  0.59501  1.0000
  C   C243      1.0  0.97540  0.49744  0.79017  1.0000
  C   C244      1.0  0.07135  0.42872  0.71000  1.0000
  C   C245      1.0  0.07179  0.41455  0.72559  1.0000
  C   C246      1.0  0.08476  0.40943  0.72048  1.0000
  C   C247      1.0  0.09749  0.41842  0.69960  1.0000
  C   C248      1.0  0.09697  0.43250  0.68381  1.0000
  C   C249      1.0  0.08401  0.43762  0.68889  1.0000
  H   H239      1.0  0.06208  0.40753  0.74195  1.0000
  H   H240      1.0  0.08492  0.39857  0.73279  1.0000
  H   H241      1.0  0.10672  0.43956  0.66754  1.0000
  H   H242      1.0  0.08391  0.44853  0.67670  1.0000
  C   C250      1.0  0.04037  0.52934  0.54831  1.0000
  C   C251      1.0  0.03774  0.52600  0.58177  1.0000
  C   C252      1.0  0.03949  0.51196  0.59518  1.0000
  C   C253      1.0  0.04383  0.50107  0.57517  1.0000
  C   C254      1.0  0.04644  0.50440  0.54168  1.0000
  H   H243      1.0  0.14914  0.44051  0.73640  1.0000
  H   H244      1.0  0.03442  0.53436  0.59750  1.0000
  H   H245      1.0  0.03757  0.50964  0.62104  1.0000
  H   H246      1.0  0.20971  0.37917  0.62771  1.0000
  H   H247      1.0  0.20243  0.31988  0.63811  1.0000
  C   C255      1.0  0.06092  0.53308  0.83981  1.0000
  C   C256      1.0  0.06605  0.52150  0.82366  1.0000
  C   C257      1.0  0.05855  0.51324  0.79483  1.0000
  C   C258      1.0  0.04609  0.51680  0.78165  1.0000
  C   C259      1.0  0.04096  0.52835  0.79784  1.0000
  C   C260      1.0  0.04820  0.53631  0.82700  1.0000
  H   H248      1.0  0.07593  0.51899  0.83336  1.0000
  H   H249      1.0  0.06265  0.50443  0.78246  1.0000
  H   H250      1.0  0.03151  0.53136  0.78748  1.0000
  H   H251      1.0  0.04426  0.54531  0.83905  1.0000
  C   C261      1.0  0.08300  0.63752  0.94392  1.0000
  H   H252      1.0  0.99115  0.51005  0.84516  1.0000
  C   C262      1.0  0.17212  0.41312  0.54446  1.0000
  C   C263      1.0  0.09647  0.63633  0.95816  1.0000
  H   H253      1.0  0.97139  0.38728  0.65196  1.0000
  C   C264      1.0  0.04476  0.51849  0.52827  1.0000
  H   H254      1.0  0.00927  0.48190  0.60266  1.0000
  H   H255      1.0  0.10070  0.58361  0.51208  1.0000
  C   C265      1.0  0.98317  0.42621  0.63215  1.0000
  H   H256      1.0  0.11585  0.32950  0.65955  1.0000
  H   H257      1.0  0.09069  0.56265  0.55785  1.0000
  H   H258      1.0  0.12544  0.44803  0.73512  1.0000
  C   C266      1.0  0.16151  0.38419  0.52311  1.0000
  H   H259      1.0  0.99614  0.43147  0.63082  1.0000
  H   H260      1.0  0.19717  0.34601  0.53934  1.0000
  H   H261      1.0  0.98044  0.41347  0.58549  1.0000
  C   C267      1.0  0.98889  0.53982  0.90181  1.0000
  C   C268      1.0  0.99470  0.54528  0.87052  1.0000
  H   H262      1.0  0.19028  0.36146  0.66829  1.0000
  H   H263      1.0  0.05052  0.52377  0.99922  1.0000
  H   H264      1.0  0.00729  0.55299  0.86684  1.0000
  H   H265      1.0  0.00711  0.46962  0.56633  1.0000
  C   C269      1.0  0.20885  0.32866  0.53296  1.0000
  C   C270      1.0  0.14167  0.42658  0.78080  1.0000
  S   S95       1.0  0.21649  0.39567  0.87995  1.0000
  H   H266      1.0  0.07402  0.55314  0.53026  1.0000
  C   C271      1.0  0.97251  0.52980  0.90626  1.0000
  H   H267      1.0  0.18460  0.42240  0.54831  1.0000
  H   H268      1.0  0.08637  0.33672  0.78570  1.0000
  C   C272      1.0  0.09280  0.60399  0.51098  1.0000
  H   H269      1.0  0.00177  0.42368  0.73596  1.0000
  H   H270      1.0  0.03316  0.60782  0.94727  1.0000
  C   C273      1.0  0.08111  0.60985  0.52140  1.0000
  C   C274      1.0  1.00000  0.58443  0.88542  1.0000
  H   H271      1.0  0.08985  0.42906  0.78409  1.0000
  C   C275      1.0  0.19676  0.33371  0.54484  1.0000
  H   H272      1.0  0.09959  0.44455  0.75432  1.0000
  C   C276      1.0  0.01496  0.59553  0.87430  1.0000
  H   H273      1.0  0.00849  0.46082  0.60501  1.0000
  H   H274      1.0  0.01588  0.59554  0.99090  1.0000
  C   C277      1.0  0.01554  0.40526  0.67969  1.0000
  H   H275      1.0  0.17578  0.32750  0.57606  1.0000
  H   H276      1.0  0.04686  0.52093  0.50248  1.0000
  H   H277      1.0  0.19265  0.37535  0.55380  1.0000
  H   H278      1.0  0.20546  0.39123  0.81388  1.0000
  C   C278      1.0  0.19804  0.39427  0.86307  1.0000
  N   N21       1.0  0.98600  0.46246  0.59684  1.0000
  N   N22       1.0  0.99058  0.49899  0.79799  1.0000
  C   C279      1.0  0.99792  0.49013  0.78086  1.0000
  S   S96       1.0  0.20831  0.33641  0.98427  1.0000
  C   C280      1.0  0.98989  0.47908  0.75561  1.0000
  C   C281      1.0  0.97429  0.47719  0.74788  1.0000
  N   N23       1.0  0.07965  0.57879  0.54139  1.0000
  C   C282      1.0  0.99923  0.51082  0.82388  1.0000
  C   C283      1.0  0.08119  0.51356  0.97059  1.0000
  C   C284      1.0  0.06809  0.58443  0.55164  1.0000
  N   N24       1.0  0.17195  0.40051  0.51984  1.0000
  N   N25       1.0  0.21701  0.35969  0.61079  1.0000
  H   H279      1.0  0.07700  0.50029  0.96476  1.0000
  C   C285      1.0  0.98809  0.40022  0.69003  1.0000
  C   C286      1.0  0.00779  0.41476  0.73181  1.0000
  H   H280      1.0  0.00390  0.40512  0.75102  1.0000
  N   N26       1.0  0.00379  0.40674  0.69956  1.0000
  H   H281      1.0  0.02114  0.39657  0.63314  1.0000
  C   C287      1.0  0.01173  0.39743  0.64902  1.0000
  H   H282      1.0  0.02799  0.41031  0.68728  1.0000
  H   H283      1.0  0.10285  0.45004  0.79698  1.0000
  H   H284      1.0  0.10696  0.42051  0.82175  1.0000
  C   C288      1.0  0.19601  0.39237  0.82909  1.0000
  N   N27       1.0  0.11493  0.43493  0.77864  1.0000
  C   C289      1.0  0.12965  0.42077  0.80462  1.0000
  C   C290      1.0  0.12667  0.44064  0.75513  1.0000
  H   H285      1.0  0.15205  0.42320  0.78155  1.0000
  H   H286      1.0  0.13511  0.33494  0.63990  1.0000
  C   C291      1.0  0.14015  0.43646  0.75574  1.0000
  C   C292      1.0  0.10958  0.65098  0.96797  1.0000
  C   C293      1.0  0.06861  0.60000  0.54173  1.0000
  S   S97       1.0  0.20162  0.37799  0.97099  1.0000
  C   C294      1.0  0.98382  0.39210  0.65974  1.0000
  S   S98       1.0  0.03854  0.54748  0.53287  1.0000
  H   H287      1.0  0.07044  0.55730  0.57208  1.0000
  C   C295      1.0  0.00594  0.58691  0.97567  1.0000
  C   C296      1.0  0.09128  0.54735  0.98658  1.0000
  H   H288      1.0  0.09686  0.62413  0.96142  1.0000
  H   H289      1.0  0.00388  0.52381  0.81451  1.0000
  H   H290      1.0  0.99261  0.38489  0.61518  1.0000
  C   C297      1.0  0.02371  0.60128  0.93008  1.0000
  H   H291      1.0  0.99581  0.47214  0.74201  1.0000
  C   C298      1.0  0.97626  0.45186  0.57385  1.0000
  H   H292      1.0  0.00958  0.50823  0.83281  1.0000
  H   H293      1.0  0.97882  0.40161  0.70559  1.0000
  C   C299      1.0  0.97953  0.46631  0.62478  1.0000
  H   H294      1.0  0.11993  0.64982  0.97874  1.0000
  H   H295      1.0  0.99070  0.57745  0.86822  1.0000
  H   H296      1.0  0.08739  0.55081  0.93590  1.0000
  C   C300      1.0  0.20839  0.36625  0.63036  1.0000
  H   H297      1.0  0.05927  0.60428  0.54943  1.0000
  C   C301      1.0  0.19739  0.35629  0.65340  1.0000
  C   C302      1.0  0.08687  0.54192  0.95454  1.0000
  C   C303      1.0  0.97525  0.42914  0.65974  1.0000
  H   H298      1.0  0.01007  0.49160  0.78656  1.0000
  C   C304      1.0  0.98402  0.54136  0.84418  1.0000
  H   H299      1.0  0.01739  0.59735  0.84836  1.0000
  C   C305      1.0  0.07871  0.56220  0.55088  1.0000
  C   C306      1.0  0.20430  0.33302  0.63666  1.0000
  H   H300      1.0  0.98729  0.47412  0.64365  1.0000
  H   H301      1.0  0.02093  0.42204  0.73428  1.0000
  H   H302      1.0  0.16761  0.40731  0.56850  1.0000
  H   H303      1.0  0.98847  0.54609  0.82020  1.0000
  N   N28       1.0  0.00904  0.59025  0.94077  1.0000
  H   H304      1.0  0.13372  0.33723  0.68358  1.0000
  H   H305      1.0  0.15393  0.38030  0.54471  1.0000
  C   C307      1.0  0.09180  0.58826  0.52099  1.0000
  H   H306      1.0  0.03868  0.61257  0.88844  1.0000
  H   H307      1.0  0.05822  0.57677  0.56718  1.0000
  C   C308      1.0  0.18460  0.32317  0.56558  1.0000
  H   H308      1.0  0.00470  0.57388  0.98067  1.0000
  C   C309      1.0  0.02690  0.60407  0.89674  1.0000
  C   C310      1.0  0.00351  0.46896  0.59250  1.0000
  S   S99       1.0  0.21230  0.41109  0.54825  1.0000
  C   C311      1.0  0.19529  0.33954  0.65638  1.0000
  H   H309      1.0  0.07783  0.52065  0.92187  1.0000
  H   H310      1.0  0.06749  0.31835  0.82690  1.0000
  C   C312      1.0  0.08162  0.52492  0.94660  1.0000
  H   H311      1.0  0.16452  0.41976  0.53652  1.0000
  H   H312      1.0  0.04982  0.49606  0.52601  1.0000
  H   H313      1.0  0.98585  0.57263  0.92733  1.0000
  H   H314      1.0  0.99469  0.58837  0.98334  1.0000
  C   C313      1.0  0.12800  0.32926  0.66209  1.0000
  H   H315      1.0  0.18655  0.33156  0.67361  1.0000
  C   C314      1.0  0.97427  0.41596  0.60658  1.0000
  C   C315      1.0  0.99727  0.58185  0.91893  1.0000
  C   C316      1.0  0.08389  0.32345  0.78576  1.0000
  H   H316      1.0  0.98137  0.44818  0.55239  1.0000
  H   H317      1.0  0.08165  0.62192  0.51335  1.0000
  H   H318      1.0  0.21979  0.37058  0.56428  1.0000
  Fe  Fe46      1.0  0.14924  0.90745  0.36540  1.0000
  S   S100      1.0  0.15728  0.88857  0.38808  1.0000
  S   S101      1.0  0.15559  0.93318  0.39047  1.0000
  Fe  Fe47      1.0  0.13092  0.88228  0.31186  1.0000
  S   S102      1.0  0.13821  0.86202  0.32983  1.0000
  S   S103      1.0  0.11503  0.87957  0.26784  1.0000
  Fe  Fe48      1.0  0.13238  0.86941  0.37995  1.0000
  S   S104      1.0  0.12026  0.84655  0.41184  1.0000
  Fe  Fe49      1.0  0.16246  0.88253  0.33671  1.0000
  S   S105      1.0  0.18602  0.87934  0.33178  1.0000
  S   S106      1.0  0.12352  0.88858  0.36156  1.0000
  S   S107      1.0  0.15598  0.90252  0.31432  1.0000
  Fe  Fe50      1.0  0.06554  0.82979  0.07860  1.0000
  S   S108      1.0  0.07656  0.81287  0.09861  1.0000
  S   S109      1.0  0.08523  0.85274  0.05674  1.0000
  Fe  Fe51      1.0  0.03135  0.80614  0.10201  1.0000
  S   S110      1.0  0.04063  0.78809  0.12364  1.0000
  S   S111      1.0  0.00436  0.80021  0.09618  1.0000
  Fe  Fe52      1.0  0.06102  0.81123  0.14277  1.0000
  S   S112      1.0  0.07255  0.81222  0.19218  1.0000
  Fe  Fe53      1.0  0.05548  0.79182  0.07771  1.0000
  S   S113      1.0  0.05622  0.77130  0.04362  1.0000
  S   S114      1.0  0.05084  0.82927  0.12419  1.0000
  S   S115      1.0  0.04538  0.80876  0.05472  1.0000
  Fe  Fe54      1.0  0.12310  0.71068  0.46740  1.0000
  S   S116      1.0  0.12364  0.72953  0.42995  1.0000
  H   H319      1.0  0.07186  0.65608  0.47229  1.0000
  H   H320      1.0  0.20915  0.79263  0.38875  1.0000
  S   S117      1.0  0.15542  0.75732  0.46626  1.0000
  C   C317      1.0  0.14816  0.81318  0.38825  1.0000
  Fe  Fe55      1.0  0.12860  0.74826  0.47096  1.0000
  N   N29       1.0  0.20140  0.74624  0.31135  1.0000
  Fe  Fe56      1.0  0.15041  0.73718  0.42767  1.0000
  S   S118      1.0  0.16067  0.74117  0.37592  1.0000
  C   C318      1.0  0.17207  0.96694  0.40358  1.0000
  S   S119      1.0  0.14974  0.71697  0.46249  1.0000
  C   C319      1.0  0.19582  0.94944  0.43707  1.0000
  C   C320      1.0  0.01162  0.75454  0.07483  1.0000
  N   N30       1.0  0.00330  0.76043  0.05431  1.0000
  S   S120      1.0  0.20381  0.80575  0.23592  1.0000
  C   C321      1.0  0.17536  0.76042  0.36294  1.0000
  C   C322      1.0  0.18681  0.77109  0.38437  1.0000
  C   C323      1.0  0.20002  0.78477  0.37217  1.0000
  C   C324      1.0  0.20185  0.78788  0.33855  1.0000
  C   C325      1.0  0.18992  0.77777  0.31737  1.0000
  C   C326      1.0  0.17672  0.76412  0.32957  1.0000
  H   H321      1.0  0.18592  0.76833  0.41012  1.0000
  H   H322      1.0  0.21240  0.76265  0.23623  1.0000
  H   H323      1.0  0.19111  0.78011  0.29146  1.0000
  H   H324      1.0  0.16780  0.75601  0.31289  1.0000
  C   C327      1.0  0.19155  0.76178  0.06647  1.0000
  C   C328      1.0  0.20531  0.77511  0.07776  1.0000
  C   C329      1.0  0.20804  0.77825  0.11143  1.0000
  C   C330      1.0  0.19723  0.76776  0.13409  1.0000
  C   C331      1.0  0.18369  0.75418  0.12280  1.0000
  C   C332      1.0  0.18076  0.75130  0.08915  1.0000
  C   C333      1.0  0.20509  0.75466  0.25533  1.0000
  H   H325      1.0  0.17536  0.74589  0.14014  1.0000
  H   H326      1.0  0.17027  0.74084  0.08075  1.0000
  C   C334      1.0  0.09750  0.86011  0.48714  1.0000
  C   C335      1.0  0.09698  0.66476  0.45916  1.0000
  H   H327      1.0  0.12113  0.66904  0.44380  1.0000
  C   C336      1.0  0.98672  0.78441  0.11299  1.0000
  C   C337      1.0  0.98727  0.77386  0.13793  1.0000
  H   H328      1.0  0.15238  0.86929  0.20510  1.0000
  H   H329      1.0  0.99875  0.77537  0.14800  1.0000
  H   H330      1.0  0.19734  0.81132  0.06389  1.0000
  C   C338      1.0  0.07396  0.76741  0.04413  1.0000
  Fe  Fe57      1.0  0.15272  0.73686  0.50163  1.0000
  H   H331      1.0  0.18765  0.92006  0.35337  1.0000
  H   H332      1.0  0.14166  0.76994  0.10148  1.0000
  C   C339      1.0  0.01184  0.77282  0.02961  1.0000
  C   C340      1.0  0.08514  0.77425  0.06884  1.0000
  C   C341      1.0  0.09132  0.75460  0.01928  1.0000
  C   C342      1.0  0.09929  0.77119  0.06894  1.0000
  S   S121      1.0  0.20005  0.77116  0.17667  1.0000
  H   H333      1.0  0.08277  0.78161  0.08832  1.0000
  C   C343      1.0  0.19937  0.85537  0.24118  1.0000
  C   C344      1.0  0.20831  0.85816  0.26971  1.0000
  C   C345      1.0  0.20413  0.86565  0.29714  1.0000
  C   C346      1.0  0.19080  0.87014  0.29650  1.0000
  C   C347      1.0  0.18161  0.86708  0.26823  1.0000
  C   C348      1.0  0.18602  0.85988  0.24047  1.0000
  H   H334      1.0  0.09560  0.78417  0.48173  1.0000
  C   C349      1.0  0.00353  0.74292  0.09880  1.0000
  H   H335      1.0  0.17132  0.87052  0.26757  1.0000
  C   C350      1.0  0.10249  0.86053  0.24868  1.0000
  C   C351      1.0  0.09293  0.86114  0.22249  1.0000
  C   C352      1.0  0.08349  0.84644  0.20531  1.0000
  C   C353      1.0  0.08347  0.83094  0.21426  1.0000
  C   C354      1.0  0.09277  0.83028  0.24093  1.0000
  C   C355      1.0  0.10228  0.84500  0.25802  1.0000
  H   H336      1.0  0.09296  0.87308  0.21516  1.0000
  H   H337      1.0  0.07632  0.84712  0.18499  1.0000
  H   H338      1.0  0.09277  0.81832  0.24807  1.0000
  H   H339      1.0  0.10957  0.84432  0.27811  1.0000
  C   C356      1.0  0.10896  0.84642  0.44765  1.0000
  C   C357      1.0  0.10118  0.83126  0.46416  1.0000
  C   C358      1.0  0.10240  0.76132  0.04430  1.0000
  H   H340      1.0  0.18520  0.82891  0.29892  1.0000
  H   H341      1.0  0.20804  0.92128  0.35285  1.0000
  C   C359      1.0  0.10710  0.86086  0.45929  1.0000
  H   H342      1.0  0.16857  0.72333  0.26742  1.0000
  C   C360      1.0  0.18050  0.73251  0.27270  1.0000
  S   S122      1.0  0.14122  0.72777  0.02723  1.0000
  H   H343      1.0  0.11301  0.87260  0.44679  1.0000
  C   C361      1.0  0.18180  0.95623  0.35665  1.0000
  C   C362      1.0  0.17066  0.95345  0.38230  1.0000
  H   H344      1.0  0.07375  0.71858  0.44002  1.0000
  H   H345      1.0  0.18082  0.94610  0.33983  1.0000
  C   C363      1.0  0.19258  0.93522  0.41710  1.0000
  H   H346      1.0  0.15143  0.75684  0.11671  1.0000
  S   S123      1.0  0.12028  0.75783  0.04629  1.0000
  C   C364      1.0  0.98684  0.73728  0.10157  1.0000
  C   C365      1.0  0.21072  0.75626  0.28728  1.0000
  C   C366      1.0  0.11067  0.84141  0.15443  1.0000
  H   H347      1.0  0.12447  0.83765  0.19316  1.0000
  C   C367      1.0  0.18680  0.82229  0.32066  1.0000
  H   H348      1.0  0.10243  0.81999  0.45512  1.0000
  C   C368      1.0  0.15244  0.76678  0.09913  1.0000
  C   C369      1.0  0.15450  0.80099  0.38242  1.0000
  C   C370      1.0  0.10904  0.65979  0.44680  1.0000
  H   H349      1.0  0.09791  0.84903  0.11837  1.0000
  C   C371      1.0  0.18655  0.73431  0.30435  1.0000
  C   C372      1.0  0.08132  0.65244  0.46285  1.0000
  H   H350      1.0  0.17905  0.72652  0.32355  1.0000
  N   N31       1.0  0.07329  0.84868  0.40446  1.0000
  C   C373      1.0  0.08066  0.83895  0.39066  1.0000
  C   C374      1.0  0.07302  0.86222  0.38828  1.0000
  C   C375      1.0  0.08807  0.84272  0.35992  1.0000
  C   C376      1.0  0.08022  0.86629  0.35740  1.0000
  C   C377      1.0  0.08772  0.85641  0.34314  1.0000
  C   C378      1.0  0.06510  0.84437  0.43622  1.0000
  H   H351      1.0  0.08116  0.82837  0.40361  1.0000
  H   H352      1.0  0.06725  0.86999  0.39929  1.0000
  H   H353      1.0  0.09426  0.83523  0.34945  1.0000
  H   H354      1.0  0.08016  0.87713  0.34466  1.0000
  H   H355      1.0  0.09347  0.85954  0.31936  1.0000
  H   H356      1.0  0.06890  0.85555  0.45276  1.0000
  H   H357      1.0  0.05188  0.83955  0.43315  1.0000
  H   H358      1.0  0.06800  0.83464  0.44872  1.0000
  N   N32       1.0  0.16702  0.78179  0.10489  1.0000
  C   C379      1.0  0.17117  0.78741  0.13617  1.0000
  C   C380      1.0  0.17610  0.79038  0.07910  1.0000
  C   C381      1.0  0.18484  0.80190  0.14230  1.0000
  C   C382      1.0  0.18990  0.80487  0.08436  1.0000
  C   C383      1.0  0.19427  0.81064  0.11620  1.0000
  H   H359      1.0  0.08856  0.71172  0.45531  1.0000
  H   H360      1.0  0.11337  0.87327  0.02104  1.0000
  H   H361      1.0  0.20505  0.82173  0.12077  1.0000
  H   H362      1.0  0.01178  0.78524  0.03696  1.0000
  H   H363      1.0  0.16350  0.96501  0.42343  1.0000
  S   S124      1.0  0.18824  0.75880  0.02396  1.0000
  H   H364      1.0  0.00597  0.76906  0.00557  1.0000
  Fe  Fe58      1.0  0.21687  0.79568  0.19974  1.0000
  H   H365      1.0  0.19832  0.83009  0.33252  1.0000
  H   H366      1.0  0.06687  0.73942  0.47822  1.0000
  H   H367      1.0  0.13823  0.81087  0.40538  1.0000
  H   H368      1.0  0.17250  0.84305  0.33747  1.0000
  H   H369      1.0  0.98041  0.72850  0.12041  1.0000
  H   H370      1.0  0.14994  0.83804  0.37662  1.0000
  C   C384      1.0  0.07706  0.75760  0.01930  1.0000
  N   N33       1.0  0.20216  0.93563  0.39061  1.0000
  C   C385      1.0  0.97847  0.74339  0.08059  1.0000
  H   H371      1.0  0.18829  0.80617  0.16715  1.0000
  C   C386      1.0  0.21496  0.95005  0.38306  1.0000
  C   C387      1.0  0.19449  0.97208  0.35319  1.0000
  H   H372      1.0  0.13651  0.86026  0.23516  1.0000
  C   C388      1.0  0.08847  0.85714  0.01456  1.0000
  H   H373      1.0  0.18191  0.92409  0.42207  1.0000
  H   H374      1.0  0.14958  0.78912  0.39508  1.0000
  C   C389      1.0  0.97295  0.76131  0.14986  1.0000
  C   C390      1.0  0.16725  0.80418  0.36012  1.0000
  H   H375      1.0  0.15249  0.76134  0.07430  1.0000
  H   H376      1.0  0.02459  0.75888  0.07293  1.0000
  N   N34       1.0  0.12875  0.86352  0.18805  1.0000
  H   H377      1.0  0.17908  0.85777  0.21843  1.0000
  C   C391      1.0  0.12179  0.84687  0.17969  1.0000
  H   H378      1.0  0.10778  0.77632  0.08844  1.0000
  C   C392      1.0  0.14060  0.86893  0.21424  1.0000
  H   H379      1.0  0.13041  0.88826  0.17832  1.0000
  H   H380      1.0  0.21859  0.78864  0.11980  1.0000
  S   S125      1.0  0.11680  0.76701  0.47036  1.0000
  C   C393      1.0  0.18473  0.98283  0.40003  1.0000
  H   H381      1.0  0.14218  0.88155  0.22405  1.0000
  H   H382      1.0  0.16410  0.78048  0.15663  1.0000
  H   H383      1.0  0.11083  0.87916  0.13319  1.0000
  C   C394      1.0  0.20762  0.74794  0.34457  1.0000
  C   C395      1.0  0.15470  0.82840  0.37202  1.0000
  C   C396      1.0  0.16743  0.83115  0.34985  1.0000
  H   H384      1.0  0.18537  0.74169  0.22339  1.0000
  H   H385      1.0  0.01022  0.73848  0.11529  1.0000
  C   C397      1.0  0.19786  0.92087  0.36895  1.0000
  H   H386      1.0  0.18775  0.94926  0.45712  1.0000
  H   H387      1.0  0.19425  0.90918  0.38325  1.0000
  N   N35       1.0  0.17337  0.81902  0.34380  1.0000
  C   C398      1.0  0.12507  0.87510  0.17147  1.0000
  C   C399      1.0  0.11401  0.87006  0.14600  1.0000
  H   H388      1.0  0.10466  0.82813  0.14878  1.0000
  N   N36       1.0  0.07733  0.72217  0.49114  1.0000
  S   S126      1.0  0.10072  0.68600  0.47078  1.0000
  C   C400      1.0  0.10677  0.85311  0.13754  1.0000
  S   S127      1.0  0.20481  0.84641  0.20626  1.0000
  H   H389      1.0  0.19766  0.74354  0.36292  1.0000
  H   H390      1.0  0.21516  0.74051  0.34687  1.0000
  H   H391      1.0  0.17298  0.78574  0.05430  1.0000
  C   C401      1.0  0.98697  0.75519  0.05723  1.0000
  C   C402      1.0  0.10378  0.86796  0.00366  1.0000
  H   H392      1.0  0.97359  0.75324  0.16907  1.0000
  H   H393      1.0  0.18773  0.81051  0.31158  1.0000
  C   C403      1.0  0.08351  0.72154  0.45806  1.0000
  H   H394      1.0  0.20325  0.97393  0.33374  1.0000
  H   H395      1.0  0.17215  0.79468  0.35590  1.0000
  H   H396      1.0  0.98048  0.76041  0.04189  1.0000
  H   H397      1.0  0.02454  0.77413  0.02649  1.0000
  C   C404      1.0  0.08638  0.81017  0.01206  1.0000
  H   H398      1.0  0.21130  0.86801  0.31892  1.0000
  C   C405      1.0  0.18987  0.74278  0.24808  1.0000
  C   C406      1.0  0.97161  0.78224  0.10041  1.0000
  Fe  Fe59      1.0  0.12980  0.74465  0.00818  1.0000
  H   H399      1.0  0.09602  0.87132  0.49588  1.0000
  H   H400      1.0  0.21489  0.76130  0.35070  1.0000
  H   H401      1.0  0.08894  0.80444  0.03411  1.0000
  H   H402      1.0  0.21381  0.78317  0.06036  1.0000
  H   H403      1.0  0.09315  0.73383  0.45216  1.0000
  H   H404      1.0  0.08584  0.82231  0.01997  1.0000
  H   H405      1.0  0.97099  0.79034  0.08122  1.0000
  C   C407      1.0  0.20886  0.96418  0.42960  1.0000
  H   H406      1.0  0.21868  0.85487  0.27045  1.0000
  C   C408      1.0  0.09155  0.83051  0.49202  1.0000
  S   S128      1.0  0.21946  0.80399  0.32387  1.0000
  H   H407      1.0  0.21104  0.97555  0.44384  1.0000
  C   C409      1.0  0.06881  0.73200  0.49740  1.0000
  Fe  Fe60      1.0  0.21926  0.83087  0.21658  1.0000
  C   C410      1.0  0.21854  0.96451  0.40250  1.0000
  Fe  Fe61      1.0  0.16352  0.74507  0.00207  1.0000
  H   H408      1.0  0.07443  0.80179  0.00270  1.0000
  Fe  Fe62      1.0  0.15282  0.91252  0.85991  1.0000
  S   S129      1.0  0.14679  0.89151  0.89650  1.0000
  S   S130      1.0  0.17393  0.93792  0.86853  1.0000
  Fe  Fe63      1.0  0.13076  0.88856  0.80799  1.0000
  S   S131      1.0  0.12352  0.86657  0.84064  1.0000
  S   S132      1.0  0.12292  0.88572  0.75507  1.0000
  Fe  Fe64      1.0  0.12122  0.88387  0.88009  1.0000
  S   S133      1.0  0.09714  0.87154  0.90633  1.0000
  Fe  Fe65      1.0  0.14942  0.87583  0.85402  1.0000
  S   S134      1.0  0.15916  0.85538  0.85512  1.0000
  S   S135      1.0  0.12688  0.90582  0.84618  1.0000
  S   S136      1.0  0.15702  0.89688  0.81863  1.0000
  Fe  Fe66      1.0  0.06463  0.82260  0.57087  1.0000
  S   S137      1.0  0.07942  0.81642  0.60791  1.0000
  C   C411      1.0  0.19224  0.97192  0.86824  1.0000
  Fe  Fe67      1.0  0.03261  0.79576  0.59567  1.0000
  S   S138      1.0  0.04530  0.78759  0.63418  1.0000
  S   S139      1.0  0.00599  0.78222  0.58172  1.0000
  Fe  Fe68      1.0  0.05990  0.81507  0.64367  1.0000
  S   S140      1.0  0.06496  0.82326  0.69699  1.0000
  Fe  Fe69      1.0  0.06395  0.78968  0.59567  1.0000
  S   S141      1.0  0.07483  0.77015  0.59341  1.0000
  S   S142      1.0  0.04589  0.82328  0.60772  1.0000
  S   S143      1.0  0.05050  0.79584  0.55598  1.0000
  Fe  Fe70      1.0  0.13438  0.71381  0.97892  1.0000
  S   S144      1.0  0.12120  0.72957  0.96172  1.0000
  S   S145      1.0  0.12668  0.68508  0.97599  1.0000
  H   H409      1.0  0.15492  0.83201  0.74671  1.0000
  S   S146      1.0  0.15247  0.76255  0.98532  1.0000
  S   S147      1.0  0.16853  0.73981  0.54588  1.0000
  C   C412      1.0  0.09562  0.77734  0.50350  1.0000
  H   H410      1.0  0.11759  0.83858  0.92530  1.0000
  Fe  Fe71      1.0  0.14525  0.74640  0.94045  1.0000
  S   S148      1.0  0.14644  0.75862  0.89122  1.0000
  H   H411      1.0  0.12246  0.79347  0.95573  1.0000
  S   S149      1.0  0.15804  0.73000  0.95498  1.0000
  H   H412      1.0  0.11299  0.70663  0.85154  1.0000
  H   H413      1.0  0.17329  0.72705  0.85661  1.0000
  C   C413      1.0  0.16220  0.71853  0.86774  1.0000
  S   S150      1.0  0.19766  0.81208  0.73109  1.0000
  C   C414      1.0  0.16395  0.76619  0.86618  1.0000
  C   C415      1.0  0.17760  0.76306  0.87327  1.0000
  C   C416      1.0  0.19091  0.76833  0.85173  1.0000
  C   C417      1.0  0.19087  0.77705  0.82322  1.0000
  C   C418      1.0  0.17736  0.78053  0.81650  1.0000
  C   C419      1.0  0.16392  0.77499  0.83777  1.0000
  H   H414      1.0  0.17783  0.75638  0.89513  1.0000
  C   C420      1.0  0.14212  0.78689  0.54878  1.0000
  H   H415      1.0  0.17715  0.78721  0.79462  1.0000
  H   H416      1.0  0.15339  0.77743  0.83202  1.0000
  C   C421      1.0  0.17639  0.75814  0.57083  1.0000
  C   C422      1.0  0.18381  0.75755  0.60039  1.0000
  H   H417      1.0  0.13385  0.85957  0.77461  1.0000
  C   C423      1.0  0.18964  0.78705  0.61141  1.0000
  C   C424      1.0  0.18239  0.78769  0.58172  1.0000
  C   C425      1.0  0.17571  0.77331  0.56159  1.0000
  H   H418      1.0  0.18440  0.74587  0.60769  1.0000
  H   H419      1.0  0.18204  0.79943  0.57416  1.0000
  H   H420      1.0  0.17028  0.77398  0.53870  1.0000
  C   C426      1.0  0.09590  0.66825  0.95002  1.0000
  C   C427      1.0  0.10942  0.66705  0.96406  1.0000
  H   H421      1.0  0.09547  0.68045  0.94693  1.0000
  C   C428      1.0  0.98739  0.77546  0.60389  1.0000
  N   N37       1.0  0.13235  0.79704  0.55067  1.0000
  C   C429      1.0  0.98658  0.77749  0.63774  1.0000
  H   H422      1.0  0.06181  0.72527  0.57858  1.0000
  H   H423      1.0  0.99754  0.78362  0.65126  1.0000
  C   C430      1.0  0.08652  0.76967  0.55909  1.0000
  C   C431      1.0  0.09589  0.76004  0.55997  1.0000
  C   C432      1.0  0.12317  0.81667  0.52619  1.0000
  H   H424      1.0  0.13040  0.81787  0.91848  1.0000
  H   H425      1.0  0.20363  0.88496  0.78010  1.0000
  C   C433      1.0  0.08641  0.77838  0.53084  1.0000
  H   H426      1.0  0.09604  0.75334  0.58186  1.0000
  H   H427      1.0  0.08745  0.70585  0.51087  1.0000
  C   C434      1.0  0.07479  0.71426  0.54742  1.0000
  H   H428      1.0  0.07922  0.78586  0.53005  1.0000
  C   C435      1.0  0.19855  0.85851  0.78074  1.0000
  C   C436      1.0  0.18861  0.84303  0.79356  1.0000
  C   C437      1.0  0.17627  0.84211  0.81582  1.0000
  C   C438      1.0  0.17385  0.85663  0.82536  1.0000
  C   C439      1.0  0.18362  0.87202  0.81210  1.0000
  C   C440      1.0  0.19595  0.87295  0.78991  1.0000
  H   H429      1.0  0.19055  0.83182  0.78671  1.0000
  H   H430      1.0  0.16873  0.83014  0.82601  1.0000
  H   H431      1.0  0.18203  0.88332  0.81968  1.0000
  C   C441      1.0  0.10838  0.86711  0.73818  1.0000
  C   C442      1.0  0.10486  0.86645  0.70482  1.0000
  C   C443      1.0  0.09221  0.85257  0.69126  1.0000
  C   C444      1.0  0.08289  0.83928  0.71109  1.0000
  C   C445      1.0  0.08685  0.83965  0.74416  1.0000
  C   C446      1.0  0.09957  0.85343  0.75763  1.0000
  H   H432      1.0  0.11161  0.87696  0.68954  1.0000
  H   H433      1.0  0.08922  0.85250  0.66581  1.0000
  H   H434      1.0  0.07968  0.82943  0.75966  1.0000
  H   H435      1.0  0.10209  0.85371  0.78331  1.0000
  C   C447      1.0  0.09431  0.86587  0.94797  1.0000
  C   C448      1.0  0.07903  0.85493  0.95884  1.0000
  C   C449      1.0  0.10285  0.82576  0.96621  1.0000
  H   H436      1.0  0.19487  0.95723  0.94056  1.0000
  H   H437      1.0  0.11219  0.75151  0.53365  1.0000
  C   C450      1.0  0.10676  0.87216  0.97048  1.0000
  H   H438      1.0  0.17319  0.70354  0.89080  1.0000
  H   H439      1.0  0.05643  0.74112  0.53393  1.0000
  H   H440      1.0  0.07253  0.65476  0.92899  1.0000
  H   H441      1.0  0.11854  0.88065  0.96250  1.0000
  C   C451      1.0  0.10497  0.75890  0.53261  1.0000
  C   C452      1.0  0.17654  0.95947  0.86988  1.0000
  C   C453      1.0  0.16371  0.96454  0.87491  1.0000
  H   H442      1.0  0.20227  0.96818  0.86426  1.0000
  H   H443      1.0  0.15158  0.95519  0.87630  1.0000
  N   N38       1.0  0.13396  0.71059  0.87848  1.0000
  C   C454      1.0  0.08285  0.65361  0.93991  1.0000
  C   C455      1.0  0.13370  0.69732  0.89634  1.0000
  H   H444      1.0  0.19383  0.85208  0.88482  1.0000
  C   C456      1.0  0.97154  0.77159  0.65416  1.0000
  H   H445      1.0  0.12418  0.78987  0.59936  1.0000
  H   H446      1.0  0.07750  0.70751  0.56688  1.0000
  N   N39       1.0  0.21253  0.84925  0.85574  1.0000
  H   H447      1.0  0.12262  0.68894  0.90763  1.0000
  C   C457      1.0  0.14788  0.72091  0.86364  1.0000
  Fe  Fe72      1.0  0.21057  0.81023  0.68444  1.0000
  S   S151      1.0  0.12609  0.72918  0.50897  1.0000
  C   C458      1.0  0.11433  0.82795  0.94146  1.0000
  C   C459      1.0  0.16213  0.70534  0.88680  1.0000
  N   N40       1.0  0.07580  0.87006  0.78979  1.0000
  C   C460      1.0  0.06301  0.85499  0.78747  1.0000
  C   C461      1.0  0.08062  0.88035  0.76346  1.0000
  C   C462      1.0  0.05502  0.84966  0.75785  1.0000
  C   C463      1.0  0.07287  0.87542  0.73352  1.0000
  C   C464      1.0  0.06007  0.85992  0.73072  1.0000
  C   C465      1.0  0.08453  0.87532  0.82050  1.0000
  H   H448      1.0  0.05924  0.84677  0.80822  1.0000
  H   H449      1.0  0.09099  0.89213  0.76511  1.0000
  H   H450      1.0  0.04544  0.83734  0.75545  1.0000
  H   H451      1.0  0.07721  0.88325  0.71230  1.0000
  H   H452      1.0  0.05445  0.85554  0.70726  1.0000
  H   H453      1.0  0.08154  0.88534  0.83270  1.0000
  H   H454      1.0  0.08170  0.86478  0.83774  1.0000
  H   H455      1.0  0.09768  0.88015  0.81572  1.0000
  C   C466      1.0  0.12150  0.81633  0.93767  1.0000
  C   C467      1.0  0.06590  0.72408  0.55393  1.0000
  C   C468      1.0  0.19550  0.96979  0.94615  1.0000
  C   C469      1.0  0.19131  0.82640  0.88158  1.0000
  H   H456      1.0  0.14804  0.73126  0.84898  1.0000
  C   C470      1.0  0.10556  0.80092  0.98309  1.0000
  H   H457      1.0  0.09725  0.83475  0.96879  1.0000
  H   H458      1.0  0.97657  0.73905  0.62736  1.0000
  H   H459      1.0  0.12282  0.82405  0.50540  1.0000
  C   C471      1.0  0.21019  0.98358  0.94468  1.0000
  C   C472      1.0  0.19768  0.81522  0.86867  1.0000
  S   S152      1.0  0.07650  0.84445  0.53650  1.0000
  H   H460      1.0  0.06428  0.84220  0.99998  1.0000
  C   C473      1.0  0.07615  0.85042  0.99189  1.0000
  C   C474      1.0  0.14778  0.69459  0.90106  1.0000
  H   H461      1.0  0.09362  0.74692  0.00029  1.0000
  C   C475      1.0  0.19034  0.77191  0.62069  1.0000
  C   C476      1.0  0.11448  0.81697  0.55454  1.0000
  H   H462      1.0  0.14044  0.84453  0.79185  1.0000
  C   C477      1.0  0.16010  0.84501  0.73937  1.0000
  C   C478      1.0  0.17411  0.87842  0.72210  1.0000
  S   S153      1.0  0.20795  0.78325  0.79698  1.0000
  H   H463      1.0  0.10210  0.79024  0.99912  1.0000
  H   H464      1.0  0.10726  0.82451  0.55580  1.0000
  C   C479      1.0  0.11494  0.80733  0.58103  1.0000
  C   C480      1.0  0.17436  0.85065  0.72094  1.0000
  C   C481      1.0  0.11908  0.71328  0.87397  1.0000
  S   S154      1.0  0.19787  0.80567  0.63544  1.0000
  H   H465      1.0  0.18025  0.84218  0.71436  1.0000
  C   C482      1.0  0.18147  0.86750  0.71259  1.0000
  C   C483      1.0  0.12410  0.79749  0.57877  1.0000
  C   C484      1.0  0.13824  0.84953  0.76849  1.0000
  N   N41       1.0  0.15302  0.85581  0.74878  1.0000
  H   H466      1.0  0.20135  0.76567  0.85723  1.0000
  H   H467      1.0  0.06931  0.85006  0.94164  1.0000
  H   H468      1.0  0.19289  0.87212  0.69949  1.0000
  H   H469      1.0  0.12162  0.72687  0.87196  1.0000
  H   H470      1.0  0.12856  0.83953  0.75491  1.0000
  H   H471      1.0  0.14753  0.68441  0.91639  1.0000
  H   H472      1.0  0.19585  0.77121  0.64350  1.0000
  Fe  Fe73      1.0  0.21807  0.83694  0.73772  1.0000
  C   C485      1.0  0.15975  0.87231  0.74016  1.0000
  H   H473      1.0  0.16989  0.96186  0.95249  1.0000
  H   H474      1.0  0.15411  0.88090  0.74749  1.0000
  H   H475      1.0  0.17959  0.89158  0.71597  1.0000
  H   H476      1.0  0.10794  0.80713  0.60295  1.0000
  H   H477      1.0  0.06841  0.75225  0.00013  1.0000
  C   C486      1.0  0.16661  0.98172  0.87915  1.0000
  H   H478      1.0  0.19186  0.80193  0.87361  1.0000
  H   H479      1.0  0.11080  0.70867  0.89523  1.0000
  C   C487      1.0  0.06283  0.73297  0.52877  1.0000
  C   C488      1.0  0.08044  0.71343  0.51568  1.0000
  H   H480      1.0  0.08537  0.81871  0.50418  1.0000
  C   C489      1.0  0.10490  0.76759  0.50436  1.0000
  C   C490      1.0  0.21155  0.82121  0.84929  1.0000
  C   C491      1.0  0.19901  0.84351  0.87507  1.0000
  C   C492      1.0  0.13208  0.80655  0.52465  1.0000
  C   C493      1.0  0.21890  0.83838  0.84312  1.0000
  N   N42       1.0  0.09875  0.81250  0.98686  1.0000
  H   H481      1.0  0.97112  0.77325  0.68032  1.0000
  H   H482      1.0  0.18039  0.82180  0.89628  1.0000
  H   H483      1.0  0.13773  0.77632  0.56613  1.0000
  C   C494      1.0  0.11707  0.80268  0.95854  1.0000
  C   C495      1.0  0.97293  0.76743  0.58683  1.0000
  C   C496      1.0  0.18143  0.97239  0.95280  1.0000
  H   H484      1.0  0.97337  0.76581  0.56065  1.0000
  H   H485      1.0  0.14158  0.78121  0.52400  1.0000
  Fe  Fe74      1.0  0.21397  0.80183  0.75539  1.0000
  S   S155      1.0  0.21440  0.86036  0.75353  1.0000
  H   H486      1.0  0.13849  0.80606  0.50227  1.0000
  H   H487      1.0  0.21218  0.87368  0.85155  1.0000
  H   H488      1.0  0.15479  0.79480  0.55450  1.0000
  H   H489      1.0  0.21655  0.81258  0.83899  1.0000
  C   C497      1.0  0.08958  0.84494  0.50350  1.0000
  C   C498      1.0  0.42576  0.29750  0.35467  1.0000
  Fe  Fe75      1.0  0.25201  0.06384  0.39871  1.0000
  S   S156      1.0  0.23841  0.08020  0.41060  1.0000
  S   S157      1.0  0.27914  0.07480  0.39266  1.0000
  H   H490      1.0  0.31215  0.20298  0.08457  1.0000
  C   C499      1.0  0.40885  0.21377  0.42798  1.0000
  H   H491      1.0  0.34953  0.07270  0.43571  1.0000
  S   S158      1.0  0.23826  0.04331  0.43338  1.0000
  S   S159      1.0  0.23640  0.05099  0.35612  1.0000
  Fe  Fe76      1.0  0.24152  0.14616  0.20068  1.0000
  S   S160      1.0  0.25608  0.14185  0.15964  1.0000
  H   H492      1.0  0.27182  0.08248  0.45906  1.0000
  S   S161      1.0  0.23952  0.15961  0.11042  1.0000
  Fe  Fe77      1.0  0.23402  0.13371  0.12921  1.0000
  C   C500      1.0  0.24277  0.08945  0.23614  1.0000
  Fe  Fe78      1.0  0.26070  0.16786  0.14442  1.0000
  S   S162      1.0  0.28707  0.18123  0.13142  1.0000
  S   S163      1.0  0.24737  0.17298  0.18736  1.0000
  Fe  Fe79      1.0  0.44630  0.02917  0.05927  1.0000
  S   S164      1.0  0.44585  0.05132  0.08809  1.0000
  S   S165      1.0  0.42602  0.00365  0.05643  1.0000
  H   H493      1.0  0.23065  0.08359  0.05737  1.0000
  C   C501      1.0  0.22139  0.08794  0.01193  1.0000
  S   S166      1.0  0.44901  0.08587  0.01927  1.0000
  H   H494      1.0  0.38124  0.27769  0.33001  1.0000
  S   S167      1.0  0.36624  0.12074  0.46867  1.0000
  S   S168      1.0  0.45502  0.04364  0.01320  1.0000
  Fe  Fe80      1.0  0.36617  0.15105  0.03658  1.0000
  H   H495      1.0  0.22756  0.13068  0.41868  1.0000
  S   S169      1.0  0.35717  0.16160  0.08050  1.0000
  Fe  Fe81      1.0  0.38014  0.14825  0.45945  1.0000
  S   S170      1.0  0.38967  0.15833  0.40910  1.0000
  C   C502      1.0  0.40166  0.27292  0.34525  1.0000
  C   C503      1.0  0.34087  0.07301  0.45415  1.0000
  H   H496      1.0  0.32667  0.22211  0.12533  1.0000
  S   S171      1.0  0.35518  0.12301  0.03016  1.0000
  Fe  Fe82      1.0  0.38286  0.22854  0.29359  1.0000
  S   S172      1.0  0.37163  0.24732  0.28730  1.0000
  S   S173      1.0  0.38258  0.22170  0.34703  1.0000
  Fe  Fe83      1.0  0.38937  0.22792  0.22092  1.0000
  S   S174      1.0  0.37876  0.24679  0.20974  1.0000
  S   S175      1.0  0.40027  0.21782  0.17947  1.0000
  Fe  Fe84      1.0  0.39225  0.26120  0.25372  1.0000
  S   S176      1.0  0.40105  0.29000  0.25525  1.0000
  Fe  Fe85      1.0  0.35918  0.23173  0.24425  1.0000
  S   S177      1.0  0.33298  0.22761  0.23982  1.0000
  S   S178      1.0  0.40446  0.24340  0.26262  1.0000
  S   S179      1.0  0.36875  0.21181  0.25273  1.0000
  C   C504      1.0  0.41904  0.30754  0.26492  1.0000
  C   C505      1.0  0.43303  0.30586  0.27515  1.0000
  C   C506      1.0  0.32169  0.19806  0.07959  1.0000
  H   H497      1.0  0.32907  0.17702  0.25561  1.0000
  H   H498      1.0  0.43339  0.29353  0.27600  1.0000
  S   S180      1.0  0.24940  0.14012  0.24944  1.0000
  C   C507      1.0  0.36944  0.17718  0.10768  1.0000
  C   C508      1.0  0.38591  0.18569  0.10197  1.0000
  C   C509      1.0  0.39524  0.19801  0.12438  1.0000
  C   C510      1.0  0.38818  0.20201  0.15242  1.0000
  C   C511      1.0  0.37171  0.19346  0.15813  1.0000
  C   C512      1.0  0.36240  0.18107  0.13586  1.0000
  H   H499      1.0  0.39145  0.18280  0.08032  1.0000
  H   H500      1.0  0.40798  0.20461  0.11980  1.0000
  H   H501      1.0  0.36614  0.19646  0.17961  1.0000
  H   H502      1.0  0.34964  0.17457  0.14037  1.0000
  C   C513      1.0  0.38559  0.17446  0.39009  1.0000
  C   C514      1.0  0.39254  0.18015  0.35939  1.0000
  C   C515      1.0  0.39084  0.19397  0.34483  1.0000
  C   C516      1.0  0.38228  0.20234  0.36103  1.0000
  C   C517      1.0  0.37494  0.19634  0.39127  1.0000
  C   C518      1.0  0.37649  0.18241  0.40566  1.0000
  H   H503      1.0  0.39956  0.17405  0.34710  1.0000
  H   H504      1.0  0.39668  0.19854  0.32169  1.0000
  H   H505      1.0  0.36833  0.20275  0.40405  1.0000
  H   H506      1.0  0.37105  0.17817  0.42922  1.0000
  C   C519      1.0  0.43290  0.09257  0.02704  1.0000
  C   C520      1.0  0.41740  0.30753  0.34675  1.0000
  N   N43       1.0  0.41749  0.19464  0.45583  1.0000
  C   C521      1.0  0.40606  0.10198  0.03360  1.0000
  C   C522      1.0  0.40791  0.09015  0.05446  1.0000
  C   C523      1.0  0.42123  0.08546  0.05124  1.0000
  C   C524      1.0  0.41783  0.28008  0.35371  1.0000
  H   H507      1.0  0.32072  0.19759  0.28496  1.0000
  H   H508      1.0  0.39887  0.08438  0.07299  1.0000
  H   H509      1.0  0.42231  0.07614  0.06710  1.0000
  Fe  Fe86      1.0  0.45655  0.06635  0.04333  1.0000
  S   S181      1.0  0.39119  0.15338  0.02261  1.0000
  H   H510      1.0  0.44154  0.00831  0.11939  1.0000
  C   C525      1.0  0.29942  0.19313  0.16308  1.0000
  C   C526      1.0  0.29448  0.20354  0.18305  1.0000
  C   C527      1.0  0.30503  0.21423  0.20607  1.0000
  C   C528      1.0  0.32051  0.21441  0.20965  1.0000
  C   C529      1.0  0.32538  0.20372  0.19021  1.0000
  C   C530      1.0  0.31484  0.19311  0.16692  1.0000
  H   H511      1.0  0.28268  0.20375  0.18003  1.0000
  H   H512      1.0  0.30121  0.22251  0.22098  1.0000
  H   H513      1.0  0.33724  0.20365  0.19310  1.0000
  H   H514      1.0  0.31868  0.18494  0.15176  1.0000
  C   C531      1.0  0.43126  0.10474  0.00679  1.0000
  C   C532      1.0  0.40000  0.20587  0.48324  1.0000
  C   C533      1.0  0.36102  0.13276  0.13160  1.0000
  H   H515      1.0  0.38379  0.31020  0.34764  1.0000
  C   C534      1.0  0.41134  0.15499  0.11403  1.0000
  C   C535      1.0  0.40888  0.19575  0.48299  1.0000
  C   C536      1.0  0.23708  0.10396  0.31784  1.0000
  C   C537      1.0  0.24559  0.11802  0.29873  1.0000
  H   H516      1.0  0.39541  0.25937  0.34425  1.0000
  C   C538      1.0  0.41730  0.20323  0.42833  1.0000
  H   H517      1.0  0.28365  0.09995  0.01331  1.0000
  C   C539      1.0  0.22975  0.06482  0.27030  1.0000
  C   C540      1.0  0.33755  0.22046  0.11767  1.0000
  N   N44       1.0  0.26408  0.10742  0.00886  1.0000
  H   H518      1.0  0.25325  0.11091  0.20492  1.0000
  C   C541      1.0  0.29115  0.08757  0.42409  1.0000
  C   C542      1.0  0.30776  0.09594  0.41877  1.0000
  C   C543      1.0  0.31780  0.10540  0.44394  1.0000
  C   C544      1.0  0.31129  0.10644  0.47472  1.0000
  C   C545      1.0  0.29465  0.09827  0.47993  1.0000
  C   C546      1.0  0.28460  0.08891  0.45469  1.0000
  H   H519      1.0  0.31290  0.09498  0.39514  1.0000
  H   H520      1.0  0.33060  0.11164  0.43965  1.0000
  H   H521      1.0  0.41135  0.17368  0.14980  1.0000
  C   C547      1.0  0.40004  0.21496  0.45556  1.0000
  S   S182      1.0  0.36332  0.15645  0.48892  1.0000
  Fe  Fe87      1.0  0.38001  0.12540  0.01333  1.0000
  H   H522      1.0  0.30109  0.06463  0.46454  1.0000
  S   S183      1.0  0.23086  0.10948  0.10208  1.0000
  Fe  Fe88      1.0  0.22126  0.03142  0.39178  1.0000
  H   H523      1.0  0.40847  0.22029  0.40590  1.0000
  H   H524      1.0  0.26439  0.08294  0.00747  1.0000
  H   H525      1.0  0.42922  0.18109  0.48055  1.0000
  N   N45       1.0  0.29697  0.18767  0.26594  1.0000
  C   C548      1.0  0.31210  0.18798  0.26978  1.0000
  C   C549      1.0  0.28613  0.17563  0.24669  1.0000
  C   C550      1.0  0.29054  0.16388  0.22965  1.0000
  C   C551      1.0  0.30605  0.16434  0.23280  1.0000
  C   C552      1.0  0.29225  0.20003  0.28342  1.0000
  H   H526      1.0  0.27401  0.17512  0.24406  1.0000
  H   H527      1.0  0.28192  0.15455  0.21404  1.0000
  H   H528      1.0  0.30965  0.15541  0.21939  1.0000
  H   H529      1.0  0.28239  0.20201  0.27068  1.0000
  H   H530      1.0  0.28819  0.19569  0.30854  1.0000
  H   H531      1.0  0.30251  0.21242  0.28454  1.0000
  H   H532      1.0  0.42417  0.16075  0.10914  1.0000
  H   H533      1.0  0.37919  0.04748  0.04073  1.0000
  C   C553      1.0  0.31691  0.17641  0.25313  1.0000
  N   N46       1.0  0.22924  0.07583  0.24402  1.0000
  C   C554      1.0  0.38534  0.13325  0.10348  1.0000
  C   C555      1.0  0.22581  0.09142  0.04481  1.0000
  N   N47       1.0  0.40162  0.30037  0.33783  1.0000
  C   C556      1.0  0.39370  0.28332  0.33738  1.0000
  H   H534      1.0  0.26572  0.11917  0.05577  1.0000
  N   N48       1.0  0.37837  0.14057  0.12544  1.0000
  H   H535      1.0  0.35451  0.12795  0.10841  1.0000
  H   H536      1.0  0.43841  0.30324  0.36062  1.0000
  C   C557      1.0  0.23798  0.12272  0.27346  1.0000
  H   H537      1.0  0.32052  0.06342  0.42201  1.0000
  H   H538      1.0  0.25362  0.09263  0.25025  1.0000
  N   N49       1.0  0.33703  0.20875  0.09424  1.0000
  C   C558      1.0  0.35068  0.20638  0.08532  1.0000
  C   C559      1.0  0.35199  0.23002  0.13312  1.0000
  C   C560      1.0  0.36541  0.21611  0.09953  1.0000
  C   C561      1.0  0.36600  0.22780  0.12394  1.0000
  H   H539      1.0  0.35022  0.19674  0.06749  1.0000
  H   H540      1.0  0.35223  0.23886  0.15252  1.0000
  H   H541      1.0  0.37621  0.21418  0.09247  1.0000
  H   H542      1.0  0.37727  0.23490  0.13605  1.0000
  H   H543      1.0  0.39290  0.22255  0.45513  1.0000
  C   C562      1.0  0.38760  0.15468  0.14253  1.0000
  H   H544      1.0  0.40732  0.13459  0.07957  1.0000
  C   C563      1.0  0.40419  0.16220  0.13687  1.0000
  H   H545      1.0  0.43794  0.98880  0.16515  1.0000
  H   H546      1.0  0.25470  0.13948  0.03758  1.0000
  H   H547      1.0  0.37806  0.12192  0.09029  1.0000
  C   C564      1.0  0.22426  0.10511  0.06135  1.0000
  S   S184      1.0  0.38839  0.10643  0.03745  1.0000
  H   H548      1.0  0.35826  0.12228  0.14884  1.0000
  Fe  Fe89      1.0  0.22168  0.06571  0.37103  1.0000
  H   H549      1.0  0.25818  0.12522  0.30340  1.0000
  H   H550      1.0  0.35631  0.14201  0.14173  1.0000
  H   H551      1.0  0.24311  0.10037  0.33704  1.0000
  H   H552      1.0  0.42420  0.27211  0.35913  1.0000
  H   H553      1.0  0.41906  0.17144  0.44351  1.0000
  C   C565      1.0  0.32463  0.06773  0.44653  1.0000
  C   C566      1.0  0.26262  0.11910  0.03033  1.0000
  Fe  Fe90      1.0  0.22555  0.16273  0.15494  1.0000
  C   C567      1.0  0.22510  0.30940  0.02579  1.0000
  C   C568      1.0  0.40190  0.14035  0.09739  1.0000
  C   C569      1.0  0.43307  0.99544  0.11730  1.0000
  H   H554      1.0  0.38212  0.16050  0.16003  1.0000
  C   C570      1.0  0.42638  0.18360  0.45546  1.0000
  H   H555      1.0  0.32299  0.19716  0.05271  1.0000
  H   H556      1.0  0.41847  0.03145  0.02843  1.0000
  C   C571      1.0  0.41793  0.10939  0.00994  1.0000
  H   H557      1.0  0.23959  0.09568  0.47352  1.0000
  C   C572      1.0  0.41200  0.03902  0.02084  1.0000
  C   C573      1.0  0.23437  0.09746  0.49646  1.0000
  H   H558      1.0  0.38697  0.30648  0.30490  1.0000
  H   H559      1.0  0.42338  0.20163  0.40622  1.0000
  C   C574      1.0  0.31369  0.06836  0.47045  1.0000
  H   H560      1.0  0.31746  0.18527  0.08992  1.0000
  H   H561      1.0  0.22842  0.10402  0.17276  1.0000
  C   C575      1.0  0.34594  0.07899  0.48567  1.0000
  C   C576      1.0  0.27064  0.09536  0.01964  1.0000
  H   H562      1.0  0.24731  0.12425  0.49708  1.0000
  C   C577      1.0  0.25645  0.13070  0.02015  1.0000
  C   C578      1.0  0.38990  0.04791  0.02766  1.0000
  C   C579      1.0  0.24268  0.09980  0.21045  1.0000
  H   H563      1.0  0.23765  0.07215  0.29036  1.0000
  C   C580      1.0  0.31922  0.07469  0.50153  1.0000
  Fe  Fe91      1.0  0.22365  0.05903  0.44292  1.0000
  C   C581      1.0  0.22869  0.09604  0.19262  1.0000
  C   C582      1.0  0.39810  0.03810  0.03755  1.0000
  S   S185      1.0  0.39729  0.15129  0.50070  1.0000
  H   H564      1.0  0.26900  0.09334  0.04634  1.0000
  H   H565      1.0  0.39380  0.02986  0.05824  1.0000
  H   H566      1.0  0.23427  0.05534  0.26077  1.0000
  C   C583      1.0  0.42387  0.98995  0.08916  1.0000
  H   H567      1.0  0.43791  0.18934  0.44183  1.0000
  C   C584      1.0  0.39298  0.31087  0.32875  1.0000
  H   H568      1.0  0.45390  0.99193  0.05184  1.0000
  Fe  Fe92      1.0  0.35068  0.12935  0.50142  1.0000
  H   H569      1.0  0.35861  0.08312  0.49135  1.0000
  H   H570      1.0  0.22075  0.19676  0.10725  1.0000
  C   C585      1.0  0.22171  0.11337  0.26767  1.0000
  C   C586      1.0  0.22080  0.09463  0.31209  1.0000
  H   H571      1.0  0.41675  0.11856  0.99377  1.0000
  Fe  Fe93      1.0  0.24120  0.06016  0.91801  1.0000
  S   S186      1.0  0.24130  0.08480  0.90237  1.0000
  S   S187      1.0  0.26101  0.05823  0.94872  1.0000
  C   C587      1.0  0.23881  0.11366  0.51002  1.0000
  Fe  Fe94      1.0  0.22958  0.07119  0.85663  1.0000
  S   S188      1.0  0.23867  0.08200  0.80670  1.0000
  C   C588      1.0  0.37120  0.27691  0.70999  1.0000
  S   S189      1.0  0.23164  0.04693  0.87028  1.0000
  H   H572      1.0  0.23664  0.01041  0.94955  1.0000
  S   S190      1.0  0.24557  0.13792  0.64781  1.0000
  C   C589      1.0  0.43205  0.09486  0.61234  1.0000
  S   S191      1.0  0.25004  0.17338  0.61310  1.0000
  Fe  Fe95      1.0  0.23498  0.14590  0.60553  1.0000
  H   H573      1.0  0.40636  0.31019  0.71119  1.0000
  Fe  Fe96      1.0  0.25939  0.16549  0.65733  1.0000
  S   S192      1.0  0.28569  0.17135  0.66728  1.0000
  S   S193      1.0  0.24041  0.16824  0.69032  1.0000
  Fe  Fe97      1.0  0.44929  0.02793  0.55873  1.0000
  S   S194      1.0  0.44782  0.04896  0.59009  1.0000
  S   S195      1.0  0.43046  0.00144  0.55387  1.0000
  Fe  Fe98      1.0  0.45810  0.06537  0.54676  1.0000
  H   H574      1.0  0.40058  0.24123  0.89628  1.0000
  H   H575      1.0  0.31074  0.07584  0.51957  1.0000
  S   S196      1.0  0.22238  0.19672  0.64711  1.0000
  S   S197      1.0  0.37456  0.12776  0.96062  1.0000
  S   S198      1.0  0.32926  0.11905  0.94454  1.0000
  Fe  Fe99      1.0  0.37947  0.15805  0.53102  1.0000
  C   C590      1.0  0.40744  0.26018  0.85944  1.0000
  S   S199      1.0  0.38597  0.18288  0.55849  1.0000
  Fe  Fe100     1.0  0.38378  0.15555  0.97092  1.0000
  S   S200      1.0  0.39863  0.17269  0.93078  1.0000
  C   C591      1.0  0.40590  0.09822  0.52800  1.0000
  C   C592      1.0  0.45032  0.08055  0.64401  1.0000
  H   H576      1.0  0.39720  0.26356  0.86417  1.0000
  S   S201      1.0  0.36546  0.13151  0.54606  1.0000
  Fe  Fe101     1.0  0.37850  0.22881  0.80338  1.0000
  S   S202      1.0  0.37555  0.25208  0.78645  1.0000
  S   S203      1.0  0.37276  0.22074  0.85594  1.0000
  Fe  Fe102     1.0  0.38651  0.21960  0.73515  1.0000
  S   S204      1.0  0.38452  0.24216  0.71265  1.0000
  S   S205      1.0  0.39097  0.19778  0.71165  1.0000
  Fe  Fe103     1.0  0.39794  0.25685  0.75662  1.0000
  S   S206      1.0  0.41887  0.28235  0.74943  1.0000
  Fe  Fe104     1.0  0.36233  0.23587  0.74412  1.0000
  S   S207      1.0  0.33949  0.23763  0.72608  1.0000
  S   S208      1.0  0.40189  0.23458  0.77658  1.0000
  S   S209      1.0  0.36340  0.21243  0.76367  1.0000
  C   C593      1.0  0.42398  0.30297  0.76636  1.0000
  C   C594      1.0  0.41451  0.30669  0.79019  1.0000
  Fe  Fe105     1.0  0.22594  0.14119  0.67792  1.0000
  C   C595      1.0  0.44248  0.27137  0.80159  1.0000
  H   H577      1.0  0.40369  0.29685  0.79918  1.0000
  C   C596      1.0  0.38618  0.30727  0.74258  1.0000
  C   C597      1.0  0.38617  0.18613  0.60135  1.0000
  C   C598      1.0  0.38666  0.17414  0.62318  1.0000
  C   C599      1.0  0.38796  0.17780  0.65695  1.0000
  C   C600      1.0  0.38847  0.19331  0.66922  1.0000
  C   C601      1.0  0.38757  0.20510  0.64741  1.0000
  C   C602      1.0  0.38659  0.20158  0.61365  1.0000
  H   H578      1.0  0.38644  0.16225  0.61403  1.0000
  H   H579      1.0  0.38869  0.16862  0.67362  1.0000
  H   H580      1.0  0.38799  0.21707  0.65650  1.0000
  H   H581      1.0  0.38625  0.21093  0.59697  1.0000
  C   C603      1.0  0.39136  0.18602  0.91006  1.0000
  C   C604      1.0  0.39825  0.19274  0.87988  1.0000
  C   C605      1.0  0.39246  0.20310  0.86256  1.0000
  C   C606      1.0  0.37997  0.20713  0.87572  1.0000
  C   C607      1.0  0.37328  0.20063  0.90607  1.0000
  C   C608      1.0  0.37884  0.19003  0.92304  1.0000
  H   H582      1.0  0.40795  0.18972  0.86968  1.0000
  H   H583      1.0  0.39772  0.20806  0.83920  1.0000
  H   H584      1.0  0.36370  0.20379  0.91654  1.0000
  H   H585      1.0  0.37361  0.18522  0.94644  1.0000
  C   C609      1.0  0.43424  0.09129  0.53004  1.0000
  S   S210      1.0  0.32362  0.11678  0.50787  1.0000
  H   H586      1.0  0.42502  0.10039  0.59922  1.0000
  S   S211      1.0  0.45760  0.04387  0.51391  1.0000
  S   S212      1.0  0.38773  0.10185  0.52764  1.0000
  C   C610      1.0  0.41929  0.07890  0.53819  1.0000
  H   H587      1.0  0.22282  0.07750  0.99934  1.0000
  C   C611      1.0  0.39514  0.28223  0.67526  1.0000
  N   N50       1.0  0.33518  0.08002  0.50870  1.0000
  C   C612      1.0  0.39405  0.30221  0.71738  1.0000
  C   C613      1.0  0.36304  0.28149  0.73530  1.0000
  Fe  Fe106     1.0  0.35073  0.12757  0.97824  1.0000
  H   H588      1.0  0.44039  0.00674  0.62164  1.0000
  C   C614      1.0  0.30013  0.18990  0.68439  1.0000
  C   C615      1.0  0.29703  0.20436  0.69022  1.0000
  C   C616      1.0  0.30917  0.21895  0.70303  1.0000
  C   C617      1.0  0.32439  0.21912  0.71030  1.0000
  C   C618      1.0  0.32742  0.20464  0.70448  1.0000
  C   C619      1.0  0.31536  0.19014  0.69155  1.0000
  H   H589      1.0  0.28537  0.20435  0.68465  1.0000
  H   H590      1.0  0.30673  0.23011  0.70737  1.0000
  H   H591      1.0  0.33909  0.20462  0.70966  1.0000
  H   H592      1.0  0.31786  0.17901  0.68718  1.0000
  C   C620      1.0  0.23202  0.11631  0.53965  1.0000
  H   H593      1.0  0.45460  0.27147  0.80610  1.0000
  C   C621      1.0  0.41859  0.26801  0.83480  1.0000
  H   H594      1.0  0.30116  0.13170  0.53119  1.0000
  H   H595      1.0  0.44540  0.31342  0.73656  1.0000
  C   C622      1.0  0.23167  0.09526  0.78492  1.0000
  H   H596      1.0  0.41696  0.27766  0.82067  1.0000
  H   H597      1.0  0.26587  0.13070  0.57734  1.0000
  H   H598      1.0  0.27293  0.12209  0.54328  1.0000
  C   C623      1.0  0.23449  0.11285  0.73736  1.0000
  C   C624      1.0  0.24042  0.10360  0.75742  1.0000
  C   C625      1.0  0.42438  0.98860  0.58850  1.0000
  H   H599      1.0  0.42796  0.06374  0.66521  1.0000
  H   H600      1.0  0.24134  0.11911  0.71618  1.0000
  H   H601      1.0  0.25180  0.10275  0.75137  1.0000
  C   C626      1.0  0.28006  0.07504  0.94763  1.0000
  C   C627      1.0  0.28363  0.08758  0.92441  1.0000
  C   C628      1.0  0.29872  0.10096  0.92412  1.0000
  C   C629      1.0  0.31042  0.10202  0.94707  1.0000
  C   C630      1.0  0.30687  0.08955  0.97054  1.0000
  C   C631      1.0  0.29175  0.07605  0.97067  1.0000
  H   H602      1.0  0.27488  0.08685  0.90620  1.0000
  H   H603      1.0  0.30139  0.11047  0.90574  1.0000
  H   H604      1.0  0.22934  0.19678  0.71646  1.0000
  Fe  Fe107     1.0  0.22964  0.17399  0.64504  1.0000
  H   H605      1.0  0.22893  0.31036  0.00040  1.0000
  C   C632      1.0  0.37060  0.29677  0.75166  1.0000
  H   H606      1.0  0.42863  0.05086  0.98210  1.0000
  C   C633      1.0  0.39579  0.05858  0.00114  1.0000
  N   N51       1.0  0.40961  0.05962  0.98527  1.0000
  N   N52       1.0  0.29100  0.14293  0.56740  1.0000
  C   C634      1.0  0.30343  0.14049  0.55159  1.0000
  C   C635      1.0  0.29396  0.15433  0.59254  1.0000
  C   C636      1.0  0.31930  0.14926  0.56151  1.0000
  C   C637      1.0  0.30968  0.16331  0.60311  1.0000
  C   C638      1.0  0.32241  0.16070  0.58753  1.0000
  C   C639      1.0  0.27447  0.13399  0.55633  1.0000
  C   C640      1.0  0.25993  0.10724  0.97693  1.0000
  H   H607      1.0  0.28413  0.15651  0.60464  1.0000
  C   C641      1.0  0.41761  0.04991  0.99456  1.0000
  H   H608      1.0  0.31190  0.17222  0.62330  1.0000
  H   H609      1.0  0.24962  0.11791  0.94099  1.0000
  C   C642      1.0  0.41566  0.07076  0.95739  1.0000
  H   H610      1.0  0.43786  0.26456  0.77826  1.0000
  H   H611      1.0  0.40464  0.27881  0.68601  1.0000
  C   C643      1.0  0.25357  0.11856  0.96599  1.0000
  H   H612      1.0  0.44390  0.28463  0.79876  1.0000
  H   H613      1.0  0.40870  0.18870  0.50464  1.0000
  H   H614      1.0  0.22697  0.01940  0.92197  1.0000
  C   C644      1.0  0.43368  0.07426  0.64918  1.0000
  C   C645      1.0  0.43285  0.25066  0.84508  1.0000
  H   H615      1.0  0.41190  0.06353  0.93424  1.0000
  H   H616      1.0  0.41856  0.06667  0.54533  1.0000
  H   H617      1.0  0.42902  0.07686  0.95786  1.0000
  H   H618      1.0  0.35097  0.27310  0.74229  1.0000
  C   C646      1.0  0.43489  0.10715  0.52095  1.0000
  H   H619      1.0  0.44250  0.24655  0.83908  1.0000
  H   H620      1.0  0.42316  0.23245  0.88329  1.0000
  H   H621      1.0  0.39379  0.07268  0.54362  1.0000
  H   H622      1.0  0.38701  0.27122  0.66105  1.0000
  N   N53       1.0  0.38650  0.28727  0.70128  1.0000
  N   N54       1.0  0.43122  0.26339  0.82824  1.0000
  H   H623      1.0  0.33591  0.09633  0.54859  1.0000
  H   H624      1.0  0.26125  0.09808  0.95994  1.0000
  H   H625      1.0  0.22723  0.02379  0.96523  1.0000
  S   S213      1.0  0.35984  0.15544  0.98601  1.0000
  H   H626      1.0  0.35388  0.09247  0.54294  1.0000
  C   C647      1.0  0.22104  0.10252  0.55611  1.0000
  C   C648      1.0  0.43134  0.99419  0.61892  1.0000
  H   H627      1.0  0.44025  0.11041  0.98809  1.0000
  Fe  Fe108     1.0  0.38205  0.12437  0.51251  1.0000
  C   C649      1.0  0.22290  0.08372  0.51216  1.0000
  H   H628      1.0  0.38953  0.06643  0.99405  1.0000
  N   N55       1.0  0.45755  0.09338  0.62282  1.0000
  H   H629      1.0  0.31584  0.09019  0.98820  1.0000
  H   H630      1.0  0.32910  0.14718  0.54904  1.0000
  S   S214      1.0  0.45254  0.08805  0.53236  1.0000
  N   N56       1.0  0.36078  0.15929  0.86162  1.0000
  C   C650      1.0  0.35249  0.16848  0.85103  1.0000
  C   C651      1.0  0.37302  0.15800  0.84309  1.0000
  C   C652      1.0  0.35657  0.17693  0.82141  1.0000
  C   C653      1.0  0.37739  0.16624  0.81325  1.0000
  C   C654      1.0  0.36910  0.17576  0.80239  1.0000
  C   C655      1.0  0.35600  0.15003  0.89214  1.0000
  H   H631      1.0  0.34279  0.16953  0.86570  1.0000
  H   H632      1.0  0.37963  0.15077  0.85162  1.0000
  H   H633      1.0  0.35020  0.18452  0.81351  1.0000
  H   H634      1.0  0.38721  0.16538  0.79872  1.0000
  H   H635      1.0  0.37245  0.18229  0.77936  1.0000
  H   H636      1.0  0.35021  0.15607  0.90950  1.0000
  H   H637      1.0  0.34740  0.13700  0.88712  1.0000
  H   H638      1.0  0.36660  0.14957  0.90477  1.0000
  H   H639      1.0  0.36521  0.26495  0.69756  1.0000
  C   C656      1.0  0.40525  0.08238  0.53725  1.0000
  C   C657      1.0  0.43793  0.31608  0.75496  1.0000
  H   H640      1.0  0.40085  0.29266  0.65803  1.0000
  H   H641      1.0  0.22699  0.18385  0.75151  1.0000
  H   H642      1.0  0.27109  0.14206  0.53980  1.0000
  H   H643      1.0  0.41155  0.07650  0.63629  1.0000
  H   H644      1.0  0.23147  0.06598  0.74140  1.0000
  H   H645      1.0  0.36443  0.30040  0.77150  1.0000
  S   S215      1.0  0.23653  0.13716  0.55320  1.0000
  C   C658      1.0  0.42450  0.08143  0.63304  1.0000
  C   C659      1.0  0.40930  0.24757  0.87740  1.0000
  C   C660      1.0  0.42084  0.11060  0.51986  1.0000
  H   H646      1.0  0.45735  0.07482  0.65645  1.0000
  H   H647      1.0  0.33466  0.16757  0.59553  1.0000
  C   C661      1.0  0.42199  0.24265  0.87008  1.0000
  H   H648      1.0  0.33619  0.07625  0.55937  1.0000
  H   H649      1.0  0.43194  0.98799  0.66940  1.0000
  C   C662      1.0  0.25177  0.13030  0.98781  1.0000
  C   C663      1.0  0.34055  0.08655  0.54153  1.0000
  H   H650      1.0  0.39296  0.20641  0.50469  1.0000
  C   C664      1.0  0.44869  0.10073  0.60752  1.0000
  H   H651      1.0  0.42159  0.12284  0.51274  1.0000
  H   H652      1.0  0.24634  0.13875  0.97986  1.0000
  H   H653      1.0  0.41119  0.08106  0.95817  1.0000
  H   H654      1.0  0.44636  0.11685  0.51463  1.0000
  H   H655      1.0  0.28912  0.06636  0.98865  1.0000
  H   H656      1.0  0.45439  0.11079  0.59045  1.0000
  H   H657      1.0  0.22154  0.04068  0.77640  1.0000
  C   C665      1.0  0.22095  0.19021  0.73656  1.0000
  C   C666      1.0  0.22615  0.01393  0.94651  1.0000
  H   H658      1.0  0.28950  0.09895  0.50369  1.0000
  N   N57       1.0  0.35823  0.47488  0.03757  1.0000
  S   S216      1.0  0.45526  0.39165  0.26115  1.0000
  H   H659      1.0  0.43512  0.45962  0.26128  1.0000
  Fe  Fe109     1.0  0.45260  0.40789  0.30235  1.0000
  S   S217      1.0  0.43046  0.41400  0.30532  1.0000
  H   H660      1.0  0.32106  0.40575  0.43328  1.0000
  S   S218      1.0  0.40922  0.48887  0.02772  1.0000
  Fe  Fe110     1.0  0.24840  0.40047  0.46006  1.0000
  H   H661      1.0  0.37587  0.42053  0.38447  1.0000
  S   S219      1.0  0.27278  0.41404  0.43386  1.0000
  H   H662      1.0  0.33056  0.41885  0.48736  1.0000
  H   H663      1.0  0.40820  0.32525  0.25584  1.0000
  H   H664      1.0  0.40122  0.32419  0.32570  1.0000
  H   H665      1.0  0.45287  0.44933  0.29132  1.0000
  S   S220      1.0  0.23388  0.37455  0.43998  1.0000
  Fe  Fe111     1.0  0.37066  0.46816  0.44395  1.0000
  S   S221      1.0  0.39066  0.46890  0.47705  1.0000
  S   S222      1.0  0.34605  0.45904  0.47023  1.0000
  Fe  Fe112     1.0  0.39471  0.48304  0.38709  1.0000
  S   S223      1.0  0.41597  0.48470  0.41622  1.0000
  S   S224      1.0  0.39789  0.48896  0.33299  1.0000
  Fe  Fe113     1.0  0.40009  0.45925  0.43349  1.0000
  S   S225      1.0  0.41027  0.43943  0.43825  1.0000
  Fe  Fe114     1.0  0.40488  0.49438  0.45714  1.0000
  C   C667      1.0  0.43058  0.47279  0.30299  1.0000
  S   S226      1.0  0.37924  0.45653  0.40185  1.0000
  S   S227      1.0  0.38444  0.49462  0.42663  1.0000
  C   C668      1.0  0.46102  0.45478  0.35396  1.0000
  H   H666      1.0  0.45648  0.60642  0.24978  1.0000
  S   S228      1.0  0.45677  0.55049  0.27299  1.0000
  Fe  Fe115     1.0  0.46242  0.55881  0.14718  1.0000
  S   S229      1.0  0.44644  0.55755  0.10407  1.0000
  S   S230      1.0  0.45925  0.53636  0.17716  1.0000
  C   C669      1.0  0.41833  0.50805  0.04947  1.0000
  C   C670      1.0  0.41877  0.52327  0.03770  1.0000
  C   C671      1.0  0.42701  0.53832  0.05518  1.0000
  C   C672      1.0  0.43494  0.53827  0.08435  1.0000
  C   C673      1.0  0.43410  0.52297  0.09641  1.0000
  C   C674      1.0  0.42581  0.50796  0.07912  1.0000
  C   C675      1.0  0.34461  0.40729  0.41746  1.0000
  H   H667      1.0  0.42751  0.55009  0.04574  1.0000
  H   H668      1.0  0.43987  0.52267  0.11905  1.0000
  H   H669      1.0  0.42540  0.49623  0.08858  1.0000
  C   C676      1.0  0.41442  0.50604  0.31668  1.0000
  C   C677      1.0  0.41648  0.50754  0.28264  1.0000
  C   C678      1.0  0.42956  0.52085  0.26882  1.0000
  C   C679      1.0  0.44058  0.53295  0.28897  1.0000
  C   C680      1.0  0.43852  0.53142  0.32300  1.0000
  C   C681      1.0  0.42560  0.51798  0.33682  1.0000
  H   H670      1.0  0.40788  0.49839  0.26684  1.0000
  H   H671      1.0  0.43093  0.52191  0.24260  1.0000
  H   H672      1.0  0.44695  0.54073  0.33881  1.0000
  H   H673      1.0  0.42416  0.51701  0.36303  1.0000
  C   C682      1.0  0.29306  0.42659  0.44471  1.0000
  C   C683      1.0  0.30502  0.43138  0.42006  1.0000
  C   C684      1.0  0.32124  0.44135  0.42722  1.0000
  C   C685      1.0  0.32573  0.44679  0.45924  1.0000
  C   C686      1.0  0.34655  0.49843  0.46502  1.0000
  C   C687      1.0  0.29760  0.43197  0.47676  1.0000
  H   H674      1.0  0.30168  0.42736  0.39515  1.0000
  H   H675      1.0  0.33021  0.44484  0.40791  1.0000
  S   S231      1.0  0.46333  0.35389  0.29808  1.0000
  Fe  Fe116     1.0  0.46558  0.55411  0.22011  1.0000
  C   C688      1.0  0.42486  0.42070  0.34265  1.0000
  C   C689      1.0  0.41483  0.42965  0.34237  1.0000
  C   C690      1.0  0.41075  0.43591  0.37153  1.0000
  C   C691      1.0  0.41614  0.43264  0.40129  1.0000
  C   C692      1.0  0.42595  0.42345  0.40169  1.0000
  C   C693      1.0  0.43049  0.41767  0.37237  1.0000
  H   H676      1.0  0.41046  0.43205  0.31942  1.0000
  H   H677      1.0  0.40331  0.44312  0.37091  1.0000
  H   H678      1.0  0.43013  0.42086  0.42469  1.0000
  H   H679      1.0  0.43819  0.41072  0.37280  1.0000
  C   C694      1.0  0.44621  0.33633  0.28447  1.0000
  C   C695      1.0  0.43232  0.33802  0.27370  1.0000
  H   H680      1.0  0.33479  0.42710  0.04581  1.0000
  H   H681      1.0  0.43185  0.35031  0.27314  1.0000
  H   H682      1.0  0.35948  0.42855  0.50081  1.0000
  C   C696      1.0  0.46214  0.36414  0.20366  1.0000
  C   C697      1.0  0.34215  0.46791  0.03109  1.0000
  C   C698      1.0  0.36594  0.46512  0.04817  1.0000
  S   S232      1.0  0.46656  0.57635  0.19101  1.0000
  C   C699      1.0  0.36580  0.41973  0.45502  1.0000
  H   H683      1.0  0.37328  0.52562  0.45701  1.0000
  H   H684      1.0  0.42380  0.32104  0.34660  1.0000
  H   H685      1.0  0.37842  0.42405  0.46110  1.0000
  C   C700      1.0  0.35768  0.44780  0.05115  1.0000
  C   C701      1.0  0.46298  0.54773  0.01877  1.0000
  S   S233      1.0  0.46311  0.39686  0.34018  1.0000
  C   C702      1.0  0.36700  0.49303  0.03458  1.0000
  N   N58       1.0  0.45041  0.46090  0.33645  1.0000
  S   S234      1.0  0.22743  0.40863  0.45661  1.0000
  C   C703      1.0  0.45250  0.51792  0.00809  1.0000
  C   C704      1.0  0.33359  0.40944  0.43972  1.0000
  H   H686      1.0  0.37862  0.47066  0.05391  1.0000
  H   H687      1.0  0.34043  0.40181  0.39365  1.0000
  H   H688      1.0  0.36540  0.49954  0.05717  1.0000
  H   H689      1.0  0.41302  0.52352  0.01494  1.0000
  H   H690      1.0  0.45841  0.36030  0.22920  1.0000
  C   C705      1.0  0.38670  0.52503  0.49923  1.0000
  C   C706      1.0  0.31378  0.44206  0.48389  1.0000
  C   C707      1.0  0.44768  0.45721  0.30394  1.0000
  H   H691      1.0  0.42261  0.47723  0.29020  1.0000
  C   C708      1.0  0.37179  0.40992  0.40167  1.0000
  Fe  Fe117     1.0  0.46742  0.38183  0.29765  1.0000
  C   C709      1.0  0.41889  0.32374  0.26390  1.0000
  S   S235      1.0  0.42103  0.51780  0.48467  1.0000
  H   H692      1.0  0.44585  0.47367  0.37816  1.0000
  H   H693      1.0  0.33602  0.47560  0.02245  1.0000
  C   C710      1.0  0.44373  0.47073  0.35240  1.0000
  H   H694      1.0  0.36399  0.44007  0.05864  1.0000
  H   H695      1.0  0.45756  0.45285  0.38018  1.0000
  N   N59       1.0  0.36043  0.41211  0.42553  1.0000
  H   H696      1.0  0.42828  0.48445  0.34855  1.0000
  H   H697      1.0  0.45803  0.50331  0.04382  1.0000
  C   C711      1.0  0.35515  0.42219  0.47773  1.0000
  H   H698      1.0  0.46685  0.58549  0.26744  1.0000
  H   H699      1.0  0.38255  0.40951  0.41377  1.0000
  H   H700      1.0  0.22488  0.33393  0.09138  1.0000
  H   H701      1.0  0.33583  0.48888  0.47693  1.0000
  H   H702      1.0  0.34962  0.49233  0.44325  1.0000
  C   C712      1.0  0.43761  0.46296  0.28681  1.0000
  H   H703      1.0  0.38008  0.49628  0.03050  1.0000
  H   H704      1.0  0.36620  0.39799  0.38763  1.0000
  C   C713      1.0  0.33346  0.45067  0.03436  1.0000
  C   C714      1.0  0.34134  0.44055  0.04404  1.0000
  Fe  Fe118     1.0  0.22677  0.36705  0.49182  1.0000
  C   C715      1.0  0.43372  0.47680  0.33591  1.0000
  H   H705      1.0  0.39715  0.53605  0.49254  1.0000
  H   H706      1.0  0.45563  0.37210  0.19643  1.0000
  H   H707      1.0  0.46014  0.44240  0.34400  1.0000
  S   S236      1.0  0.23226  0.38304  0.02022  1.0000
  H   H708      1.0  0.36266  0.49780  0.01335  1.0000
  N   N60       1.0  0.46875  0.52948  0.05522  1.0000
  C   C716      1.0  0.37321  0.51902  0.47923  1.0000
  H   H709      1.0  0.28860  0.42846  0.49601  1.0000
  H   H710      1.0  0.34316  0.50877  0.45704  1.0000
  H   H711      1.0  0.45835  0.35269  0.18794  1.0000
  C   C717      1.0  0.22280  0.32268  0.07686  1.0000
  C   C718      1.0  0.45987  0.51588  0.03646  1.0000
  C   C719      1.0  0.44650  0.32017  0.28490  1.0000
  C   C720      1.0  0.33892  0.41681  0.47011  1.0000
  N   N61       1.0  0.36031  0.50474  0.48703  1.0000
  H   H712      1.0  0.23480  0.33613  0.03400  1.0000
  C   C721      1.0  0.22844  0.32392  0.04472  1.0000
  H   H713      1.0  0.32077  0.44517  0.02855  1.0000
  C   C722      1.0  0.46916  0.61024  0.25483  1.0000
  H   H714      1.0  0.46878  0.52831  0.10676  1.0000
  H   H715      1.0  0.46377  0.56018  0.01289  1.0000
  H   H716      1.0  0.45719  0.31868  0.29301  1.0000
  H   H717      1.0  0.42367  0.51747  0.74380  1.0000
  S   S237      1.0  0.45657  0.40367  0.76910  1.0000
  H   H718      1.0  0.23595  0.36461  0.57518  1.0000
  H   H719      1.0  0.24529  0.42754  0.89888  1.0000
  S   S238      1.0  0.45909  0.44320  0.82685  1.0000
  H   H720      1.0  0.46250  0.51542  0.55430  1.0000
  Fe  Fe119     1.0  0.46147  0.54081  0.66051  1.0000
  Fe  Fe120     1.0  0.24875  0.39683  0.97882  1.0000
  S   S239      1.0  0.23475  0.41270  0.96806  1.0000
  C   C723      1.0  0.25328  0.42981  0.87701  1.0000
  C   C724      1.0  0.40626  0.49447  0.78473  1.0000
  H   H721      1.0  0.41089  0.49312  0.53657  1.0000
  C   C725      1.0  0.42537  0.50555  0.73932  1.0000
  C   C726      1.0  0.40607  0.47129  0.81667  1.0000
  S   S240      1.0  0.23519  0.37704  0.94199  1.0000
  Fe  Fe121     1.0  0.36548  0.47219  0.94219  1.0000
  S   S241      1.0  0.37859  0.45901  0.96868  1.0000
  S   S242      1.0  0.33906  0.46859  0.94966  1.0000
  Fe  Fe122     1.0  0.39671  0.49517  0.90747  1.0000
  S   S243      1.0  0.41205  0.48381  0.93189  1.0000
  S   S244      1.0  0.40578  0.51592  0.87034  1.0000
  Fe  Fe123     1.0  0.39158  0.45944  0.92108  1.0000
  S   S245      1.0  0.39471  0.43629  0.90148  1.0000
  Fe  Fe124     1.0  0.39801  0.48459  0.97739  1.0000
  H   H722      1.0  0.26851  0.38578  0.89450  1.0000
  S   S246      1.0  0.37698  0.47066  0.89364  1.0000
  S   S247      1.0  0.38416  0.49794  0.95399  1.0000
  Fe  Fe125     1.0  0.46501  0.42077  0.81273  1.0000
  S   S248      1.0  0.43956  0.52216  0.63442  1.0000
  C   C727      1.0  0.41887  0.32330  0.80209  1.0000
  S   S249      1.0  0.45977  0.55613  0.70449  1.0000
  H   H723      1.0  0.46090  0.40230  0.92027  1.0000
  H   H724      1.0  0.28513  0.44690  0.88300  1.0000
  C   C728      1.0  0.42712  0.51825  0.52557  1.0000
  C   C729      1.0  0.41991  0.50459  0.54608  1.0000
  C   C730      1.0  0.42400  0.50597  0.57928  1.0000
  C   C731      1.0  0.43554  0.52087  0.59216  1.0000
  C   C732      1.0  0.44311  0.53436  0.57145  1.0000
  C   C733      1.0  0.43880  0.53309  0.53836  1.0000
  H   H725      1.0  0.30902  0.40812  0.96953  1.0000
  H   H726      1.0  0.41810  0.49547  0.59515  1.0000
  H   H727      1.0  0.45193  0.54593  0.58111  1.0000
  S   S250      1.0  0.27593  0.40305  0.97857  1.0000
  C   C734      1.0  0.42332  0.51955  0.84652  1.0000
  C   C735      1.0  0.43258  0.50998  0.85010  1.0000
  C   C736      1.0  0.44591  0.51255  0.82940  1.0000
  C   C737      1.0  0.45004  0.52463  0.80485  1.0000
  C   C738      1.0  0.44088  0.53431  0.80145  1.0000
  C   C739      1.0  0.42759  0.53179  0.82227  1.0000
  H   H728      1.0  0.42937  0.50047  0.86856  1.0000
  H   H729      1.0  0.45294  0.50500  0.83219  1.0000
  H   H730      1.0  0.44402  0.54373  0.78278  1.0000
  H   H731      1.0  0.42051  0.53928  0.81942  1.0000
  C   C740      1.0  0.29327  0.42154  0.97078  1.0000
  C   C741      1.0  0.30829  0.42023  0.96715  1.0000
  C   C742      1.0  0.32236  0.43439  0.96010  1.0000
  C   C743      1.0  0.32164  0.45015  0.95710  1.0000
  H   H732      1.0  0.44437  0.54375  0.52269  1.0000
  C   C744      1.0  0.29253  0.43729  0.96765  1.0000
  C   C745      1.0  0.41881  0.47069  0.79760  1.0000
  H   H733      1.0  0.33379  0.43313  0.95731  1.0000
  H   H734      1.0  0.37420  0.49454  0.55605  1.0000
  H   H735      1.0  0.44499  0.50706  0.99389  1.0000
  C   C746      1.0  0.44122  0.44092  0.84796  1.0000
  C   C747      1.0  0.43894  0.45537  0.85858  1.0000
  C   C748      1.0  0.42481  0.45409  0.87533  1.0000
  C   C749      1.0  0.41282  0.43833  0.88146  1.0000
  C   C750      1.0  0.41515  0.42388  0.87096  1.0000
  C   C751      1.0  0.42934  0.42515  0.85435  1.0000
  H   H736      1.0  0.44811  0.46762  0.85374  1.0000
  H   H737      1.0  0.42315  0.46530  0.88320  1.0000
  H   H738      1.0  0.40589  0.41165  0.87558  1.0000
  H   H739      1.0  0.43098  0.41394  0.84618  1.0000
  C   C752      1.0  0.43278  0.33646  0.79056  1.0000
  C   C753      1.0  0.44232  0.33269  0.76694  1.0000
  N   N62       1.0  0.26559  0.42299  0.88203  1.0000
  H   H740      1.0  0.45304  0.34261  0.75778  1.0000
  C   C754      1.0  0.38695  0.51633  0.52728  1.0000
  H   H741      1.0  0.41937  0.49973  0.71621  1.0000
  H   H742      1.0  0.25855  0.44348  0.87242  1.0000
  H   H743      1.0  0.39229  0.31910  0.75542  1.0000
  H   H744      1.0  0.42384  0.46146  0.80252  1.0000
  C   C755      1.0  0.42512  0.48219  0.77244  1.0000
  N   N63       1.0  0.41890  0.49395  0.76644  1.0000
  S   S251      1.0  0.43731  0.35726  0.80604  1.0000
  H   H745      1.0  0.24841  0.39780  0.88323  1.0000
  H   H746      1.0  0.39015  0.48419  0.82545  1.0000
  C   C756      1.0  0.37389  0.50163  0.53476  1.0000
  C   C757      1.0  0.22733  0.36996  0.58488  1.0000
  C   C758      1.0  0.29315  0.42692  0.88971  1.0000
  H   H747      1.0  0.43853  0.50904  0.73632  1.0000
  S   S252      1.0  0.46442  0.40000  0.84505  1.0000
  C   C759      1.0  0.39973  0.48325  0.81020  1.0000
  H   H748      1.0  0.29737  0.40453  0.89865  1.0000
  H   H749      1.0  0.43516  0.48180  0.75803  1.0000
  Fe  Fe126     1.0  0.45815  0.38309  0.80016  1.0000
  H   H750      1.0  0.40123  0.46264  0.83665  1.0000
  H   H751      1.0  0.41138  0.32604  0.82036  1.0000
  C   C760      1.0  0.27232  0.39915  0.89087  1.0000
  H   H752      1.0  0.28111  0.43853  0.97048  1.0000
  C   C761      1.0  0.28851  0.40967  0.89315  1.0000
  H   H753      1.0  0.40147  0.50396  0.78047  1.0000
  C   C762      1.0  0.30665  0.45149  0.96098  1.0000
  C   C763      1.0  0.28144  0.43343  0.88453  1.0000
  H   H754      1.0  0.46859  0.45750  0.89391  1.0000
  C   C764      1.0  0.26098  0.40605  0.88499  1.0000
  H   H755      1.0  0.22168  0.33796  0.59776  1.0000
  Fe  Fe127     1.0  0.22084  0.39826  0.50742  1.0000
  H   H756      1.0  0.24572  0.42345  0.85579  1.0000
  H   H757      1.0  0.30594  0.46363  0.95888  1.0000
  H   H758      1.0  0.30568  0.43524  0.89237  1.0000
  S   S253      1.0  0.24283  0.39222  0.51229  1.0000
  H   H759      1.0  0.44808  0.53566  0.97777  1.0000
  Fe  Fe128     1.0  0.22014  0.39198  0.93358  1.0000
  H   H760      1.0  0.39745  0.52079  0.54273  1.0000
  H   H761      1.0  0.35060  0.48434  0.51989  1.0000
  H   H762      1.0  0.23436  0.38291  0.59387  1.0000
  S   S254      1.0  0.46627  0.52665  0.77814  1.0000
  H   H763      1.0  0.46210  0.42711  0.89103  1.0000
  C   C765      1.0  0.45414  0.53397  0.99917  1.0000
  S   S255      1.0  0.22598  0.34259  0.51207  1.0000
  H   H764      1.0  0.31705  0.44613  0.50879  1.0000
  C   C766      1.0  0.36059  0.49595  0.51421  1.0000
  H   H765      1.0  0.46590  0.51483  0.61416  1.0000
  H   H766      1.0  0.35307  0.84447  0.10038  1.0000
  S   S256      1.0  0.23882  0.83568  0.25332  1.0000
  C   C767      1.0  0.41284  0.97325  0.08687  1.0000
  C   C768      1.0  0.36522  0.85444  0.09700  1.0000
  Fe  Fe129     1.0  0.22390  0.80952  0.26986  1.0000
  Fe  Fe130     1.0  0.24984  0.82363  0.21595  1.0000
  S   S257      1.0  0.27707  0.83006  0.21011  1.0000
  H   H767      1.0  0.45624  0.95403  0.01599  1.0000
  Fe  Fe131     1.0  0.40103  0.92688  0.17264  1.0000
  S   S258      1.0  0.38560  0.91077  0.13273  1.0000
  S   S259      1.0  0.41741  0.95443  0.17468  1.0000
  Fe  Fe132     1.0  0.39351  0.89748  0.21869  1.0000
  S   S260      1.0  0.37773  0.87869  0.18231  1.0000
  S   S261      1.0  0.39573  0.89233  0.27200  1.0000
  Fe  Fe133     1.0  0.39693  0.89275  0.14542  1.0000
  S   S262      1.0  0.40577  0.87909  0.10688  1.0000
  Fe  Fe134     1.0  0.36739  0.89783  0.17231  1.0000
  S   S263      1.0  0.34058  0.89245  0.16689  1.0000
  S   S264      1.0  0.41352  0.90960  0.18290  1.0000
  S   S265      1.0  0.38195  0.91585  0.21104  1.0000
  H   H768      1.0  0.38453  0.87483  0.05219  1.0000
  C   C769      1.0  0.32326  0.88082  0.25752  1.0000
  H   H769      1.0  0.37147  0.85738  0.12078  1.0000
  C   C770      1.0  0.41808  0.89087  0.07475  1.0000
  C   C771      1.0  0.42546  0.88325  0.05286  1.0000
  H   H770      1.0  0.34293  0.89408  0.09490  1.0000
  N   N64       1.0  0.45187  0.93700  0.28769  1.0000
  C   C772      1.0  0.42940  0.91643  0.04347  1.0000
  C   C773      1.0  0.42013  0.90751  0.06998  1.0000
  H   H771      1.0  0.42388  0.87035  0.05631  1.0000
  H   H772      1.0  0.34468  0.90136  0.24143  1.0000
  H   H773      1.0  0.43970  0.98046  0.02107  1.0000
  H   H774      1.0  0.41450  0.91352  0.08660  1.0000
  C   C774      1.0  0.41415  0.89331  0.28795  1.0000
  C   C775      1.0  0.41606  0.89364  0.32194  1.0000
  C   C776      1.0  0.43071  0.89485  0.33544  1.0000
  C   C777      1.0  0.44346  0.89536  0.31499  1.0000
  C   C778      1.0  0.44151  0.89492  0.28102  1.0000
  C   C779      1.0  0.42700  0.89408  0.26753  1.0000
  H   H775      1.0  0.40618  0.89303  0.33792  1.0000
  H   H776      1.0  0.43205  0.89514  0.36163  1.0000
  H   H777      1.0  0.45130  0.89524  0.26504  1.0000
  H   H778      1.0  0.42567  0.89376  0.24135  1.0000
  C   C780      1.0  0.32302  0.87467  0.17770  1.0000
  C   C781      1.0  0.32372  0.85964  0.18786  1.0000
  C   C782      1.0  0.30949  0.84606  0.19688  1.0000
  C   C783      1.0  0.29438  0.84729  0.19607  1.0000
  C   C784      1.0  0.29370  0.86231  0.18584  1.0000
  C   C785      1.0  0.30791  0.87585  0.17658  1.0000
  H   H779      1.0  0.33520  0.85849  0.18895  1.0000
  H   H780      1.0  0.31020  0.83453  0.20478  1.0000
  H   H781      1.0  0.28223  0.86351  0.18512  1.0000
  H   H782      1.0  0.30718  0.88738  0.16873  1.0000
  C   C786      1.0  0.37516  0.87881  0.06113  1.0000
  C   C787      1.0  0.41986  0.96771  0.14110  1.0000
  H   H783      1.0  0.43657  0.93149  0.32986  1.0000
  N   N65       1.0  0.31701  0.86495  0.26971  1.0000
  C   C788      1.0  0.41087  0.96213  0.11270  1.0000
  H   H784      1.0  0.22820  0.97619  0.39564  1.0000
  S   S266      1.0  0.46215  0.89702  0.33068  1.0000
  H   H785      1.0  0.40225  0.94933  0.11083  1.0000
  S   S267      1.0  0.46841  0.92742  0.40509  1.0000
  C   C789      1.0  0.29968  0.85666  0.27601  1.0000
  H   H786      1.0  0.36285  0.88712  0.25565  1.0000
  C   C790      1.0  0.45319  0.94014  0.25498  1.0000
  C   C791      1.0  0.44995  0.98057  0.03578  1.0000
  S   S268      1.0  0.45972  0.88835  0.42892  1.0000
  C   C792      1.0  0.35189  0.88976  0.08480  1.0000
  H   H787      1.0  0.35145  0.85855  0.27828  1.0000
  C   C793      1.0  0.32692  0.85699  0.27737  1.0000
  S   S269      1.0  0.23612  0.79757  0.23555  1.0000
  H   H788      1.0  0.34444  0.86810  0.11509  1.0000
  N   N66       1.0  0.36422  0.86964  0.08401  1.0000
  Fe  Fe135     1.0  0.46921  0.90371  0.38362  1.0000
  H   H789      1.0  0.22216  0.95064  0.36131  1.0000
  S   S270      1.0  0.44207  0.91923  0.48096  1.0000
  H   H790      1.0  0.32197  0.84443  0.28709  1.0000
  H   H791      1.0  0.44061  0.88630  0.00986  1.0000
  H   H792      1.0  0.37221  0.84938  0.08041  1.0000
  C   C794      1.0  0.36295  0.89915  0.06138  1.0000
  S   S271      1.0  0.23114  0.82069  0.17747  1.0000
  H   H793      1.0  0.43078  0.92925  0.03988  1.0000
  C   C795      1.0  0.34999  0.88095  0.25974  1.0000
  H   H794      1.0  0.44112  0.94309  0.21179  1.0000
  H   H795      1.0  0.29687  0.85865  0.30183  1.0000
  H   H796      1.0  0.40571  0.96891  0.06514  1.0000
  Fe  Fe136     1.0  0.46059  0.91273  0.45141  1.0000
  C   C796      1.0  0.43777  0.93434  0.30407  1.0000
  C   C797      1.0  0.43495  0.89226  0.02655  1.0000
  H   H797      1.0  0.29538  0.84296  0.27066  1.0000
  C   C798      1.0  0.34355  0.86485  0.27244  1.0000
  H   H798      1.0  0.29270  0.86148  0.25993  1.0000
  C   C799      1.0  0.33982  0.88901  0.25218  1.0000
  H   H799      1.0  0.31542  0.88706  0.25095  1.0000
  C   C800      1.0  0.43692  0.90889  0.02172  1.0000
  C   C801      1.0  0.35280  0.87503  0.09615  1.0000
  C   C802      1.0  0.42572  0.93786  0.25425  1.0000
  C   C803      1.0  0.37472  0.89370  0.04954  1.0000
  H   H800      1.0  0.41547  0.93801  0.24106  1.0000
  C   C804      1.0  0.46586  0.93692  0.30517  1.0000
  H   H801      1.0  0.46258  0.93175  0.33008  1.0000
  H   H802      1.0  0.41308  0.93180  0.30028  1.0000
  H   H803      1.0  0.38368  0.90109  0.03197  1.0000
  C   C805      1.0  0.44016  0.94069  0.23780  1.0000
  H   H804      1.0  0.46433  0.94210  0.24197  1.0000
  H   H805      1.0  0.44561  0.96951  0.05197  1.0000
  C   C806      1.0  0.42445  0.93461  0.28756  1.0000
  H   H806      1.0  0.36261  0.91081  0.05300  1.0000
  H   H807      1.0  0.22244  0.76581  0.29282  1.0000
  N   N67       1.0  0.46309  0.98057  0.01421  1.0000
  C   C807      1.0  0.46457  0.96580  0.00614  1.0000
  C   C808      1.0  0.43101  0.98438  0.14320  1.0000
  H   H808      1.0  0.41887  0.92464  0.52306  1.0000
  S   S272      1.0  0.23363  0.82702  0.76523  1.0000
  H   H809      1.0  0.43982  0.93507  0.87168  1.0000
  H   H810      1.0  0.37933  0.88714  0.52854  1.0000
  H   H811      1.0  0.45788  0.94921  0.82572  1.0000
  Fe  Fe137     1.0  0.24416  0.82419  0.71637  1.0000
  S   S273      1.0  0.27086  0.82834  0.71055  1.0000
  S   S274      1.0  0.23002  0.83612  0.68949  1.0000
  Fe  Fe138     1.0  0.39443  0.92634  0.67307  1.0000
  S   S275      1.0  0.38015  0.91016  0.63191  1.0000
  S   S276      1.0  0.40963  0.95413  0.67711  1.0000
  Fe  Fe139     1.0  0.38905  0.89660  0.71685  1.0000
  S   S277      1.0  0.37437  0.87777  0.67926  1.0000
  S   S278      1.0  0.39355  0.89015  0.76813  1.0000
  Fe  Fe140     1.0  0.39314  0.89348  0.64333  1.0000
  S   S279      1.0  0.40486  0.88141  0.60723  1.0000
  Fe  Fe141     1.0  0.36217  0.89558  0.67086  1.0000
  S   S280      1.0  0.33517  0.88849  0.66221  1.0000
  S   S281      1.0  0.40864  0.91061  0.68167  1.0000
  S   S282      1.0  0.37560  0.91343  0.71101  1.0000
  H   H812      1.0  0.41023  0.92268  0.86363  1.0000
  C   C809      1.0  0.23747  0.80799  0.62074  1.0000
  C   C810      1.0  0.41820  0.92938  0.84402  1.0000
  C   C811      1.0  0.41467  0.89172  0.57152  1.0000
  C   C812      1.0  0.41250  0.90580  0.56016  1.0000
  C   C813      1.0  0.42049  0.91367  0.53157  1.0000
  H   H813      1.0  0.35879  0.83706  0.59588  1.0000
  S   S283      1.0  0.46100  0.89309  0.91638  1.0000
  C   C814      1.0  0.42478  0.88553  0.55400  1.0000
  H   H814      1.0  0.40475  0.91067  0.57345  1.0000
  H   H815      1.0  0.27620  0.82193  0.64247  1.0000
  C   C815      1.0  0.41529  0.93852  0.75618  1.0000
  H   H816      1.0  0.22640  0.79690  0.62168  1.0000
  C   C816      1.0  0.41319  0.89526  0.78294  1.0000
  C   C817      1.0  0.41525  0.89198  0.81560  1.0000
  C   C818      1.0  0.43073  0.89732  0.82899  1.0000
  C   C819      1.0  0.44425  0.90592  0.80967  1.0000
  C   C820      1.0  0.44219  0.90871  0.77677  1.0000
  C   C821      1.0  0.42675  0.90344  0.76346  1.0000
  H   H817      1.0  0.40481  0.88557  0.83079  1.0000
  H   H818      1.0  0.43218  0.89503  0.85432  1.0000
  H   H819      1.0  0.45261  0.91523  0.76163  1.0000
  H   H820      1.0  0.42537  0.90587  0.73826  1.0000
  C   C822      1.0  0.31757  0.87210  0.67786  1.0000
  C   C823      1.0  0.31807  0.85783  0.69238  1.0000
  C   C824      1.0  0.30370  0.84474  0.70256  1.0000
  C   C825      1.0  0.28863  0.84580  0.69901  1.0000
  C   C826      1.0  0.28814  0.86016  0.68487  1.0000
  C   C827      1.0  0.30248  0.87310  0.67407  1.0000
  H   H821      1.0  0.32951  0.85679  0.69555  1.0000
  H   H822      1.0  0.30429  0.83373  0.71347  1.0000
  H   H823      1.0  0.27671  0.86125  0.68200  1.0000
  H   H824      1.0  0.30189  0.88407  0.66294  1.0000
  C   C828      1.0  0.41202  0.93028  0.81341  1.0000
  C   C829      1.0  0.41483  0.96721  0.64272  1.0000
  H   H825      1.0  0.42645  0.87459  0.56257  1.0000
  C   C830      1.0  0.36297  0.84870  0.61103  1.0000
  C   C831      1.0  0.40787  0.96157  0.61229  1.0000
  N   N68       1.0  0.44929  0.94985  0.56561  1.0000
  H   H826      1.0  0.25106  0.84850  0.59656  1.0000
  H   H827      1.0  0.39880  0.94904  0.60957  1.0000
  C   C832      1.0  0.37103  0.88201  0.54874  1.0000
  C   C833      1.0  0.43479  0.93637  0.84856  1.0000
  H   H828      1.0  0.23934  0.78282  0.65071  1.0000
  S   S284      1.0  0.44823  0.92077  0.98863  1.0000
  H   H829      1.0  0.41063  0.94865  0.75593  1.0000
  S   S285      1.0  0.22547  0.79798  0.70808  1.0000
  C   C834      1.0  0.44267  0.92679  0.61550  1.0000
  H   H830      1.0  0.44994  0.95467  0.51486  1.0000
  H   H831      1.0  0.38042  0.86338  0.55924  1.0000
  C   C835      1.0  0.34973  0.88250  0.58460  1.0000
  H   H832      1.0  0.42429  0.94069  0.73613  1.0000
  H   H833      1.0  0.44404  0.96847  0.54018  1.0000
  H   H834      1.0  0.27629  0.84802  0.61910  1.0000
  H   H835      1.0  0.44636  0.95098  0.77234  1.0000
  H   H836      1.0  0.35965  0.89967  0.54516  1.0000
  N   N69       1.0  0.42209  0.93792  0.78807  1.0000
  H   H837      1.0  0.37567  0.85183  0.61802  1.0000
  C   C836      1.0  0.25122  0.83704  0.60638  1.0000
  H   H838      1.0  0.45444  0.91443  0.58463  1.0000
  H   H839      1.0  0.39916  0.92419  0.80962  1.0000
  N   N70       1.0  0.36175  0.86252  0.59272  1.0000
  C   C837      1.0  0.45441  0.93693  0.56286  1.0000
  C   C838      1.0  0.35077  0.86918  0.60180  1.0000
  C   C839      1.0  0.37160  0.86856  0.56624  1.0000
  H   H840      1.0  0.43168  0.94197  0.64034  1.0000
  C   C840      1.0  0.43304  0.89362  0.52579  1.0000
  H   H841      1.0  0.34295  0.86448  0.62285  1.0000
  H   H842      1.0  0.40530  0.92638  0.75058  1.0000
  C   C841      1.0  0.26523  0.82196  0.63214  1.0000
  C   C842      1.0  0.43835  0.94512  0.79250  1.0000
  H   H843      1.0  0.40716  0.96789  0.56182  1.0000
  H   H844      1.0  0.22611  0.82260  0.59746  1.0000
  H   H845      1.0  0.35574  0.84630  0.63401  1.0000
  N   N71       1.0  0.25135  0.80792  0.63342  1.0000
  C   C843      1.0  0.36003  0.88903  0.55809  1.0000
  C   C844      1.0  0.44495  0.94434  0.82271  1.0000
  C   C845      1.0  0.41261  0.97227  0.58529  1.0000
  H   H846      1.0  0.44108  0.88897  0.51288  1.0000
  C   C846      1.0  0.23722  0.82253  0.60696  1.0000
  H   H847      1.0  0.23049  0.87302  0.86741  1.0000
  H   H848      1.0  0.43833  0.96267  0.59628  1.0000
  H   H849      1.0  0.34130  0.88803  0.59250  1.0000
  C   C847      1.0  0.45109  0.92514  0.58764  1.0000
  C   C848      1.0  0.26536  0.83677  0.61892  1.0000
  C   C849      1.0  0.45222  0.96158  0.53868  1.0000
  S   S286      1.0  0.46382  0.91453  0.82584  1.0000
  C   C850      1.0  0.44177  0.95204  0.59354  1.0000
  H   H850      1.0  0.46482  0.97084  0.53919  1.0000
  C   C851      1.0  0.43815  0.94045  0.61872  1.0000
  H   H851      1.0  0.43947  0.91738  0.63431  1.0000
  H   H852      1.0  0.46047  0.93523  0.54075  1.0000
  C   C852      1.0  0.25159  0.79277  0.64831  1.0000
  H   H853      1.0  0.22967  0.84295  0.82799  1.0000
  H   H854      1.0  0.25664  0.79579  0.67331  1.0000
  H   H855      1.0  0.25912  0.78772  0.63337  1.0000
  C   C853      1.0  0.43097  0.90777  0.51455  1.0000
  Fe  Fe142     1.0  0.46457  0.91432  0.95259  1.0000
  H   H856      1.0  0.22587  0.86940  0.82447  1.0000
  C   C854      1.0  0.22069  0.86724  0.84964  1.0000
  C   C855      1.0  0.42653  0.98354  0.64592  1.0000
  H   H857      1.0  0.22097  0.98148  0.93829  1.0000
  Fe  Fe143     1.0  0.69434  0.13527  0.26452  1.0000
  S   S287      1.0  0.47800  0.05917  0.15426  1.0000
  S   S288      1.0  0.66704  0.12844  0.26253  1.0000
  H   H858      1.0  0.49649  0.07071  0.46373  1.0000
  H   H859      1.0  0.62843  0.12669  0.33555  1.0000
  Fe  Fe144     1.0  0.57612  0.06456  0.30890  1.0000
  S   S289      1.0  0.56298  0.04684  0.26822  1.0000
  S   S290      1.0  0.60294  0.07112  0.31837  1.0000
  Fe  Fe145     1.0  0.54526  0.06790  0.33405  1.0000
  S   S291      1.0  0.53025  0.05098  0.29487  1.0000
  S   S292      1.0  0.53116  0.07911  0.36632  1.0000
  Fe  Fe146     1.0  0.54350  0.03453  0.30534  1.0000
  S   S293      1.0  0.52662  0.00719  0.30211  1.0000
  Fe  Fe147     1.0  0.55052  0.06444  0.26090  1.0000
  S   S294      1.0  0.54682  0.07136  0.20953  1.0000
  S   S295      1.0  0.55730  0.05056  0.34713  1.0000
  S   S296      1.0  0.56487  0.08308  0.29899  1.0000
  Fe  Fe148     1.0  0.47142  0.05553  0.10059  1.0000
  S   S297      1.0  0.48236  0.07229  0.05783  1.0000
  N   N72       1.0  0.66650  0.13230  0.35450  1.0000
  C   C856      1.0  0.68306  0.14399  0.34828  1.0000
  H   H860      1.0  0.48233  0.00404  0.47399  1.0000
  N   N73       1.0  0.49515  0.02053  0.18182  1.0000
  H   H861      1.0  0.51227  0.00607  0.40950  1.0000
  C   C857      1.0  0.53318  0.99859  0.36315  1.0000
  C   C858      1.0  0.53291  0.09817  0.28720  1.0000
  H   H862      1.0  0.54300  0.01074  0.36413  1.0000
  H   H863      1.0  0.47476  0.00610  0.15364  1.0000
  C   C859      1.0  0.52406  0.07065  0.40518  1.0000
  C   C860      1.0  0.51230  0.07490  0.42153  1.0000
  C   C861      1.0  0.50577  0.06762  0.45164  1.0000
  C   C862      1.0  0.51113  0.05619  0.46578  1.0000
  C   C863      1.0  0.52318  0.05230  0.44980  1.0000
  C   C864      1.0  0.52956  0.05941  0.41956  1.0000
  H   H864      1.0  0.50805  0.08367  0.41067  1.0000
  H   H865      1.0  0.69206  0.13922  0.35701  1.0000
  H   H866      1.0  0.52745  0.04353  0.46063  1.0000
  H   H867      1.0  0.53870  0.05615  0.40740  1.0000
  C   C865      1.0  0.52745  0.06686  0.19417  1.0000
  C   C866      1.0  0.52564  0.06866  0.16069  1.0000
  C   C867      1.0  0.51049  0.06601  0.14791  1.0000
  C   C868      1.0  0.49710  0.06185  0.16870  1.0000
  C   C869      1.0  0.49889  0.05990  0.20210  1.0000
  C   C870      1.0  0.51397  0.06223  0.21476  1.0000
  H   H868      1.0  0.53604  0.07226  0.14461  1.0000
  H   H869      1.0  0.50922  0.06755  0.12212  1.0000
  H   H870      1.0  0.48855  0.05664  0.21828  1.0000
  H   H871      1.0  0.51522  0.06090  0.24056  1.0000
  C   C871      1.0  0.64939  0.11126  0.27534  1.0000
  C   C872      1.0  0.64996  0.09814  0.29395  1.0000
  C   C873      1.0  0.63560  0.08565  0.30586  1.0000
  C   C874      1.0  0.62048  0.08605  0.29938  1.0000
  C   C875      1.0  0.61990  0.09893  0.28010  1.0000
  C   C876      1.0  0.63425  0.11144  0.26825  1.0000
  H   H872      1.0  0.66147  0.09778  0.29964  1.0000
  H   H873      1.0  0.63623  0.07575  0.32070  1.0000
  H   H874      1.0  0.60842  0.09947  0.27487  1.0000
  H   H875      1.0  0.63363  0.12149  0.25385  1.0000
  H   H876      1.0  0.51624  0.02254  0.35919  1.0000
  H   H877      1.0  0.53871  0.12157  0.19643  1.0000
  C   C877      1.0  0.63493  0.11043  0.36606  1.0000
  C   C878      1.0  0.63818  0.12457  0.34706  1.0000
  C   C879      1.0  0.65413  0.13541  0.34140  1.0000
  H   H878      1.0  0.62262  0.10152  0.36936  1.0000
  H   H879      1.0  0.49352  0.08998  0.27455  1.0000
  C   C880      1.0  0.66343  0.11851  0.37332  1.0000
  H   H880      1.0  0.53085  0.02315  0.23541  1.0000
  H   H881      1.0  0.67324  0.11592  0.38332  1.0000
  N   N74       1.0  0.52837  0.10247  0.23120  1.0000
  C   C881      1.0  0.52353  0.99373  0.33553  1.0000
  C   C882      1.0  0.50525  0.01621  0.23318  1.0000
  C   C883      1.0  0.50764  0.02298  0.37764  1.0000
  H   H882      1.0  0.68510  0.14600  0.32167  1.0000
  C   C884      1.0  0.50624  0.09358  0.26942  1.0000
  C   C885      1.0  0.53863  0.10252  0.25537  1.0000
  S   S298      1.0  0.70818  0.12736  0.30093  1.0000
  C   C886      1.0  0.64761  0.10735  0.37930  1.0000
  C   C887      1.0  0.50536  0.01372  0.40616  1.0000
  C   C888      1.0  0.51238  0.09825  0.23792  1.0000
  H   H883      1.0  0.64519  0.09614  0.39335  1.0000
  H   H884      1.0  0.51257  0.03054  0.14383  1.0000
  H   H885      1.0  0.54501  0.10414  0.19244  1.0000
  H   H886      1.0  0.65662  0.14597  0.32540  1.0000
  H   H887      1.0  0.50384  0.01336  0.47664  1.0000
  H   H888      1.0  0.55129  0.10572  0.25002  1.0000
  S   S299      1.0  0.47085  0.03224  0.07472  1.0000
  C   C889      1.0  0.52082  0.02230  0.22027  1.0000
  C   C890      1.0  0.53469  0.10777  0.19831  1.0000
  S   S300      1.0  0.70933  0.16275  0.27287  1.0000
  H   H889      1.0  0.50141  0.04113  0.35237  1.0000
  H   H890      1.0  0.50423  0.09813  0.21873  1.0000
  C   C891      1.0  0.51037  0.02630  0.16882  1.0000
  C   C892      1.0  0.53025  0.98759  0.38948  1.0000
  C   C893      1.0  0.49920  0.03330  0.37369  1.0000
  H   H891      1.0  0.52544  0.10159  0.17954  1.0000
  C   C894      1.0  0.51661  0.09357  0.29418  1.0000
  C   C895      1.0  0.49247  0.01538  0.21349  1.0000
  H   H892      1.0  0.68541  0.15624  0.36063  1.0000
  H   H893      1.0  0.54104  0.09830  0.30645  1.0000
  H   H894      1.0  0.51211  0.09002  0.31882  1.0000
  C   C896      1.0  0.52344  0.02739  0.18791  1.0000
  C   C897      1.0  0.48852  0.03414  0.39805  1.0000
  Fe  Fe149     1.0  0.47982  0.04846  0.03062  1.0000
  H   H895      1.0  0.53559  0.03259  0.17798  1.0000
  S   S301      1.0  0.70976  0.13333  0.22180  1.0000
  H   H896      1.0  0.47890  0.02614  0.44588  1.0000
  H   H897      1.0  0.50320  0.01224  0.25838  1.0000
  C   C898      1.0  0.48655  0.02471  0.42628  1.0000
  N   N75       1.0  0.49491  0.01464  0.42998  1.0000
  H   H898      1.0  0.48545  0.02726  0.13967  1.0000
  C   C899      1.0  0.49369  0.00582  0.46064  1.0000
  H   H899      1.0  0.47322  0.02388  0.17539  1.0000
  H   H900      1.0  0.48240  0.04265  0.39588  1.0000
  C   C900      1.0  0.48149  0.01929  0.16162  1.0000
  H   H901      1.0  0.53783  0.99138  0.41071  1.0000
  H   H902      1.0  0.48039  0.01071  0.22371  1.0000
  H   H903      1.0  0.49407  0.99327  0.45608  1.0000
  H   H904      1.0  0.71605  0.07629  0.18244  1.0000
  S   S302      1.0  0.50224  0.04531  0.50170  1.0000
  H   H905      1.0  0.47206  0.00701  0.00691  1.0000
  Fe  Fe150     1.0  0.69900  0.13665  0.77751  1.0000
  H   H906      1.0  0.57172  0.10318  0.87125  1.0000
  S   S303      1.0  0.67228  0.13102  0.76944  1.0000
  H   H907      1.0  0.66506  0.15451  0.81569  1.0000
  H   H908      1.0  0.69220  0.13228  0.88535  1.0000
  Fe  Fe151     1.0  0.57958  0.06906  0.81413  1.0000
  S   S304      1.0  0.56781  0.05057  0.77371  1.0000
  S   S305      1.0  0.60609  0.07827  0.82935  1.0000
  Fe  Fe152     1.0  0.54714  0.06879  0.83829  1.0000
  S   S306      1.0  0.53299  0.05079  0.79941  1.0000
  S   S307      1.0  0.53555  0.08061  0.87523  1.0000
  Fe  Fe153     1.0  0.54859  0.03675  0.81021  1.0000
  S   S308      1.0  0.53627  0.00847  0.80608  1.0000
  Fe  Fe154     1.0  0.55281  0.06568  0.76538  1.0000
  S   S309      1.0  0.54859  0.06983  0.71238  1.0000
  S   S310      1.0  0.56137  0.05367  0.85175  1.0000
  S   S311      1.0  0.56596  0.08528  0.80325  1.0000
  H   H909      1.0  0.54131  0.02052  0.73924  1.0000
  S   S312      1.0  0.48391  0.07187  0.56144  1.0000
  C   C901      1.0  0.69892  0.11090  0.65618  1.0000
  H   H910      1.0  0.69056  0.08681  0.76124  1.0000
  H   H911      1.0  0.54821  0.03670  0.70931  1.0000
  H   H912      1.0  0.68361  0.16640  0.79493  1.0000
  C   C902      1.0  0.68062  0.10644  0.70202  1.0000
  C   C903      1.0  0.53593  0.00250  0.87212  1.0000
  H   H913      1.0  0.71171  0.15702  0.91444  1.0000
  H   H914      1.0  0.54441  0.01532  0.87478  1.0000
  C   C904      1.0  0.53923  0.02388  0.71421  1.0000
  C   C905      1.0  0.52418  0.06903  0.90857  1.0000
  C   C906      1.0  0.52413  0.05334  0.91619  1.0000
  C   C907      1.0  0.51589  0.04498  0.94421  1.0000
  C   C908      1.0  0.50734  0.05204  0.96445  1.0000
  C   C909      1.0  0.50722  0.06763  0.95660  1.0000
  C   C910      1.0  0.51574  0.07614  0.92892  1.0000
  H   H915      1.0  0.53065  0.04777  0.90080  1.0000
  H   H916      1.0  0.51618  0.03300  0.95016  1.0000
  H   H917      1.0  0.58997  0.11406  0.89391  1.0000
  H   H918      1.0  0.51575  0.08830  0.92325  1.0000
  C   C911      1.0  0.52963  0.06769  0.69730  1.0000
  C   C912      1.0  0.52751  0.06759  0.66341  1.0000
  C   C913      1.0  0.51243  0.06521  0.65041  1.0000
  C   C914      1.0  0.49939  0.06314  0.67130  1.0000
  C   C915      1.0  0.50161  0.06362  0.70519  1.0000
  C   C916      1.0  0.51661  0.06571  0.71816  1.0000
  H   H919      1.0  0.53755  0.06923  0.64709  1.0000
  H   H920      1.0  0.51091  0.06496  0.62427  1.0000
  H   H921      1.0  0.49161  0.06213  0.72154  1.0000
  H   H922      1.0  0.51812  0.06590  0.74428  1.0000
  C   C917      1.0  0.65407  0.11573  0.78563  1.0000
  C   C918      1.0  0.65393  0.10496  0.81073  1.0000
  C   C919      1.0  0.63917  0.09356  0.82353  1.0000
  C   C920      1.0  0.62434  0.09251  0.81119  1.0000
  C   C921      1.0  0.62451  0.10311  0.78577  1.0000
  C   C922      1.0  0.63926  0.11468  0.77326  1.0000
  H   H923      1.0  0.66513  0.10547  0.82054  1.0000
  H   H924      1.0  0.63923  0.08543  0.84316  1.0000
  H   H925      1.0  0.61327  0.10255  0.77597  1.0000
  H   H926      1.0  0.63915  0.12290  0.75386  1.0000
  H   H927      1.0  0.58907  0.09848  0.86311  1.0000
  H   H928      1.0  0.54836  0.07503  0.96751  1.0000
  H   H929      1.0  0.48099  0.11165  0.63062  1.0000
  H   H930      1.0  0.51658  0.01847  0.76082  1.0000
  C   C923      1.0  0.70476  0.09974  0.66962  1.0000
  H   H931      1.0  0.67586  0.13636  0.84104  1.0000
  N   N76       1.0  0.68605  0.16304  0.84527  1.0000
  H   H932      1.0  0.70303  0.08353  0.70957  1.0000
  C   C924      1.0  0.70439  0.15871  0.89521  1.0000
  C   C925      1.0  0.47337  0.99531  0.00102  1.0000
  N   N77       1.0  0.57670  0.08898  0.90801  1.0000
  C   C926      1.0  0.58410  0.07798  0.91128  1.0000
  C   C927      1.0  0.56438  0.08833  0.92862  1.0000
  C   C928      1.0  0.57862  0.06537  0.93459  1.0000
  H   H933      1.0  0.56106  0.05434  0.97268  1.0000
  H   H934      1.0  0.69908  0.18930  0.85279  1.0000
  S   S313      1.0  0.48002  0.05931  0.65619  1.0000
  H   H935      1.0  0.59398  0.07858  0.89514  1.0000
  H   H936      1.0  0.70395  0.11707  0.63345  1.0000
  H   H937      1.0  0.54132  0.01488  0.69690  1.0000
  C   C929      1.0  0.68425  0.14721  0.85386  1.0000
  C   C930      1.0  0.68663  0.11415  0.67226  1.0000
  S   S314      1.0  0.70806  0.12157  0.80914  1.0000
  H   H938      1.0  0.68200  0.12284  0.66212  1.0000
  H   H939      1.0  0.67644  0.09664  0.76253  1.0000
  C   C931      1.0  0.56569  0.06427  0.95497  1.0000
  H   H940      1.0  0.67083  0.07607  0.74380  1.0000
  N   N78       1.0  0.68685  0.09599  0.71558  1.0000
  H   H941      1.0  0.55850  0.09705  0.92602  1.0000
  C   C932      1.0  0.58220  0.10185  0.88290  1.0000
  H   H942      1.0  0.67122  0.10921  0.71461  1.0000
  C   C933      1.0  0.68082  0.08845  0.74730  1.0000
  H   H943      1.0  0.58419  0.05635  0.93636  1.0000
  H   H944      1.0  0.50074  0.07322  0.97204  1.0000
  C   C934      1.0  0.49227  0.02302  0.70301  1.0000
  C   C935      1.0  0.50270  0.02582  0.67626  1.0000
  H   H945      1.0  0.71544  0.18564  0.89758  1.0000
  H   H946      1.0  0.52648  0.02918  0.66002  1.0000
  C   C936      1.0  0.55861  0.07591  0.95222  1.0000
  S   S315      1.0  0.71717  0.16146  0.79619  1.0000
  C   C937      1.0  0.48577  0.99555  0.97976  1.0000
  C   C938      1.0  0.53145  0.99197  0.89934  1.0000
  H   H947      1.0  0.47767  0.10179  0.59048  1.0000
  C   C939      1.0  0.69337  0.14481  0.87896  1.0000
  S   S316      1.0  0.71452  0.13604  0.73395  1.0000
  N   N79       1.0  0.52296  0.02344  0.71059  1.0000
  C   C940      1.0  0.51275  0.02052  0.73694  1.0000
  C   C941      1.0  0.51817  0.02621  0.68060  1.0000
  C   C942      1.0  0.49731  0.02038  0.73360  1.0000
  Fe  Fe155     1.0  0.48248  0.04918  0.53178  1.0000
  C   C943      1.0  0.67677  0.16535  0.81820  1.0000
  H   H948      1.0  0.53654  0.99676  0.92291  1.0000
  C   C944      1.0  0.52980  0.99623  0.84137  1.0000
  H   H949      1.0  0.49391  0.00732  0.96957  1.0000
  H   H950      1.0  0.49906  0.02843  0.65262  1.0000
  H   H951      1.0  0.67411  0.17676  0.82193  1.0000
  C   C945      1.0  0.69719  0.17675  0.86043  1.0000
  C   C946      1.0  0.70647  0.17480  0.88574  1.0000
  H   H952      1.0  0.48007  0.09058  0.62479  1.0000
  H   H953      1.0  0.48943  0.01855  0.75472  1.0000
  Fe  Fe156     1.0  0.47353  0.05407  0.60262  1.0000
  H   H954      1.0  0.48051  0.02344  0.70011  1.0000
  C   C947      1.0  0.47494  0.09969  0.61699  1.0000
  S   S317      1.0  0.49746  0.04120  0.99981  1.0000
  C   C948      1.0  0.69839  0.09218  0.69929  1.0000
  H   H955      1.0  0.71436  0.09713  0.65749  1.0000
  S   S318      1.0  0.47407  0.03182  0.57450  1.0000
  Fe  Fe157     1.0  0.48688  0.41712  0.32582  1.0000
  C   C949      1.0  0.47971  0.62688  0.25093  1.0000
  S   S319      1.0  0.50428  0.43840  0.35706  1.0000
  C   C950      1.0  0.56803  0.47100  0.41367  1.0000
  S   S320      1.0  0.48498  0.42070  0.19956  1.0000
  S   S321      1.0  0.49228  0.40136  0.28612  1.0000
  Fe  Fe158     1.0  0.58595  0.49184  0.03744  1.0000
  H   H956      1.0  0.60156  0.51016  0.46945  1.0000
  H   H957      1.0  0.48803  0.57764  0.27978  1.0000
  Fe  Fe159     1.0  0.55772  0.46974  0.08131  1.0000
  S   S322      1.0  0.54016  0.47931  0.06047  1.0000
  S   S323      1.0  0.55248  0.45316  0.12599  1.0000
  C   C951      1.0  0.70447  0.51255  0.05122  1.0000
  H   H958      1.0  0.71349  0.56186  0.11573  1.0000
  Fe  Fe160     1.0  0.56039  0.50444  0.06448  1.0000
  S   S324      1.0  0.55724  0.52764  0.08425  1.0000
  S   S325      1.0  0.56720  0.46539  0.03193  1.0000
  S   S326      1.0  0.57759  0.49517  0.08813  1.0000
  C   C952      1.0  0.60523  0.50368  0.44905  1.0000
  C   C953      1.0  0.48577  0.38373  0.17499  1.0000
  C   C954      1.0  0.50619  0.37982  0.22072  1.0000
  C   C955      1.0  0.68903  0.52687  0.07692  1.0000
  H   H959      1.0  0.50723  0.40093  0.15129  1.0000
  Fe  Fe161     1.0  0.48586  0.54430  0.16903  1.0000
  S   S327      1.0  0.48885  0.56600  0.13695  1.0000
  S   S328      1.0  0.49279  0.52241  0.15601  1.0000
  Fe  Fe162     1.0  0.49284  0.58179  0.18321  1.0000
  S   S329      1.0  0.51416  0.60635  0.19583  1.0000
  S   S330      1.0  0.49203  0.56027  0.21437  1.0000
  C   C956      1.0  0.51826  0.62823  0.19348  1.0000
  C   C957      1.0  0.50745  0.63432  0.18025  1.0000
  C   C958      1.0  0.53267  0.63983  0.20673  1.0000
  H   H960      1.0  0.49631  0.62562  0.17003  1.0000
  H   H961      1.0  0.54116  0.63531  0.21698  1.0000
  H   H962      1.0  0.59999  0.47456  0.47759  1.0000
  C   C959      1.0  0.50238  0.39237  0.17136  1.0000
  C   C960      1.0  0.49752  0.59052  0.27947  1.0000
  H   H963      1.0  0.47788  0.38576  0.15750  1.0000
  H   H964      1.0  0.50275  0.59349  0.30419  1.0000
  C   C961      1.0  0.47605  0.52720  0.08538  1.0000
  H   H965      1.0  0.67903  0.50555  0.04433  1.0000
  H   H966      1.0  0.50694  0.59042  0.26166  1.0000
  H   H967      1.0  0.70530  0.50284  0.03500  1.0000
  C   C962      1.0  0.70152  0.55160  0.11207  1.0000
  C   C963      1.0  0.53857  0.52635  0.10069  1.0000
  C   C964      1.0  0.53704  0.54091  0.11311  1.0000
  C   C965      1.0  0.52273  0.54006  0.12876  1.0000
  C   C966      1.0  0.50995  0.52457  0.13233  1.0000
  C   C967      1.0  0.51132  0.51008  0.11915  1.0000
  C   C968      1.0  0.52554  0.51097  0.10329  1.0000
  H   H968      1.0  0.54707  0.55287  0.11117  1.0000
  H   H969      1.0  0.52182  0.55129  0.13902  1.0000
  H   H970      1.0  0.50150  0.49805  0.12202  1.0000
  H   H971      1.0  0.52653  0.49968  0.09393  1.0000
  C   C969      1.0  0.50402  0.43094  0.18073  1.0000
  C   C970      1.0  0.50470  0.43649  0.14857  1.0000
  C   C971      1.0  0.51948  0.44368  0.13174  1.0000
  C   C972      1.0  0.53373  0.44513  0.14681  1.0000
  C   C973      1.0  0.53306  0.43969  0.17907  1.0000
  C   C974      1.0  0.51830  0.43279  0.19612  1.0000
  H   H972      1.0  0.49370  0.43505  0.13643  1.0000
  H   H973      1.0  0.51981  0.44773  0.10687  1.0000
  H   H974      1.0  0.54404  0.44078  0.19090  1.0000
  H   H975      1.0  0.51793  0.42853  0.22085  1.0000
  C   C975      1.0  0.51276  0.43896  0.39598  1.0000
  C   C976      1.0  0.52103  0.45465  0.41110  1.0000
  C   C977      1.0  0.52855  0.45590  0.44138  1.0000
  C   C978      1.0  0.52809  0.44144  0.45668  1.0000
  C   C979      1.0  0.51979  0.42574  0.44167  1.0000
  C   C980      1.0  0.51206  0.42447  0.41156  1.0000
  H   H976      1.0  0.52163  0.46592  0.39923  1.0000
  C   C981      1.0  0.47513  0.59841  0.26470  1.0000
  H   H977      1.0  0.51944  0.41448  0.45320  1.0000
  H   H978      1.0  0.50582  0.41234  0.40015  1.0000
  C   C982      1.0  0.68977  0.51406  0.05643  1.0000
  H   H979      1.0  0.47646  0.55588  0.06284  1.0000
  N   N80       1.0  0.53664  0.49627  0.17104  1.0000
  C   C983      1.0  0.52333  0.48284  0.18070  1.0000
  C   C984      1.0  0.53804  0.51226  0.17854  1.0000
  C   C985      1.0  0.51061  0.48521  0.19697  1.0000
  C   C986      1.0  0.52560  0.51510  0.19507  1.0000
  C   C987      1.0  0.51172  0.50148  0.20386  1.0000
  C   C988      1.0  0.54952  0.49338  0.15300  1.0000
  H   H980      1.0  0.52240  0.47018  0.17537  1.0000
  H   H981      1.0  0.54849  0.52294  0.17053  1.0000
  H   H982      1.0  0.49988  0.47450  0.20369  1.0000
  H   H983      1.0  0.52636  0.52779  0.19953  1.0000
  H   H984      1.0  0.50171  0.50360  0.21529  1.0000
  H   H985      1.0  0.54440  0.48348  0.13400  1.0000
  H   H986      1.0  0.55758  0.50484  0.14017  1.0000
  H   H987      1.0  0.55673  0.48926  0.16976  1.0000
  C   C989      1.0  0.58071  0.48634  0.42000  1.0000
  C   C990      1.0  0.56706  0.45682  0.43052  1.0000
  H   H988      1.0  0.62338  0.52781  0.05711  1.0000
  N   N81       1.0  0.47955  0.37340  0.20089  1.0000
  C   C991      1.0  0.71702  0.53654  0.08672  1.0000
  C   C992      1.0  0.50159  0.61931  0.26659  1.0000
  H   H989      1.0  0.69381  0.55730  0.10056  1.0000
  H   H990      1.0  0.47693  0.51476  0.08616  1.0000
  C   C993      1.0  0.59118  0.47362  0.45926  1.0000
  H   H991      1.0  0.61634  0.50209  0.45641  1.0000
  H   H992      1.0  0.51438  0.62284  0.26989  1.0000
  C   C994      1.0  0.63335  0.52688  0.04337  1.0000
  H   H993      1.0  0.53492  0.46806  0.45259  1.0000
  H   H994      1.0  0.65068  0.55021  0.06246  1.0000
  N   N82       1.0  0.59225  0.48742  0.44213  1.0000
  H   H995      1.0  0.58120  0.49739  0.40730  1.0000
  H   H996      1.0  0.51401  0.37836  0.23910  1.0000
  S   S331      1.0  0.68157  0.55491  0.03478  1.0000
  Fe  Fe163     1.0  0.47957  0.41205  0.25215  1.0000
  N   N83       1.0  0.70262  0.53813  0.09114  1.0000
  C   C995      1.0  0.63080  0.51296  0.02291  1.0000
  H   H997      1.0  0.67758  0.52806  0.08061  1.0000
  Fe  Fe164     1.0  0.70720  0.56270  0.01355  1.0000
  S   S332      1.0  0.57025  0.50322  0.01420  1.0000
  H   H998      1.0  0.55880  0.47012  0.39628  1.0000
  C   C996      1.0  0.71818  0.52377  0.06666  1.0000
  H   H999      1.0  0.55716  0.44490  0.42620  1.0000
  H   H1000     1.0  0.52548  0.39761  0.19252  1.0000
  C   C997      1.0  0.64403  0.51207  0.00532  1.0000
  C   C998      1.0  0.57857  0.45814  0.45376  1.0000
  C   C999      1.0  0.48954  0.37115  0.22331  1.0000
  C   C1000     1.0  0.49601  0.63151  0.25717  1.0000
  H   H1001     1.0  0.60835  0.51184  0.42736  1.0000
  H   H1002     1.0  0.50439  0.64433  0.25346  1.0000
  S   S333      1.0  0.53877  0.44254  0.49312  1.0000
  C   C1001     1.0  0.66212  0.53872  0.02873  1.0000
  C   C1002     1.0  0.64890  0.53959  0.04635  1.0000
  H   H1003     1.0  0.47534  0.63614  0.24265  1.0000
  H   H1004     1.0  0.69627  0.54654  0.13615  1.0000
  C   C1003     1.0  0.51262  0.39054  0.19460  1.0000
  H   H1005     1.0  0.57752  0.44730  0.46786  1.0000
  N   N84       1.0  0.49120  0.60300  0.27005  1.0000
  H   H1006     1.0  0.48464  0.36282  0.24367  1.0000
  S   S334      1.0  0.47577  0.42893  0.29044  1.0000
  H   H1007     1.0  0.48845  0.53681  0.08788  1.0000
  C   C1004     1.0  0.65957  0.52485  0.00811  1.0000
  Fe  Fe165     1.0  0.55108  0.47712  0.01160  1.0000
  H   H1008     1.0  0.47369  0.46379  0.35171  1.0000
  S   S335      1.0  0.61149  0.49633  0.01835  1.0000
  C   C1005     1.0  0.47017  0.54522  0.04699  1.0000
  Fe  Fe166     1.0  0.49016  0.40717  0.82965  1.0000
  S   S336      1.0  0.49119  0.42896  0.79983  1.0000
  S   S337      1.0  0.50816  0.40882  0.86906  1.0000
  Fe  Fe167     1.0  0.48291  0.41054  0.75825  1.0000
  S   S338      1.0  0.49000  0.41716  0.70511  1.0000
  C   C1006     1.0  0.49463  0.50108  0.58790  1.0000
  Fe  Fe168     1.0  0.58552  0.49280  0.54089  1.0000
  C   C1007     1.0  0.50706  0.47938  0.71732  1.0000
  H   H1009     1.0  0.50383  0.49737  0.59759  1.0000
  Fe  Fe169     1.0  0.55898  0.47736  0.59370  1.0000
  S   S339      1.0  0.53905  0.47580  0.56051  1.0000
  S   S340      1.0  0.55533  0.46900  0.64648  1.0000
  H   H1010     1.0  0.67009  0.52627  0.50654  1.0000
  H   H1011     1.0  0.50350  0.39569  0.65797  1.0000
  Fe  Fe170     1.0  0.55581  0.50144  0.54517  1.0000
  S   S341      1.0  0.54511  0.52082  0.53943  1.0000
  S   S342      1.0  0.57074  0.46630  0.55645  1.0000
  S   S343      1.0  0.57513  0.50386  0.58111  1.0000
  H   H1012     1.0  0.61306  0.51708  0.96037  1.0000
  H   H1013     1.0  0.49808  0.51928  0.77737  1.0000
  C   C1008     1.0  0.48497  0.50582  0.60967  1.0000
  H   H1014     1.0  0.48673  0.50584  0.63578  1.0000
  H   H1015     1.0  0.56207  0.46385  0.91157  1.0000
  Fe  Fe171     1.0  0.49614  0.54546  0.67690  1.0000
  C   C1009     1.0  0.68402  0.52273  0.59096  1.0000
  S   S344      1.0  0.51425  0.53337  0.67222  1.0000
  H   H1016     1.0  0.70490  0.56466  0.59835  1.0000
  S   S345      1.0  0.49004  0.60227  0.68899  1.0000
  S   S346      1.0  0.49695  0.56134  0.72146  1.0000
  C   C1010     1.0  0.50658  0.62072  0.70177  1.0000
  C   C1011     1.0  0.52190  0.62084  0.70693  1.0000
  C   C1012     1.0  0.50457  0.63608  0.70379  1.0000
  H   H1017     1.0  0.52372  0.60921  0.70547  1.0000
  C   C1013     1.0  0.66859  0.52266  0.58872  1.0000
  C   C1014     1.0  0.63000  0.51598  0.52372  1.0000
  C   C1015     1.0  0.48152  0.50678  0.54283  1.0000
  H   H1018     1.0  0.51174  0.49286  0.54499  1.0000
  C   C1016     1.0  0.69713  0.53793  0.59462  1.0000
  Fe  Fe172     1.0  0.55184  0.46668  0.52192  1.0000
  H   H1019     1.0  0.54690  0.63608  0.71586  1.0000
  H   H1020     1.0  0.55322  0.42710  0.67186  1.0000
  H   H1021     1.0  0.58038  0.46254  0.92461  1.0000
  S   S347      1.0  0.61203  0.49770  0.52908  1.0000
  H   H1022     1.0  0.51339  0.61451  0.62404  1.0000
  C   C1017     1.0  0.53713  0.52515  0.57639  1.0000
  C   C1018     1.0  0.52858  0.53569  0.57705  1.0000
  C   C1019     1.0  0.52156  0.53853  0.60637  1.0000
  C   C1020     1.0  0.52324  0.53093  0.63507  1.0000
  C   C1021     1.0  0.53191  0.52056  0.63433  1.0000
  C   C1022     1.0  0.53872  0.51757  0.60509  1.0000
  H   H1023     1.0  0.52731  0.54158  0.55488  1.0000
  H   H1024     1.0  0.51490  0.54656  0.60678  1.0000
  H   H1025     1.0  0.53336  0.51472  0.65642  1.0000
  H   H1026     1.0  0.54527  0.50944  0.60487  1.0000
  C   C1023     1.0  0.50749  0.43374  0.69111  1.0000
  C   C1024     1.0  0.50818  0.43880  0.65860  1.0000
  C   C1025     1.0  0.52255  0.45033  0.64507  1.0000
  C   C1026     1.0  0.53641  0.45680  0.66391  1.0000
  C   C1027     1.0  0.53551  0.45240  0.69691  1.0000
  C   C1028     1.0  0.52108  0.44095  0.71054  1.0000
  H   H1027     1.0  0.49767  0.43335  0.64350  1.0000
  H   H1028     1.0  0.52304  0.45374  0.61976  1.0000
  H   H1029     1.0  0.54618  0.45740  0.71169  1.0000
  H   H1030     1.0  0.52070  0.43715  0.73561  1.0000
  C   C1029     1.0  0.51615  0.42652  0.89544  1.0000
  C   C1030     1.0  0.52419  0.42546  0.92382  1.0000
  C   C1031     1.0  0.53046  0.43926  0.94554  1.0000
  C   C1032     1.0  0.52892  0.45432  0.93876  1.0000
  C   C1033     1.0  0.52113  0.45546  0.91011  1.0000
  C   C1034     1.0  0.51459  0.44159  0.88878  1.0000
  H   H1031     1.0  0.52545  0.41385  0.92913  1.0000
  H   H1032     1.0  0.53640  0.43819  0.96754  1.0000
  H   H1033     1.0  0.51990  0.46706  0.90459  1.0000
  H   H1034     1.0  0.50847  0.44259  0.86702  1.0000
  S   S348      1.0  0.56721  0.49229  0.50356  1.0000
  C   C1035     1.0  0.53506  0.63615  0.71276  1.0000
  C   C1036     1.0  0.49549  0.46648  0.73474  1.0000
  S   S349      1.0  0.48409  0.38893  0.78671  1.0000
  H   H1035     1.0  0.49626  0.48734  0.51485  1.0000
  H   H1036     1.0  0.49505  0.62949  0.62077  1.0000
  N   N85       1.0  0.49928  0.49961  0.74619  1.0000
  S   S350      1.0  0.47207  0.52622  0.68957  1.0000
  H   H1037     1.0  0.51340  0.52601  0.74620  1.0000
  H   H1038     1.0  0.55839  0.48988  0.91575  1.0000
  C   C1037     1.0  0.48572  0.47028  0.75760  1.0000
  C   C1038     1.0  0.64450  0.51401  0.51644  1.0000
  C   C1039     1.0  0.50097  0.51701  0.75169  1.0000
  H   H1039     1.0  0.52321  0.41693  0.55406  1.0000
  H   H1040     1.0  0.61927  0.53402  0.53172  1.0000
  C   C1040     1.0  0.59273  0.52103  0.94124  1.0000
  C   C1041     1.0  0.67720  0.56860  0.59320  1.0000
  S   S351      1.0  0.53607  0.47201  0.96535  1.0000
  N   N86       1.0  0.67952  0.55275  0.59238  1.0000
  C   C1042     1.0  0.57055  0.49584  0.92476  1.0000
  H   H1041     1.0  0.56557  0.46301  0.95447  1.0000
  C   C1043     1.0  0.48772  0.48701  0.76294  1.0000
  C   C1044     1.0  0.65907  0.52803  0.51194  1.0000
  C   C1045     1.0  0.50785  0.63656  0.62367  1.0000
  H   H1042     1.0  0.54407  0.42918  0.55958  1.0000
  C   C1046     1.0  0.69463  0.55291  0.59548  1.0000
  H   H1043     1.0  0.57040  0.52069  0.92281  1.0000
  N   N87       1.0  0.53087  0.42023  0.60378  1.0000
  C   C1047     1.0  0.54397  0.42656  0.62354  1.0000
  H   H1044     1.0  0.55512  0.43606  0.61468  1.0000
  H   H1045     1.0  0.60059  0.48635  0.95317  1.0000
  H   H1046     1.0  0.51760  0.50596  0.70936  1.0000
  H   H1047     1.0  0.66606  0.56736  0.58030  1.0000
  C   C1048     1.0  0.59409  0.49386  0.94552  1.0000
  H   H1048     1.0  0.65828  0.51094  0.58557  1.0000
  C   C1049     1.0  0.57141  0.46805  0.93075  1.0000
  C   C1050     1.0  0.53194  0.42635  0.57043  1.0000
  H   H1049     1.0  0.59798  0.53451  0.94519  1.0000
  Fe  Fe173     1.0  0.48496  0.57401  0.68987  1.0000
  N   N88       1.0  0.57898  0.48638  0.93304  1.0000
  C   C1051     1.0  0.54297  0.42154  0.65598  1.0000
  H   H1050     1.0  0.52724  0.40673  0.69379  1.0000
  C   C1052     1.0  0.57729  0.51329  0.92868  1.0000
  H   H1051     1.0  0.48183  0.40714  0.91095  1.0000
  C   C1053     1.0  0.48759  0.43703  0.95399  1.0000
  C   C1054     1.0  0.51649  0.40917  0.61573  1.0000
  C   C1055     1.0  0.50871  0.49598  0.72322  1.0000
  C   C1056     1.0  0.52841  0.41015  0.66828  1.0000
  C   C1057     1.0  0.51506  0.40391  0.64808  1.0000
  Fe  Fe174     1.0  0.47205  0.54251  0.73245  1.0000
  H   H1052     1.0  0.65452  0.53770  0.58743  1.0000
  H   H1053     1.0  0.50592  0.40471  0.60055  1.0000
  S   S352      1.0  0.48581  0.55914  0.64387  1.0000
  N   N89       1.0  0.47694  0.42739  0.93120  1.0000
  C   C1058     1.0  0.66653  0.53787  0.58976  1.0000
  H   H1054     1.0  0.47461  0.40422  0.95254  1.0000
  H   H1055     1.0  0.49278  0.63617  0.70002  1.0000
  C   C1059     1.0  0.47337  0.51102  0.59753  1.0000
  C   C1060     1.0  0.47153  0.51142  0.56392  1.0000
  H   H1056     1.0  0.68583  0.51106  0.58979  1.0000
  H   H1057     1.0  0.52950  0.43797  0.57043  1.0000
  C   C1061     1.0  0.60122  0.51128  0.94964  1.0000
  N   N90       1.0  0.49290  0.50171  0.55493  1.0000
  H   H1058     1.0  0.64448  0.50152  0.51429  1.0000
  H   H1059     1.0  0.50008  0.46192  0.97408  1.0000
  C   C1062     1.0  0.50345  0.49736  0.53217  1.0000
  C   C1063     1.0  0.47339  0.40939  0.92866  1.0000
  H   H1060     1.0  0.67657  0.57273  0.61879  1.0000
  H   H1061     1.0  0.49269  0.51990  0.73562  1.0000
  H   H1062     1.0  0.51468  0.47653  0.69938  1.0000
  H   H1063     1.0  0.49404  0.45354  0.73048  1.0000
  C   C1064     1.0  0.49139  0.45429  0.95635  1.0000
  C   C1065     1.0  0.63027  0.53222  0.52622  1.0000
  H   H1064     1.0  0.70920  0.53819  0.59653  1.0000
  Fe  Fe175     1.0  0.70441  0.56784  0.50584  1.0000
  H   H1065     1.0  0.49352  0.43147  0.97003  1.0000
  S   S353      1.0  0.71602  0.58067  0.97205  1.0000
  H   H1066     1.0  0.68720  0.57846  0.58005  1.0000
  H   H1067     1.0  0.48757  0.47514  0.93588  1.0000
  S   S354      1.0  0.67744  0.56258  0.51096  1.0000
  C   C1066     1.0  0.51818  0.62811  0.62548  1.0000
  H   H1068     1.0  0.64483  0.55873  0.52370  1.0000
  H   H1069     1.0  0.51110  0.50863  0.51833  1.0000
  C   C1067     1.0  0.64482  0.54624  0.52165  1.0000
  C   C1068     1.0  0.65935  0.54429  0.51463  1.0000
  C   C1069     1.0  0.48449  0.46172  0.93473  1.0000
  H   H1070     1.0  0.47998  0.48985  0.78060  1.0000
  H   H1071     1.0  0.47664  0.46030  0.77109  1.0000
  C   C1070     1.0  0.53446  0.63715  0.63135  1.0000
  C   C1071     1.0  0.47025  0.43462  0.90968  1.0000
  S   S355      1.0  0.71706  0.55041  0.51393  1.0000
  H   H1072     1.0  0.48018  0.50735  0.51671  1.0000
  H   H1073     1.0  0.54243  0.63060  0.63439  1.0000
  H   H1074     1.0  0.64225  0.50138  0.98940  1.0000
  H   H1075     1.0  0.70842  0.61674  0.91965  1.0000
  H   H1076     1.0  0.66955  0.52392  0.99439  1.0000
  C   C1072     1.0  0.47388  0.45186  0.91119  1.0000
  C   C1073     1.0  0.51770  0.65137  0.70985  1.0000
  Fe  Fe176     1.0  0.69207  0.89596  0.07143  1.0000
  S   S356      1.0  0.61909  0.86180  0.48091  1.0000
  S   S357      1.0  0.66801  0.89596  0.05689  1.0000
  S   S358      1.0  0.71123  0.81517  0.24005  1.0000
  S   S359      1.0  0.70479  0.91079  0.11555  1.0000
  S   S360      1.0  0.69581  0.87260  0.08397  1.0000
  S   S361      1.0  0.69802  0.79953  0.38573  1.0000
  S   S362      1.0  0.69389  0.82154  0.32516  1.0000
  H   H1077     1.0  0.68075  0.85428  0.48954  1.0000
  Fe  Fe177     1.0  0.68114  0.79546  0.34368  1.0000
  S   S363      1.0  0.65406  0.78739  0.34722  1.0000
  S   S364      1.0  0.69451  0.78408  0.31100  1.0000
  H   H1078     1.0  0.71034  0.82280  0.00915  1.0000
  C   C1074     1.0  0.65489  0.84279  0.48697  1.0000
  H   H1079     1.0  0.54094  0.92290  0.37225  1.0000
  Fe  Fe178     1.0  0.57543  0.80851  0.45086  1.0000
  S   S365      1.0  0.54081  0.84046  0.43797  1.0000
  S   S366      1.0  0.58320  0.79315  0.41370  1.0000
  C   C1075     1.0  0.70984  0.83938  0.45267  1.0000
  S   S367      1.0  0.55212  0.80457  0.47721  1.0000
  C   C1076     1.0  0.66541  0.80973  0.26049  1.0000
  S   S368      1.0  0.54284  0.78613  0.03868  1.0000
  S   S369      1.0  0.58024  0.83501  0.43826  1.0000
  H   H1080     1.0  0.70846  0.72385  0.31394  1.0000
  Fe  Fe179     1.0  0.49356  0.93301  0.42078  1.0000
  S   S370      1.0  0.49532  0.91047  0.39591  1.0000
  S   S371      1.0  0.51406  0.95848  0.42226  1.0000
  H   H1081     1.0  0.55672  0.73795  0.38615  1.0000
  Fe  Fe180     1.0  0.48597  0.89697  0.44281  1.0000
  S   S372      1.0  0.49881  0.88388  0.47291  1.0000
  H   H1082     1.0  0.53367  0.85424  0.49988  1.0000
  S   S373      1.0  0.48581  0.92020  0.46867  1.0000
  H   H1083     1.0  0.56234  0.74086  0.06649  1.0000
  Fe  Fe181     1.0  0.55515  0.74062  0.25492  1.0000
  S   S374      1.0  0.58000  0.75482  0.23516  1.0000
  S   S375      1.0  0.54308  0.75074  0.29417  1.0000
  Fe  Fe182     1.0  0.54951  0.70932  0.21172  1.0000
  S   S376      1.0  0.57426  0.72122  0.18921  1.0000
  S   S377      1.0  0.52909  0.68518  0.19352  1.0000
  Fe  Fe183     1.0  0.58286  0.73043  0.23988  1.0000
  S   S378      1.0  0.60614  0.72965  0.25773  1.0000
  Fe  Fe184     1.0  0.56963  0.74488  0.18595  1.0000
  S   S379      1.0  0.58006  0.76091  0.14133  1.0000
  S   S380      1.0  0.55855  0.71659  0.26301  1.0000
  S   S381      1.0  0.54436  0.73266  0.20513  1.0000
  H   H1084     1.0  0.64783  0.83894  0.00988  1.0000
  C   C1077     1.0  0.52287  0.80725  0.38285  1.0000
  C   C1078     1.0  0.65968  0.76814  0.22229  1.0000
  C   C1079     1.0  0.53494  0.92672  0.42215  1.0000
  H   H1085     1.0  0.62919  0.83230  0.49212  1.0000
  C   C1080     1.0  0.57177  0.78232  0.37998  1.0000
  C   C1081     1.0  0.57980  0.77925  0.35248  1.0000
  C   C1082     1.0  0.57114  0.76943  0.32618  1.0000
  C   C1083     1.0  0.55435  0.76263  0.32719  1.0000
  C   C1084     1.0  0.54631  0.76571  0.35468  1.0000
  C   C1085     1.0  0.55498  0.77558  0.38099  1.0000
  H   H1086     1.0  0.59281  0.78431  0.35169  1.0000
  H   H1087     1.0  0.57745  0.76714  0.30517  1.0000
  H   H1088     1.0  0.53332  0.76043  0.35560  1.0000
  H   H1089     1.0  0.54870  0.77768  0.40227  1.0000
  C   C1086     1.0  0.56969  0.76899  0.11481  1.0000
  C   C1087     1.0  0.57788  0.77790  0.08732  1.0000
  C   C1088     1.0  0.56989  0.78363  0.06435  1.0000
  C   C1089     1.0  0.55360  0.78054  0.06871  1.0000
  C   C1090     1.0  0.54546  0.77188  0.09649  1.0000
  C   C1091     1.0  0.55345  0.76609  0.11945  1.0000
  H   H1090     1.0  0.59041  0.78007  0.08344  1.0000
  H   H1091     1.0  0.57622  0.79007  0.04284  1.0000
  H   H1092     1.0  0.53286  0.76948  0.10008  1.0000
  H   H1093     1.0  0.54701  0.75923  0.14051  1.0000
  H   H1094     1.0  0.53108  0.93668  0.41589  1.0000
  C   C1092     1.0  0.52762  0.85760  0.48041  1.0000
  H   H1095     1.0  0.70529  0.82674  0.44278  1.0000
  C   C1093     1.0  0.51003  0.87141  0.46251  1.0000
  C   C1094     1.0  0.51164  0.86640  0.43041  1.0000
  H   H1096     1.0  0.52413  0.74260  0.05991  1.0000
  H   H1097     1.0  0.51523  0.84577  0.06490  1.0000
  H   H1098     1.0  0.53779  0.90463  0.48635  1.0000
  H   H1099     1.0  0.69450  0.85531  0.00965  1.0000
  C   C1095     1.0  0.52542  0.66335  0.19373  1.0000
  S   S382      1.0  0.70827  0.88111  0.17920  1.0000
  C   C1096     1.0  0.51757  0.97177  0.38848  1.0000
  C   C1097     1.0  0.50790  0.96692  0.36087  1.0000
  N   N91       1.0  0.59733  0.75284  0.38663  1.0000
  H   H1100     1.0  0.49817  0.95471  0.35983  1.0000
  C   C1098     1.0  0.64144  0.77208  0.32010  1.0000
  C   C1099     1.0  0.62644  0.77230  0.31241  1.0000
  C   C1100     1.0  0.61562  0.75956  0.29272  1.0000
  C   C1101     1.0  0.61960  0.74630  0.28125  1.0000
  C   C1102     1.0  0.63464  0.74616  0.28882  1.0000
  C   C1103     1.0  0.64561  0.75911  0.30784  1.0000
  H   H1101     1.0  0.62310  0.78226  0.32201  1.0000
  H   H1102     1.0  0.60404  0.75976  0.28723  1.0000
  H   H1103     1.0  0.63780  0.73595  0.28003  1.0000
  H   H1104     1.0  0.65707  0.75875  0.31393  1.0000
  C   C1104     1.0  0.55154  0.81597  0.37092  1.0000
  H   H1105     1.0  0.54304  0.78871  0.29244  1.0000
  C   C1105     1.0  0.56881  0.73915  0.37947  1.0000
  C   C1106     1.0  0.58203  0.75046  0.39632  1.0000
  C   C1107     1.0  0.52943  0.70742  0.11712  1.0000
  C   C1108     1.0  0.52107  0.85693  0.42347  1.0000
  H   H1106     1.0  0.62196  0.76997  0.38742  1.0000
  C   C1109     1.0  0.56137  0.80595  0.32327  1.0000
  C   C1110     1.0  0.65378  0.87828  0.03733  1.0000
  C   C1111     1.0  0.65696  0.86396  0.03051  1.0000
  C   C1112     1.0  0.58694  0.73186  0.34442  1.0000
  H   H1107     1.0  0.65309  0.87909  0.48493  1.0000
  H   H1108     1.0  0.59484  0.82023  0.05948  1.0000
  C   C1113     1.0  0.63891  0.87852  0.02871  1.0000
  H   H1109     1.0  0.66844  0.86370  0.03672  1.0000
  C   C1114     1.0  0.70832  0.84222  0.48626  1.0000
  H   H1110     1.0  0.47514  0.94982  0.30737  1.0000
  H   H1111     1.0  0.57124  0.80518  0.30873  1.0000
  H   H1112     1.0  0.70801  0.84479  0.26935  1.0000
  H   H1113     1.0  0.64746  0.86149  0.14192  1.0000
  C   C1115     1.0  0.53293  0.79721  0.33397  1.0000
  H   H1114     1.0  0.52211  0.85305  0.39859  1.0000
  H   H1115     1.0  0.66666  0.76055  0.21760  1.0000
  H   H1116     1.0  0.58906  0.72480  0.32390  1.0000
  C   C1116     1.0  0.62719  0.86448  0.01356  1.0000
  H   H1117     1.0  0.54303  0.74758  0.03964  1.0000
  C   C1117     1.0  0.52154  0.85070  0.04156  1.0000
  H   H1118     1.0  0.54960  0.89976  0.38597  1.0000
  H   H1119     1.0  0.52301  0.93840  0.46976  1.0000
  H   H1120     1.0  0.51772  0.91960  0.49281  1.0000
  C   C1118     1.0  0.70872  0.84610  0.24317  1.0000
  Fe  Fe185     1.0  0.71274  0.79017  0.35133  1.0000
  C   C1119     1.0  0.70801  0.86050  0.22919  1.0000
  H   H1121     1.0  0.57002  0.72549  0.10857  1.0000
  C   C1120     1.0  0.63035  0.85015  0.00690  1.0000
  C   C1121     1.0  0.57132  0.73001  0.35301  1.0000
  N   N92       1.0  0.53398  0.92153  0.45368  1.0000
  H   H1122     1.0  0.47105  0.92873  0.29217  1.0000
  C   C1122     1.0  0.52777  0.92938  0.47959  1.0000
  Fe  Fe186     1.0  0.55782  0.83199  0.46711  1.0000
  H   H1123     1.0  0.58000  0.75786  0.41632  1.0000
  S   S383      1.0  0.57215  0.83077  0.01512  1.0000
  H   H1124     1.0  0.52659  0.72827  0.02945  1.0000
  Fe  Fe187     1.0  0.70826  0.81061  0.29461  1.0000
  H   H1125     1.0  0.50558  0.86976  0.41098  1.0000
  C   C1123     1.0  0.55742  0.72262  0.10399  1.0000
  C   C1124     1.0  0.53891  0.90901  0.46147  1.0000
  H   H1126     1.0  0.56119  0.72162  0.33907  1.0000
  H   H1127     1.0  0.71307  0.82611  0.17372  1.0000
  C   C1125     1.0  0.71053  0.83361  0.22329  1.0000
  H   H1128     1.0  0.52067  0.78974  0.32695  1.0000
  C   C1126     1.0  0.66681  0.78397  0.23716  1.0000
  C   C1127     1.0  0.51092  0.97786  0.33444  1.0000
  H   H1129     1.0  0.67869  0.81505  0.25721  1.0000
  C   C1128     1.0  0.55298  0.73133  0.08028  1.0000
  C   C1129     1.0  0.64345  0.76207  0.21418  1.0000
  H   H1130     1.0  0.66254  0.80821  0.28702  1.0000
  C   C1130     1.0  0.63457  0.77184  0.22097  1.0000
  Fe  Fe188     1.0  0.71188  0.82472  0.36427  1.0000
  Fe  Fe189     1.0  0.59360  0.84236  0.48524  1.0000
  H   H1131     1.0  0.57669  0.82258  0.35968  1.0000
  N   N93       1.0  0.65800  0.79349  0.24366  1.0000
  C   C1131     1.0  0.59988  0.74323  0.36195  1.0000
  H   H1132     1.0  0.51112  0.79730  0.37626  1.0000
  H   H1133     1.0  0.49808  0.85694  0.01351  1.0000
  H   H1134     1.0  0.52511  0.80553  0.40886  1.0000
  N   N94       1.0  0.63306  0.85222  0.09996  1.0000
  C   C1132     1.0  0.63231  0.83656  0.09149  1.0000
  C   C1133     1.0  0.62019  0.85648  0.09497  1.0000
  C   C1134     1.0  0.61853  0.82480  0.07697  1.0000
  C   C1135     1.0  0.60622  0.84502  0.08053  1.0000
  C   C1136     1.0  0.60544  0.82910  0.07144  1.0000
  C   C1137     1.0  0.64755  0.86424  0.11559  1.0000
  H   H1135     1.0  0.64253  0.83320  0.09534  1.0000
  H   H1136     1.0  0.62082  0.86894  0.10141  1.0000
  H   H1137     1.0  0.61808  0.81254  0.06937  1.0000
  H   H1138     1.0  0.59620  0.84856  0.07572  1.0000
  C   C1138     1.0  0.71794  0.85287  0.43227  1.0000
  C   C1139     1.0  0.54478  0.90114  0.43732  1.0000
  H   H1139     1.0  0.65856  0.86372  0.10386  1.0000
  H   H1140     1.0  0.64852  0.87737  0.11298  1.0000
  H   H1141     1.0  0.54735  0.66593  0.21724  1.0000
  C   C1140     1.0  0.61103  0.76550  0.40336  1.0000
  H   H1142     1.0  0.61199  0.74462  0.35510  1.0000
  H   H1143     1.0  0.61371  0.76023  0.42585  1.0000
  H   H1144     1.0  0.60840  0.77674  0.40994  1.0000
  C   C1141     1.0  0.51807  0.86691  0.48739  1.0000
  C   C1142     1.0  0.52540  0.71642  0.09332  1.0000
  H   H1145     1.0  0.70666  0.87011  0.24485  1.0000
  C   C1143     1.0  0.54553  0.79672  0.31410  1.0000
  C   C1144     1.0  0.53250  0.73704  0.04978  1.0000
  H   H1146     1.0  0.51284  0.71395  0.08942  1.0000
  C   C1145     1.0  0.54554  0.71050  0.12228  1.0000
  H   H1147     1.0  0.52203  0.81968  0.38089  1.0000
  H   H1148     1.0  0.50349  0.97402  0.31305  1.0000
  H   H1149     1.0  0.52018  0.69813  0.13170  1.0000
  C   C1146     1.0  0.52913  0.85246  0.44838  1.0000
  H   H1150     1.0  0.62182  0.76696  0.21567  1.0000
  N   N95       1.0  0.53605  0.80667  0.36211  1.0000
  H   H1151     1.0  0.66103  0.81902  0.25070  1.0000
  C   C1147     1.0  0.54546  0.90608  0.40500  1.0000
  C   C1148     1.0  0.70916  0.86263  0.19525  1.0000
  C   C1149     1.0  0.64204  0.78754  0.23615  1.0000
  C   C1150     1.0  0.56443  0.81566  0.35185  1.0000
  N   N96       1.0  0.53712  0.72818  0.07524  1.0000
  H   H1152     1.0  0.63492  0.79480  0.24246  1.0000
  H   H1153     1.0  0.55396  0.82356  0.39304  1.0000
  H   H1154     1.0  0.54879  0.70356  0.14060  1.0000
  Fe  Fe190     1.0  0.71028  0.88807  0.12572  1.0000
  C   C1151     1.0  0.54057  0.91900  0.39731  1.0000
  H   H1155     1.0  0.63760  0.74960  0.20357  1.0000
  H   H1156     1.0  0.67939  0.78854  0.24369  1.0000
  H   H1157     1.0  0.63643  0.88962  0.03379  1.0000
  H   H1158     1.0  0.52351  0.82452  0.00889  1.0000
  H   H1159     1.0  0.65469  0.84124  0.46064  1.0000
  H   H1160     1.0  0.53340  0.84955  0.04121  1.0000
  N   N97       1.0  0.51169  0.84155  0.01401  1.0000
  C   C1152     1.0  0.64529  0.84997  0.01522  1.0000
  Fe  Fe191     1.0  0.71861  0.88426  0.05443  1.0000
  H   H1161     1.0  0.71306  0.70785  0.37357  1.0000
  H   H1162     1.0  0.50255  0.65627  0.17005  1.0000
  H   H1163     1.0  0.71233  0.73460  0.35322  1.0000
  S   S384      1.0  0.59026  0.81601  0.49615  1.0000
  H   H1164     1.0  0.52416  0.86432  0.04014  1.0000
  H   H1165     1.0  0.53744  0.93623  0.49704  1.0000
  H   H1166     1.0  0.54824  0.89088  0.44354  1.0000
  C   C1153     1.0  0.49983  0.84617  0.00293  1.0000
  C   C1154     1.0  0.71444  0.85856  0.49956  1.0000
  C   C1155     1.0  0.71163  0.83569  0.18929  1.0000
  C   C1156     1.0  0.71096  0.85015  0.17528  1.0000
  C   C1157     1.0  0.53622  0.65724  0.20694  1.0000
  H   H1167     1.0  0.71190  0.85164  0.14911  1.0000
  S   S385      1.0  0.71390  0.90661  0.03895  1.0000
  C   C1158     1.0  0.71798  0.73197  0.33055  1.0000
  H   H1168     1.0  0.61574  0.86475  0.00698  1.0000
  C   C1159     1.0  0.51103  0.65175  0.18038  1.0000
  Fe  Fe192     1.0  0.69095  0.89894  0.59768  1.0000
  H   H1169     1.0  0.54893  0.68715  0.63354  1.0000
  S   S386      1.0  0.66487  0.89575  0.59993  1.0000
  H   H1170     1.0  0.62140  0.82086  0.56183  1.0000
  H   H1171     1.0  0.69552  0.95445  0.65593  1.0000
  S   S387      1.0  0.69692  0.87725  0.61163  1.0000
  S   S388      1.0  0.69532  0.78728  0.87925  1.0000
  S   S389      1.0  0.68360  0.80455  0.81965  1.0000
  Fe  Fe193     1.0  0.69682  0.81295  0.86682  1.0000
  Fe  Fe194     1.0  0.68384  0.77943  0.83028  1.0000
  S   S390      1.0  0.66187  0.75528  0.82405  1.0000
  S   S391      1.0  0.70742  0.78422  0.80466  1.0000
  H   H1172     1.0  0.54765  0.96970  0.83622  1.0000
  H   H1173     1.0  0.61226  0.86645  0.54958  1.0000
  H   H1174     1.0  0.53584  0.94224  0.80688  1.0000
  Fe  Fe195     1.0  0.56480  0.81186  0.92716  1.0000
  S   S392      1.0  0.54448  0.81257  0.95944  1.0000
  S   S393      1.0  0.56500  0.80514  0.87317  1.0000
  Fe  Fe196     1.0  0.56121  0.83881  0.97281  1.0000
  S   S394      1.0  0.55360  0.86090  0.98278  1.0000
  Fe  Fe197     1.0  0.70785  0.81015  0.79689  1.0000
  S   S395      1.0  0.56469  0.80564  0.57475  1.0000
  S   S396      1.0  0.58087  0.83878  0.93808  1.0000
  S   S397      1.0  0.57534  0.80151  0.96604  1.0000
  Fe  Fe198     1.0  0.49692  0.93612  0.92318  1.0000
  S   S398      1.0  0.49621  0.91691  0.88523  1.0000
  S   S399      1.0  0.51649  0.96186  0.92981  1.0000
  H   H1175     1.0  0.68988  0.79713  0.98947  1.0000
  Fe  Fe199     1.0  0.48726  0.89814  0.92543  1.0000
  S   S400      1.0  0.49590  0.87639  0.92389  1.0000
  C   C1160     1.0  0.69871  0.83859  0.93545  1.0000
  S   S401      1.0  0.48999  0.91786  0.96439  1.0000
  H   H1176     1.0  0.48552  0.81743  0.94161  1.0000
  Fe  Fe200     1.0  0.54976  0.72737  0.75796  1.0000
  S   S402      1.0  0.56464  0.74689  0.72284  1.0000
  S   S403      1.0  0.53861  0.73317  0.80418  1.0000
  Fe  Fe201     1.0  0.55436  0.69846  0.72047  1.0000
  S   S404      1.0  0.57038  0.71618  0.68294  1.0000
  S   S405      1.0  0.55058  0.67062  0.71670  1.0000
  Fe  Fe202     1.0  0.58169  0.73371  0.72490  1.0000
  S   S406      1.0  0.60767  0.75202  0.72613  1.0000
  Fe  Fe203     1.0  0.55230  0.72810  0.68362  1.0000
  S   S407      1.0  0.54305  0.73312  0.63546  1.0000
  S   S408      1.0  0.56754  0.71520  0.76258  1.0000
  S   S409      1.0  0.53551  0.70937  0.71865  1.0000
  H   H1177     1.0  0.63054  0.87980  0.59573  1.0000
  H   H1178     1.0  0.67537  0.93069  0.62515  1.0000
  C   C1161     1.0  0.66952  0.85236  0.53692  1.0000
  H   H1179     1.0  0.71295  0.85845  0.66022  1.0000
  H   H1180     1.0  0.71393  0.84951  0.77934  1.0000
  C   C1162     1.0  0.55735  0.78496  0.85473  1.0000
  C   C1163     1.0  0.56089  0.78335  0.82161  1.0000
  C   C1164     1.0  0.55560  0.76751  0.80608  1.0000
  C   C1165     1.0  0.54616  0.75320  0.82325  1.0000
  C   C1166     1.0  0.54244  0.75482  0.85625  1.0000
  C   C1167     1.0  0.54818  0.77061  0.87210  1.0000
  H   H1181     1.0  0.56802  0.79441  0.80807  1.0000
  H   H1182     1.0  0.55865  0.76644  0.78078  1.0000
  H   H1183     1.0  0.53508  0.74379  0.86965  1.0000
  H   H1184     1.0  0.54533  0.77172  0.89756  1.0000
  C   C1168     1.0  0.55107  0.75308  0.61697  1.0000
  C   C1169     1.0  0.54613  0.75491  0.58548  1.0000
  C   C1170     1.0  0.55107  0.77084  0.57123  1.0000
  C   C1171     1.0  0.56078  0.78515  0.58865  1.0000
  C   C1172     1.0  0.56595  0.78327  0.61991  1.0000
  C   C1173     1.0  0.56124  0.76733  0.63391  1.0000
  H   H1185     1.0  0.53820  0.74398  0.57223  1.0000
  H   H1186     1.0  0.54683  0.77212  0.54735  1.0000
  H   H1187     1.0  0.57337  0.79427  0.63366  1.0000
  H   H1188     1.0  0.56510  0.76614  0.65817  1.0000
  C   C1174     1.0  0.53868  0.86613  0.96356  1.0000
  C   C1175     1.0  0.52950  0.85658  0.93776  1.0000
  C   C1176     1.0  0.51688  0.86036  0.92514  1.0000
  C   C1177     1.0  0.51321  0.87365  0.93818  1.0000
  C   C1178     1.0  0.52267  0.88350  0.96340  1.0000
  H   H1189     1.0  0.50681  0.80882  0.96276  1.0000
  H   H1190     1.0  0.53194  0.84610  0.92788  1.0000
  H   H1191     1.0  0.50967  0.85266  0.90560  1.0000
  C   C1179     1.0  0.71195  0.83823  0.73151  1.0000
  C   C1180     1.0  0.47686  0.96560  0.98504  1.0000
  C   C1181     1.0  0.71252  0.96181  0.58021  1.0000
  C   C1182     1.0  0.50462  0.81918  0.97414  1.0000
  C   C1183     1.0  0.51414  0.96911  0.86549  1.0000
  H   H1192     1.0  0.61596  0.83639  0.54234  1.0000
  H   H1193     1.0  0.50583  0.95621  0.86267  1.0000
  C   C1184     1.0  0.64551  0.75538  0.80130  1.0000
  C   C1185     1.0  0.64675  0.76935  0.78331  1.0000
  C   C1186     1.0  0.63456  0.76836  0.76167  1.0000
  C   C1187     1.0  0.62105  0.75341  0.75776  1.0000
  C   C1188     1.0  0.61930  0.73967  0.77705  1.0000
  C   C1189     1.0  0.63154  0.74067  0.79876  1.0000
  H   H1194     1.0  0.65742  0.78069  0.78485  1.0000
  H   H1195     1.0  0.63595  0.77906  0.74691  1.0000
  H   H1196     1.0  0.60893  0.72806  0.77414  1.0000
  H   H1197     1.0  0.63049  0.72980  0.81268  1.0000
  C   C1190     1.0  0.54018  0.65457  0.63555  1.0000
  C   C1191     1.0  0.68830  0.93754  0.57941  1.0000
  H   H1198     1.0  0.53452  0.68314  0.66643  1.0000
  H   H1199     1.0  0.52942  0.68695  0.62580  1.0000
  Fe  Fe204     1.0  0.47039  0.91315  0.87854  1.0000
  C   C1192     1.0  0.69835  0.88038  0.93002  1.0000
  C   C1193     1.0  0.51884  0.97954  0.83819  1.0000
  C   C1194     1.0  0.71141  0.84080  0.69791  1.0000
  C   C1195     1.0  0.65221  0.88658  0.56663  1.0000
  S   S410      1.0  0.70914  0.91711  0.63127  1.0000
  H   H1200     1.0  0.68155  0.75497  0.75862  1.0000
  H   H1201     1.0  0.67136  0.89186  0.53117  1.0000
  C   C1196     1.0  0.62513  0.87199  0.54551  1.0000
  C   C1197     1.0  0.63549  0.87954  0.57158  1.0000
  C   C1198     1.0  0.65492  0.84723  0.55413  1.0000
  N   N98       1.0  0.53000  0.66279  0.63341  1.0000
  C   C1199     1.0  0.70037  0.85262  0.98831  1.0000
  N   N99       1.0  0.70169  0.94839  0.56376  1.0000
  N   N100      1.0  0.58556  0.75515  0.83907  1.0000
  C   C1200     1.0  0.58650  0.76772  0.86080  1.0000
  C   C1201     1.0  0.59159  0.75887  0.80808  1.0000
  C   C1202     1.0  0.59420  0.78453  0.85207  1.0000
  C   C1203     1.0  0.59933  0.77553  0.79848  1.0000
  C   C1204     1.0  0.60068  0.78842  0.82071  1.0000
  C   C1205     1.0  0.57731  0.73761  0.84858  1.0000
  H   H1202     1.0  0.58102  0.76481  0.88485  1.0000
  H   H1203     1.0  0.59043  0.74895  0.79051  1.0000
  H   H1204     1.0  0.59460  0.79446  0.86916  1.0000
  H   H1205     1.0  0.60413  0.77834  0.77385  1.0000
  H   H1206     1.0  0.60644  0.80141  0.81350  1.0000
  H   H1207     1.0  0.56419  0.73348  0.84467  1.0000
  H   H1208     1.0  0.58173  0.72924  0.83402  1.0000
  H   H1209     1.0  0.57938  0.73598  0.87466  1.0000
  N   N101      1.0  0.66069  0.74915  0.72947  1.0000
  C   C1206     1.0  0.67538  0.75949  0.74105  1.0000
  C   C1207     1.0  0.65283  0.75492  0.70765  1.0000
  C   C1208     1.0  0.64050  0.83770  0.50495  1.0000
  C   C1209     1.0  0.65946  0.77163  0.69769  1.0000
  C   C1210     1.0  0.67434  0.78232  0.70974  1.0000
  C   C1211     1.0  0.65366  0.73162  0.73967  1.0000
  H   H1210     1.0  0.67821  0.83718  0.96499  1.0000
  H   H1211     1.0  0.64106  0.74682  0.69879  1.0000
  H   H1212     1.0  0.71002  0.88154  0.92046  1.0000
  H   H1213     1.0  0.65291  0.77630  0.68133  1.0000
  C   C1212     1.0  0.68580  0.93964  0.61270  1.0000
  H   H1214     1.0  0.64034  0.72644  0.73800  1.0000
  H   H1215     1.0  0.65847  0.72393  0.72418  1.0000
  H   H1216     1.0  0.65648  0.73057  0.76565  1.0000
  H   H1217     1.0  0.54425  0.94384  0.92576  1.0000
  N   N102      1.0  0.71395  0.80753  0.97068  1.0000
  H   H1218     1.0  0.69398  0.78439  0.74070  1.0000
  H   H1219     1.0  0.54292  0.91079  0.90831  1.0000
  C   C1213     1.0  0.70440  0.94596  0.52900  1.0000
  C   C1214     1.0  0.68433  0.86791  0.91788  1.0000
  C   C1215     1.0  0.69674  0.79764  0.96649  1.0000
  S   S411      1.0  0.47198  0.93387  0.91358  1.0000
  H   H1220     1.0  0.54242  0.88731  0.99575  1.0000
  H   H1221     1.0  0.68531  0.85957  0.89855  1.0000
  Fe  Fe205     1.0  0.59019  0.82841  0.97900  1.0000
  H   H1222     1.0  0.69672  0.93314  0.52027  1.0000
  H   H1223     1.0  0.51691  0.87067  0.51232  1.0000
  H   H1224     1.0  0.67961  0.79540  0.70276  1.0000
  C   C1216     1.0  0.68216  0.88912  0.96770  1.0000
  N   N103      1.0  0.53082  0.77504  0.67425  1.0000
  C   C1217     1.0  0.52490  0.75791  0.67214  1.0000
  C   C1218     1.0  0.53597  0.78307  0.70350  1.0000
  C   C1219     1.0  0.52429  0.74838  0.69963  1.0000
  C   C1220     1.0  0.53539  0.77391  0.73157  1.0000
  C   C1221     1.0  0.52950  0.75645  0.72955  1.0000
  C   C1222     1.0  0.53097  0.78489  0.64550  1.0000
  H   H1225     1.0  0.52090  0.75148  0.64896  1.0000
  H   H1226     1.0  0.54055  0.79664  0.70523  1.0000
  H   H1227     1.0  0.53948  0.78028  0.75478  1.0000
  H   H1228     1.0  0.52904  0.74918  0.75109  1.0000
  H   H1229     1.0  0.53006  0.77755  0.62249  1.0000
  H   H1230     1.0  0.52077  0.78903  0.64679  1.0000
  N   N104      1.0  0.66965  0.86572  0.93119  1.0000
  C   C1223     1.0  0.65518  0.85205  0.91921  1.0000
  C   C1224     1.0  0.66839  0.87650  0.95495  1.0000
  C   C1225     1.0  0.54726  0.95845  0.88274  1.0000
  C   C1226     1.0  0.49018  0.83751  0.97688  1.0000
  H   H1231     1.0  0.51591  0.66301  0.71083  1.0000
  S   S412      1.0  0.71353  0.86124  0.54228  1.0000
  C   C1227     1.0  0.65852  0.88639  0.53531  1.0000
  C   C1228     1.0  0.53403  0.92783  0.85027  1.0000
  H   H1232     1.0  0.65510  0.84932  0.58033  1.0000
  C   C1229     1.0  0.53810  0.94267  0.83283  1.0000
  H   H1233     1.0  0.49710  0.98057  0.95531  1.0000
  H   H1234     1.0  0.52505  0.91325  0.92391  1.0000
  C   C1230     1.0  0.54283  0.94340  0.89951  1.0000
  C   C1231     1.0  0.62544  0.83440  0.55646  1.0000
  C   C1232     1.0  0.69119  0.84227  0.96312  1.0000
  H   H1235     1.0  0.52867  0.91591  0.83739  1.0000
  H   H1236     1.0  0.67957  0.92699  0.56638  1.0000
  C   C1233     1.0  0.68241  0.77618  0.73129  1.0000
  C   C1234     1.0  0.71300  0.85653  0.68618  1.0000
  H   H1237     1.0  0.51994  0.73483  0.69756  1.0000
  C   C1235     1.0  0.71548  0.86993  0.70797  1.0000
  H   H1238     1.0  0.64565  0.84783  0.93848  1.0000
  H   H1239     1.0  0.54243  0.79609  0.64373  1.0000
  H   H1240     1.0  0.65671  0.87521  0.96458  1.0000
  C   C1236     1.0  0.52065  0.97523  0.89604  1.0000
  S   S413      1.0  0.68678  0.82649  0.90350  1.0000
  C   C1237     1.0  0.69710  0.95295  0.62993  1.0000
  Fe  Fe206     1.0  0.56755  0.81431  0.52191  1.0000
  C   C1238     1.0  0.54479  0.95807  0.84923  1.0000
  H   H1241     1.0  0.50578  0.66040  0.62768  1.0000
  C   C1239     1.0  0.71349  0.85135  0.75343  1.0000
  H   H1242     1.0  0.51993  0.89366  0.97394  1.0000
  H   H1243     1.0  0.70183  0.95528  0.51444  1.0000
  C   C1240     1.0  0.49266  0.82397  0.96236  1.0000
  C   C1241     1.0  0.53536  0.87978  0.97588  1.0000
  H   H1244     1.0  0.65043  0.85623  0.89785  1.0000
  H   H1245     1.0  0.52411  0.90164  0.88709  1.0000
  H   H1246     1.0  0.65786  0.84091  0.91201  1.0000
  Fe  Fe207     1.0  0.71645  0.89561  0.64160  1.0000
  N   N105      1.0  0.53630  0.92835  0.88325  1.0000
  C   C1242     1.0  0.53196  0.91277  0.90144  1.0000
  S   S414      1.0  0.70728  0.90544  0.55383  1.0000
  H   H1247     1.0  0.71020  0.83070  0.68080  1.0000
  H   H1248     1.0  0.55193  0.97035  0.89592  1.0000
  H   H1249     1.0  0.69198  0.80330  0.94737  1.0000
  H   H1250     1.0  0.62661  0.84161  0.57970  1.0000
  S   S415      1.0  0.61612  0.83222  0.98814  1.0000
  C   C1243     1.0  0.64815  0.87917  0.50915  1.0000
  C   C1244     1.0  0.63145  0.87172  0.51421  1.0000
  H   H1251     1.0  0.68080  0.85819  0.54965  1.0000
  C   C1245     1.0  0.53598  0.68088  0.64003  1.0000
  H   H1252     1.0  0.68113  0.89730  0.98734  1.0000
  H   H1253     1.0  0.47804  0.95385  0.97892  1.0000
  N   N106      1.0  0.64065  0.84010  0.53806  1.0000
  C   C1246     1.0  0.69724  0.89091  0.95535  1.0000
  H   H1254     1.0  0.55265  0.66138  0.64211  1.0000
  H   H1255     1.0  0.48128  0.84172  0.96723  1.0000
  H   H1256     1.0  0.51406  0.97461  0.81448  1.0000
  C   C1247     1.0  0.71054  0.96417  0.61359  1.0000
  S   S416      1.0  0.57173  0.84155  0.51355  1.0000
  H   H1257     1.0  0.71710  0.94750  0.52460  1.0000
  H   H1258     1.0  0.70805  0.90042  0.96543  1.0000
  C   C1248     1.0  0.71540  0.86718  0.74164  1.0000
  C   C1249     1.0  0.51399  0.65401  0.62782  1.0000
  Fe  Fe208     1.0  0.71464  0.88477  0.56982  1.0000
  Fe  Fe209     1.0  0.55671  0.80456  0.99957  1.0000
  S   S417      1.0  0.71271  0.81922  0.74458  1.0000
  C   C1250     1.0  0.71546  0.84520  0.93314  1.0000
  C   C1251     1.0  0.48753  0.98059  0.97180  1.0000
  C   C1252     1.0  0.71713  0.85920  0.98604  1.0000
  H   H1259     1.0  0.69456  0.78452  0.95894  1.0000
  C   C1253     1.0  0.51404  0.82812  0.00024  1.0000
  C   C1254     1.0  0.66948  0.85016  0.50314  1.0000
  Fe  Fe210     1.0  0.71905  0.79429  0.85274  1.0000
  C   C1255     1.0  0.71898  0.82008  0.99380  1.0000
  H   H1260     1.0  0.71727  0.87748  0.75864  1.0000
  C   C1256     1.0  0.53313  0.65156  0.71374  1.0000
  H   H1261     1.0  0.71957  0.97444  0.62671  1.0000
  H   H1262     1.0  0.70253  0.83167  0.50209  1.0000
  Fe  Fe211     1.0  0.78187  0.04454  0.13057  1.0000
  S   S418      1.0  0.78202  0.06162  0.09003  1.0000
  S   S419      1.0  0.76097  0.01900  0.13720  1.0000
  Fe  Fe212     1.0  0.80781  0.07425  0.16794  1.0000
  S   S420      1.0  0.80967  0.09301  0.12919  1.0000
  S   S421      1.0  0.81623  0.08068  0.22044  1.0000
  Fe  Fe213     1.0  0.78280  0.08069  0.12830  1.0000
  S   S422      1.0  0.76720  0.09565  0.12454  1.0000
  Fe  Fe214     1.0  0.80902  0.07246  0.09378  1.0000
  S   S423      1.0  0.82013  0.07600  0.04263  1.0000
  S   S424      1.0  0.78083  0.06318  0.16860  1.0000
  S   S425      1.0  0.80896  0.05411  0.13275  1.0000
  Fe  Fe215     1.0  0.88279  0.14260  0.33570  1.0000
  S   S426      1.0  0.89209  0.12962  0.37219  1.0000
  S   S427      1.0  0.87952  0.13441  0.28228  1.0000
  Fe  Fe216     1.0  0.88197  0.16859  0.38631  1.0000
  S   S428      1.0  0.89104  0.15752  0.42656  1.0000
  S   S429      1.0  0.87587  0.19145  0.39151  1.0000
  Fe  Fe217     1.0  0.90873  0.15567  0.38825  1.0000
  S   S430      1.0  0.93523  0.16258  0.40081  1.0000
  Fe  Fe218     1.0  0.87371  0.13274  0.40704  1.0000
  S   S431      1.0  0.85390  0.11100  0.43227  1.0000
  S   S432      1.0  0.90063  0.16837  0.34948  1.0000
  S   S433      1.0  0.86351  0.14409  0.36906  1.0000
  H   H1263     1.0  0.80978  0.22787  0.12369  1.0000
  S   S434      1.0  0.74179  0.15440  0.26772  1.0000
  C   C1257     1.0  0.73327  0.04957  0.20467  1.0000
  C   C1258     1.0  0.92400  0.21497  0.39973  1.0000
  Fe  Fe219     1.0  0.82784  0.22211  0.00293  1.0000
  C   C1259     1.0  0.78403  0.13469  0.22350  1.0000
  H   H1264     1.0  0.83891  0.14472  0.42703  1.0000
  Fe  Fe220     1.0  0.80025  0.21057  0.05324  1.0000
  N   N107      1.0  0.88482  0.29632  0.01339  1.0000
  S   S435      1.0  0.79380  0.19370  0.09768  1.0000
  H   H1265     1.0  0.74722  0.06150  0.10151  1.0000
  S   S436      1.0  0.73493  0.10759  0.25574  1.0000
  C   C1260     1.0  0.86007  0.11845  0.49829  1.0000
  Fe  Fe221     1.0  0.81654  0.24808  0.03514  1.0000
  H   H1266     1.0  0.73604  0.04413  0.22611  1.0000
  Fe  Fe222     1.0  0.79816  0.21735  0.48069  1.0000
  S   S437      1.0  0.79162  0.21574  0.42694  1.0000
  S   S438      1.0  0.82563  0.22949  0.05481  1.0000
  C   C1261     1.0  0.72195  0.06751  0.18008  1.0000
  C   C1262     1.0  0.83933  0.29302  0.04899  1.0000
  H   H1267     1.0  0.90505  0.19467  0.42327  1.0000
  H   H1268     1.0  0.81129  0.16953  0.47471  1.0000
  H   H1269     1.0  0.79219  0.15465  0.12699  1.0000
  C   C1263     1.0  0.78252  0.14264  0.13439  1.0000
  C   C1264     1.0  0.74930  0.18121  0.16426  1.0000
  C   C1265     1.0  0.75014  0.18935  0.13456  1.0000
  C   C1266     1.0  0.76357  0.19306  0.11360  1.0000
  C   C1267     1.0  0.77627  0.18860  0.12219  1.0000
  C   C1268     1.0  0.77530  0.18020  0.15161  1.0000
  C   C1269     1.0  0.76185  0.17643  0.17250  1.0000
  H   H1270     1.0  0.78082  0.13306  0.11474  1.0000
  H   H1271     1.0  0.76416  0.19948  0.09097  1.0000
  H   H1272     1.0  0.78521  0.17698  0.15866  1.0000
  H   H1273     1.0  0.76142  0.17044  0.19556  1.0000
  C   C1270     1.0  0.77421  0.20045  0.40891  1.0000
  C   C1271     1.0  0.77326  0.19902  0.37471  1.0000
  C   C1272     1.0  0.75941  0.18748  0.35938  1.0000
  C   C1273     1.0  0.74623  0.17742  0.37817  1.0000
  C   C1274     1.0  0.74723  0.17882  0.41239  1.0000
  C   C1275     1.0  0.76118  0.19015  0.42772  1.0000
  H   H1274     1.0  0.78325  0.20697  0.35992  1.0000
  H   H1275     1.0  0.75879  0.18660  0.33306  1.0000
  H   H1276     1.0  0.73711  0.17112  0.42715  1.0000
  H   H1277     1.0  0.76170  0.19112  0.45405  1.0000
  C   C1276     1.0  0.86667  0.19378  0.42848  1.0000
  C   C1277     1.0  0.86596  0.18371  0.45513  1.0000
  H   H1278     1.0  0.86009  0.27203  0.07153  1.0000
  H   H1279     1.0  0.96885  0.17210  0.41339  1.0000
  C   C1278     1.0  0.85145  0.20704  0.45972  1.0000
  C   C1279     1.0  0.85955  0.20557  0.43095  1.0000
  H   H1280     1.0  0.87137  0.17458  0.45351  1.0000
  H   H1281     1.0  0.72507  0.06998  0.12815  1.0000
  H   H1282     1.0  0.84596  0.21613  0.46145  1.0000
  H   H1283     1.0  0.86015  0.21346  0.41045  1.0000
  C   C1280     1.0  0.95174  0.18859  0.35830  1.0000
  C   C1281     1.0  0.95269  0.17800  0.38275  1.0000
  H   H1284     1.0  0.94012  0.18712  0.34906  1.0000
  N   N108      1.0  0.78658  0.13698  0.16517  1.0000
  C   C1282     1.0  0.83297  0.09795  0.23532  1.0000
  C   C1283     1.0  0.83297  0.10274  0.26830  1.0000
  C   C1284     1.0  0.84690  0.11459  0.28266  1.0000
  C   C1285     1.0  0.86103  0.12165  0.26416  1.0000
  C   C1286     1.0  0.86083  0.11740  0.23082  1.0000
  C   C1287     1.0  0.84684  0.10566  0.21637  1.0000
  H   H1285     1.0  0.82229  0.09683  0.28313  1.0000
  H   H1286     1.0  0.84687  0.11783  0.30826  1.0000
  H   H1287     1.0  0.87171  0.12283  0.21632  1.0000
  H   H1288     1.0  0.84703  0.10200  0.19102  1.0000
  C   C1288     1.0  0.86688  0.27534  0.04882  1.0000
  H   H1289     1.0  0.81385  0.27469  0.49161  1.0000
  H   H1290     1.0  0.81527  0.24873  0.14130  1.0000
  C   C1289     1.0  0.83846  0.09074  0.02684  1.0000
  C   C1290     1.0  0.85036  0.10192  0.04683  1.0000
  C   C1291     1.0  0.94066  0.22340  0.39617  1.0000
  S   S439      1.0  0.79067  0.22958  0.03696  1.0000
  C   C1292     1.0  0.79424  0.12603  0.22333  1.0000
  H   H1291     1.0  0.84870  0.10141  0.07303  1.0000
  H   H1292     1.0  0.77102  0.14451  0.13650  1.0000
  C   C1293     1.0  0.75863  0.09946  0.16118  1.0000
  C   C1294     1.0  0.74856  0.10838  0.16070  1.0000
  C   C1295     1.0  0.74155  0.11143  0.18976  1.0000
  C   C1296     1.0  0.74437  0.10527  0.21925  1.0000
  C   C1297     1.0  0.75452  0.09649  0.21969  1.0000
  C   C1298     1.0  0.76173  0.09372  0.19081  1.0000
  H   H1293     1.0  0.74612  0.11288  0.13783  1.0000
  N   N109      1.0  0.79039  0.23340  0.14320  1.0000
  H   H1294     1.0  0.75680  0.09179  0.24249  1.0000
  H   H1295     1.0  0.76969  0.08716  0.19166  1.0000
  C   C1299     1.0  0.76933  0.99527  0.10286  1.0000
  C   C1300     1.0  0.75745  0.99878  0.12008  1.0000
  H   H1296     1.0  0.78102  0.00515  0.09893  1.0000
  H   H1297     1.0  0.73369  0.11819  0.18926  1.0000
  C   C1301     1.0  0.76383  0.23347  0.14742  1.0000
  H   H1298     1.0  0.74769  0.04224  0.11542  1.0000
  H   H1299     1.0  0.72175  0.06360  0.23176  1.0000
  C   C1302     1.0  0.83811  0.13316  0.01318  1.0000
  C   C1303     1.0  0.80115  0.26794  0.48694  1.0000
  H   H1300     1.0  0.77852  0.13665  0.24616  1.0000
  Fe  Fe223     1.0  0.72480  0.12769  0.25913  1.0000
  C   C1304     1.0  0.78039  0.14021  0.19404  1.0000
  C   C1305     1.0  0.87681  0.29202  0.04260  1.0000
  H   H1301     1.0  0.91577  0.21897  0.38673  1.0000
  H   H1302     1.0  0.87386  0.12200  0.04845  1.0000
  H   H1303     1.0  0.78095  0.24566  0.10963  1.0000
  H   H1304     1.0  0.95311  0.20015  0.44473  1.0000
  H   H1305     1.0  0.79671  0.21989  0.17956  1.0000
  H   H1306     1.0  0.80592  0.24363  0.10216  1.0000
  C   C1306     1.0  0.74233  0.98569  0.12491  1.0000
  C   C1307     1.0  0.82455  0.15573  0.45382  1.0000
  C   C1308     1.0  0.84576  0.30638  0.07155  1.0000
  H   H1307     1.0  0.74918  0.21952  0.18748  1.0000
  Fe  Fe224     1.0  0.72411  0.15470  0.30699  1.0000
  S   S440      1.0  0.73358  0.17939  0.19226  1.0000
  C   C1309     1.0  0.76878  0.24960  0.47591  1.0000
  H   H1308     1.0  0.86542  0.30950  0.48917  1.0000
  N   N110      1.0  0.81833  0.17644  0.42548  1.0000
  C   C1310     1.0  0.81736  0.16743  0.45299  1.0000
  N   N111      1.0  0.73504  0.05333  0.14662  1.0000
  C   C1311     1.0  0.81079  0.18869  0.42541  1.0000
  S   S441      1.0  0.72804  0.16352  0.36021  1.0000
  C   C1312     1.0  0.74005  0.04964  0.11416  1.0000
  H   H1309     1.0  0.79827  0.18310  0.43511  1.0000
  H   H1310     1.0  0.81775  0.19978  0.44074  1.0000
  H   H1311     1.0  0.81006  0.19313  0.40049  1.0000
  H   H1312     1.0  0.75447  0.23692  0.13768  1.0000
  H   H1313     1.0  0.92388  0.18486  0.45161  1.0000
  C   C1313     1.0  0.96795  0.18018  0.39443  1.0000
  C   C1314     1.0  0.73805  0.04606  0.17366  1.0000
  H   H1314     1.0  0.94532  0.23413  0.38030  1.0000
  H   H1315     1.0  0.74048  0.19311  0.12808  1.0000
  H   H1316     1.0  0.84535  0.13916  0.03414  1.0000
  H   H1317     1.0  0.79689  0.12134  0.24588  1.0000
  H   H1318     1.0  0.84198  0.30452  0.09686  1.0000
  C   C1315     1.0  0.72709  0.06391  0.14950  1.0000
  C   C1316     1.0  0.78763  0.22402  0.17077  1.0000
  H   H1319     1.0  0.87101  0.12859  0.49074  1.0000
  C   C1317     1.0  0.79679  0.12871  0.16484  1.0000
  C   C1318     1.0  0.80073  0.12305  0.19386  1.0000
  H   H1320     1.0  0.80152  0.12596  0.14192  1.0000
  H   H1321     1.0  0.80845  0.11604  0.19346  1.0000
  C   C1319     1.0  0.86457  0.11361  0.03282  1.0000
  C   C1320     1.0  0.91793  0.20122  0.42019  1.0000
  N   N112      1.0  0.85527  0.08594  0.32546  1.0000
  C   C1321     1.0  0.86903  0.09283  0.30717  1.0000
  C   C1322     1.0  0.84158  0.07455  0.31178  1.0000
  C   C1323     1.0  0.86939  0.08817  0.27438  1.0000
  C   C1324     1.0  0.84151  0.06961  0.27905  1.0000
  C   C1325     1.0  0.85551  0.07651  0.26027  1.0000
  C   C1326     1.0  0.85495  0.09183  0.35914  1.0000
  H   H1322     1.0  0.87966  0.10250  0.31746  1.0000
  H   H1323     1.0  0.83048  0.06960  0.32585  1.0000
  H   H1324     1.0  0.88013  0.09423  0.25966  1.0000
  H   H1325     1.0  0.83047  0.06114  0.26780  1.0000
  H   H1326     1.0  0.85538  0.07337  0.23448  1.0000
  H   H1327     1.0  0.85372  0.10411  0.35933  1.0000
  H   H1328     1.0  0.84483  0.08292  0.37362  1.0000
  H   H1329     1.0  0.86617  0.09338  0.37201  1.0000
  H   H1330     1.0  0.82737  0.08698  0.46718  1.0000
  C   C1327     1.0  0.77877  0.23824  0.13155  1.0000
  H   H1331     1.0  0.77213  0.14657  0.19435  1.0000
  H   H1332     1.0  0.96489  0.20955  0.32755  1.0000
  C   C1328     1.0  0.79652  0.25658  0.46060  1.0000
  H   H1333     1.0  0.80548  0.25451  0.44508  1.0000
  C   C1329     1.0  0.85064  0.19686  0.48625  1.0000
  C   C1330     1.0  0.80611  0.23868  0.12685  1.0000
  C   C1331     1.0  0.82679  0.17454  0.39873  1.0000
  H   H1334     1.0  0.85768  0.25006  0.02955  1.0000
  N   N113      1.0  0.95094  0.21815  0.41239  1.0000
  S   S442      1.0  0.82559  0.27319  0.06301  1.0000
  C   C1332     1.0  0.82414  0.11880  0.01778  1.0000
  C   C1333     1.0  0.83415  0.16299  0.39875  1.0000
  H   H1335     1.0  0.82820  0.18220  0.37743  1.0000
  C   C1334     1.0  0.78022  0.24750  0.45496  1.0000
  H   H1336     1.0  0.77045  0.21121  0.20857  1.0000
  C   C1335     1.0  0.84964  0.10820  0.47477  1.0000
  C   C1336     1.0  0.92847  0.19589  0.43645  1.0000
  H   H1337     1.0  0.82402  0.14882  0.47584  1.0000
  C   C1337     1.0  0.77288  0.21918  0.18740  1.0000
  H   H1338     1.0  0.84120  0.16188  0.37779  1.0000
  C   C1338     1.0  0.94504  0.20460  0.43238  1.0000
  H   H1339     1.0  0.74437  0.03766  0.17142  1.0000
  H   H1340     1.0  0.72936  0.04232  0.09941  1.0000
  Fe  Fe225     1.0  0.72572  0.16018  0.23285  1.0000
  C   C1339     1.0  0.76090  0.22388  0.17552  1.0000
  C   C1340     1.0  0.85557  0.31146  0.00651  1.0000
  C   C1341     1.0  0.84429  0.29568  0.01633  1.0000
  C   C1342     1.0  0.83295  0.15347  0.42644  1.0000
  C   C1343     1.0  0.85808  0.18536  0.48403  1.0000
  H   H1341     1.0  0.82070  0.11359  0.04193  1.0000
  S   S443      1.0  0.82415  0.23319  0.49146  1.0000
  H   H1342     1.0  0.75611  0.24221  0.47219  1.0000
  H   H1343     1.0  0.77646  0.23853  0.43480  1.0000
  C   C1344     1.0  0.96832  0.22770  0.40961  1.0000
  C   C1345     1.0  0.83551  0.09501  0.48515  1.0000
  H   H1344     1.0  0.87765  0.30155  0.06091  1.0000
  C   C1346     1.0  0.96584  0.20131  0.34613  1.0000
  C   C1347     1.0  0.86530  0.26304  0.02510  1.0000
  C   C1348     1.0  0.72516  0.06037  0.20782  1.0000
  H   H1345     1.0  0.73303  0.98824  0.13816  1.0000
  C   C1349     1.0  0.89501  0.31386  0.00671  1.0000
  S   S444      1.0  0.80323  0.20158  0.00234  1.0000
  Fe  Fe226     1.0  0.79188  0.04736  0.63822  1.0000
  S   S445      1.0  0.79204  0.06529  0.59832  1.0000
  S   S446      1.0  0.77998  0.01878  0.64642  1.0000
  Fe  Fe227     1.0  0.80945  0.07635  0.68677  1.0000
  S   S447      1.0  0.81074  0.09593  0.65111  1.0000
  S   S448      1.0  0.81490  0.08277  0.74050  1.0000
  Fe  Fe228     1.0  0.78544  0.07979  0.63840  1.0000
  S   S449      1.0  0.76980  0.09452  0.63195  1.0000
  Fe  Fe229     1.0  0.81758  0.08059  0.61338  1.0000
  S   S450      1.0  0.83931  0.09808  0.58462  1.0000
  S   S451      1.0  0.78343  0.06114  0.67681  1.0000
  S   S452      1.0  0.81813  0.06180  0.65060  1.0000
  Fe  Fe230     1.0  0.88639  0.13323  0.85500  1.0000
  S   S453      1.0  0.90603  0.13747  0.89195  1.0000
  S   S454      1.0  0.88281  0.11698  0.80909  1.0000
  Fe  Fe231     1.0  0.87499  0.15833  0.88765  1.0000
  S   S455      1.0  0.89377  0.16505  0.92605  1.0000
  S   S456      1.0  0.85365  0.16579  0.88578  1.0000
  Fe  Fe232     1.0  0.91133  0.16491  0.88621  1.0000
  S   S457      1.0  0.93593  0.18689  0.88873  1.0000
  Fe  Fe233     1.0  0.88723  0.13736  0.92929  1.0000
  S   S458      1.0  0.85154  0.22069  0.98862  1.0000
  S   S459      1.0  0.89281  0.16073  0.84716  1.0000
  S   S460      1.0  0.86737  0.13060  0.89303  1.0000
  C   C1350     1.0  0.82034  0.04809  0.75346  1.0000
  S   S461      1.0  0.74469  0.14539  0.78508  1.0000
  H   H1346     1.0  0.85458  0.04825  0.71736  1.0000
  H   H1347     1.0  0.81313  0.11062  0.93854  1.0000
  H   H1348     1.0  0.90739  0.31514  0.00004  1.0000
  H   H1349     1.0  0.74333  0.18415  0.85798  1.0000
  Fe  Fe234     1.0  0.73343  0.15933  0.75530  1.0000
  Fe  Fe235     1.0  0.79051  0.20592  0.55205  1.0000
  H   H1350     1.0  0.83435  0.02935  0.67867  1.0000
  S   S462      1.0  0.77142  0.18506  0.58073  1.0000
  C   C1351     1.0  0.85483  0.10348  0.97881  1.0000
  S   S463      1.0  0.82049  0.24197  0.98306  1.0000
  H   H1351     1.0  0.78526  0.02991  0.71412  1.0000
  Fe  Fe236     1.0  0.81479  0.24170  0.53672  1.0000
  Fe  Fe237     1.0  0.82318  0.21136  0.52130  1.0000
  C   C1352     1.0  0.83389  0.13153  0.95601  1.0000
  S   S464      1.0  0.77953  0.21937  0.94188  1.0000
  S   S465      1.0  0.81581  0.22080  0.56776  1.0000
  C   C1353     1.0  0.95937  0.17695  0.86042  1.0000
  C   C1354     1.0  0.83811  0.28858  0.54787  1.0000
  C   C1355     1.0  0.84047  0.30234  0.56911  1.0000
  C   C1356     1.0  0.84725  0.29133  0.51903  1.0000
  C   C1357     1.0  0.77787  0.20547  0.80599  1.0000
  H   H1352     1.0  0.81648  0.05367  0.77419  1.0000
  C   C1358     1.0  0.75653  0.18329  0.68919  1.0000
  C   C1359     1.0  0.76781  0.19819  0.67610  1.0000
  C   C1360     1.0  0.77270  0.19894  0.64307  1.0000
  C   C1361     1.0  0.76623  0.18478  0.62276  1.0000
  C   C1362     1.0  0.75506  0.16984  0.63595  1.0000
  C   C1363     1.0  0.75027  0.16906  0.66899  1.0000
  H   H1353     1.0  0.77272  0.20927  0.69150  1.0000
  H   H1354     1.0  0.78130  0.21051  0.63327  1.0000
  H   H1355     1.0  0.74998  0.15883  0.62044  1.0000
  H   H1356     1.0  0.74163  0.15751  0.67873  1.0000
  C   C1364     1.0  0.76660  0.19986  0.92529  1.0000
  C   C1365     1.0  0.75856  0.19955  0.89612  1.0000
  C   C1366     1.0  0.74923  0.18424  0.88073  1.0000
  C   C1367     1.0  0.74755  0.16910  0.89491  1.0000
  C   C1368     1.0  0.75517  0.16940  0.92458  1.0000
  C   C1369     1.0  0.76478  0.18471  0.93960  1.0000
  H   H1357     1.0  0.75984  0.21123  0.88503  1.0000
  C   C1370     1.0  0.77549  0.18872  0.80978  1.0000
  H   H1358     1.0  0.75379  0.15773  0.93588  1.0000
  H   H1359     1.0  0.77080  0.18477  0.96217  1.0000
  C   C1371     1.0  0.85309  0.18101  0.91449  1.0000
  C   C1372     1.0  0.83855  0.18291  0.92089  1.0000
  C   C1373     1.0  0.83785  0.19492  0.94387  1.0000
  C   C1374     1.0  0.85174  0.20517  0.96031  1.0000
  C   C1375     1.0  0.86623  0.20322  0.95391  1.0000
  C   C1376     1.0  0.86690  0.19116  0.93114  1.0000
  H   H1360     1.0  0.82782  0.17505  0.90814  1.0000
  H   H1361     1.0  0.82664  0.19636  0.94868  1.0000
  C   C1377     1.0  0.85660  0.11524  0.53174  1.0000
  H   H1362     1.0  0.87820  0.18996  0.92606  1.0000
  H   H1363     1.0  0.76889  0.17950  0.79149  1.0000
  C   C1378     1.0  0.95582  0.18967  0.87597  1.0000
  H   H1364     1.0  0.87211  0.25793  0.97680  1.0000
  H   H1365     1.0  0.94975  0.16506  0.85482  1.0000
  C   C1379     1.0  0.83395  0.09194  0.75892  1.0000
  C   C1380     1.0  0.83473  0.09733  0.79162  1.0000
  C   C1381     1.0  0.84961  0.10510  0.80719  1.0000
  C   C1382     1.0  0.86386  0.10716  0.79042  1.0000
  C   C1383     1.0  0.86306  0.10137  0.75791  1.0000
  C   C1384     1.0  0.84818  0.09398  0.74204  1.0000
  H   H1366     1.0  0.82377  0.09567  0.80495  1.0000
  H   H1367     1.0  0.85005  0.10936  0.83226  1.0000
  H   H1368     1.0  0.87404  0.10290  0.74480  1.0000
  H   H1369     1.0  0.84773  0.08983  0.71686  1.0000
  C   C1385     1.0  0.83675  0.05185  0.74874  1.0000
  Fe  Fe238     1.0  0.72460  0.12236  0.76705  1.0000
  H   H1370     1.0  0.86495  0.12301  0.54970  1.0000
  C   C1386     1.0  0.84259  0.10190  0.54213  1.0000
  C   C1387     1.0  0.83194  0.09192  0.51863  1.0000
  C   C1388     1.0  0.84187  0.04516  0.72163  1.0000
  H   H1371     1.0  0.84543  0.06024  0.76564  1.0000
  S   S466      1.0  0.78859  0.22726  0.52401  1.0000
  H   H1372     1.0  0.85553  0.16553  0.98836  1.0000
  H   H1373     1.0  0.88938  0.28777  0.96656  1.0000
  C   C1389     1.0  0.75856  0.09594  0.66669  1.0000
  C   C1390     1.0  0.75377  0.10950  0.67052  1.0000
  C   C1391     1.0  0.74463  0.11064  0.69797  1.0000
  C   C1392     1.0  0.73992  0.09799  0.72123  1.0000
  C   C1393     1.0  0.74456  0.08439  0.71718  1.0000
  C   C1394     1.0  0.75399  0.08345  0.69021  1.0000
  H   H1374     1.0  0.75726  0.11920  0.65240  1.0000
  H   H1375     1.0  0.74108  0.12119  0.70091  1.0000
  C   C1395     1.0  0.83054  0.03459  0.69995  1.0000
  H   H1376     1.0  0.75738  0.07283  0.68723  1.0000
  C   C1396     1.0  0.76767  0.99868  0.59079  1.0000
  C   C1397     1.0  0.76896  0.99965  0.62480  1.0000
  H   H1377     1.0  0.77329  0.00991  0.57663  1.0000
  C   C1398     1.0  0.79100  0.13547  0.58893  1.0000
  C   C1399     1.0  0.78873  0.15058  0.59146  1.0000
  C   C1400     1.0  0.80182  0.16570  0.58706  1.0000
  H   H1378     1.0  0.78074  0.12376  0.59231  1.0000
  H   H1379     1.0  0.77691  0.15064  0.59669  1.0000
  H   H1380     1.0  0.80020  0.17750  0.58886  1.0000
  N   N114      1.0  0.78995  0.19568  0.86021  1.0000
  C   C1401     1.0  0.79249  0.21220  0.85652  1.0000
  C   C1402     1.0  0.78162  0.18398  0.83722  1.0000
  C   C1403     1.0  0.78640  0.21733  0.82950  1.0000
  C   C1404     1.0  0.79682  0.19059  0.88812  1.0000
  H   H1381     1.0  0.79891  0.22144  0.87497  1.0000
  H   H1382     1.0  0.78822  0.23038  0.82696  1.0000
  H   H1383     1.0  0.80875  0.19048  0.88135  1.0000
  H   H1384     1.0  0.79833  0.19930  0.90933  1.0000
  H   H1385     1.0  0.78875  0.17793  0.89650  1.0000
  N   N115      1.0  0.95502  0.16742  0.94868  1.0000
  H   H1386     1.0  0.91321  0.16070  0.98511  1.0000
  C   C1405     1.0  0.96857  0.20506  0.88289  1.0000
  H   H1387     1.0  0.74087  0.07453  0.73500  1.0000
  H   H1388     1.0  0.87702  0.21117  0.96644  1.0000
  H   H1389     1.0  0.80469  0.09901  0.99408  1.0000
  N   N116      1.0  0.83309  0.13152  0.75908  1.0000
  C   C1406     1.0  0.84422  0.13100  0.73640  1.0000
  C   C1407     1.0  0.83790  0.13929  0.78869  1.0000
  C   C1408     1.0  0.86063  0.13822  0.74329  1.0000
  C   C1409     1.0  0.85422  0.14666  0.79636  1.0000
  C   C1410     1.0  0.86562  0.14600  0.77354  1.0000
  C   C1411     1.0  0.81587  0.12343  0.75223  1.0000
  H   H1390     1.0  0.84044  0.12446  0.71325  1.0000
  H   H1391     1.0  0.82911  0.13960  0.80682  1.0000
  H   H1392     1.0  0.86941  0.13727  0.72577  1.0000
  H   H1393     1.0  0.85797  0.15255  0.82008  1.0000
  H   H1394     1.0  0.87829  0.15113  0.77955  1.0000
  H   H1395     1.0  0.80990  0.11338  0.77015  1.0000
  H   H1396     1.0  0.81022  0.13276  0.75349  1.0000
  H   H1397     1.0  0.81356  0.11731  0.72766  1.0000
  S   S467      1.0  0.83996  0.19771  0.52209  1.0000
  C   C1412     1.0  0.94382  0.15150  0.95286  1.0000
  C   C1413     1.0  0.80814  0.11959  0.57858  1.0000
  H   H1398     1.0  0.81955  0.12045  0.58986  1.0000
  C   C1414     1.0  0.92501  0.16261  0.97519  1.0000
  C   C1415     1.0  0.85749  0.15438  0.97862  1.0000
  H   H1399     1.0  0.83060  0.15029  0.57196  1.0000
  H   H1400     1.0  0.85648  0.10390  0.95261  1.0000
  H   H1401     1.0  0.80847  0.11629  0.55233  1.0000
  C   C1416     1.0  0.81880  0.15026  0.57768  1.0000
  H   H1402     1.0  0.80736  0.29111  0.53197  1.0000
  S   S468      1.0  0.75043  0.18303  0.73069  1.0000
  C   C1417     1.0  0.95156  0.18098  0.95765  1.0000
  H   H1403     1.0  0.77947  0.17086  0.84020  1.0000
  C   C1418     1.0  0.81422  0.03108  0.70546  1.0000
  H   H1404     1.0  0.91968  0.13624  0.96918  1.0000
  H   H1405     1.0  0.82720  0.17730  0.57676  1.0000
  C   C1419     1.0  0.79229  0.03478  0.73672  1.0000
  N   N117      1.0  0.80936  0.03815  0.73154  1.0000
  Fe  Fe239     1.0  0.79540  0.22187  0.98590  1.0000
  H   H1406     1.0  0.78723  0.02544  0.75623  1.0000
  H   H1407     1.0  0.80553  0.02298  0.68830  1.0000
  H   H1408     1.0  0.79070  0.04655  0.74370  1.0000
  S   S469      1.0  0.73572  0.14954  0.87697  1.0000
  H   H1409     1.0  0.83349  0.30045  0.59148  1.0000
  N   N118      1.0  0.80594  0.13547  0.58234  1.0000
  C   C1420     1.0  0.81696  0.16558  0.58022  1.0000
  H   H1410     1.0  0.79827  0.10913  0.59067  1.0000
  H   H1411     1.0  0.77303  0.20917  0.78481  1.0000
  C   C1421     1.0  0.85849  0.30759  0.51159  1.0000
  S   S470      1.0  0.82294  0.26858  0.55778  1.0000
  H   H1412     1.0  0.96601  0.21504  0.89477  1.0000
  S   S471      1.0  0.88495  0.12919  0.98210  1.0000
  S   S472      1.0  0.72750  0.09826  0.75469  1.0000
  H   H1413     1.0  0.82116  0.08158  0.52621  1.0000
  N   N119      1.0  0.84285  0.13927  0.98258  1.0000
  H   H1414     1.0  0.79387  0.27500  0.55749  1.0000
  C   C1422     1.0  0.92867  0.14886  0.96620  1.0000
  C   C1423     1.0  0.81514  0.11058  0.99081  1.0000
  C   C1424     1.0  0.86685  0.11447  0.99876  1.0000
  C   C1425     1.0  0.79471  0.28201  0.53467  1.0000
  Fe  Fe240     1.0  0.72747  0.14611  0.82448  1.0000
  H   H1415     1.0  0.83943  0.28559  0.99862  1.0000
  C   C1426     1.0  0.87347  0.26751  0.99539  1.0000
  H   H1416     1.0  0.96025  0.19361  0.95361  1.0000
  H   H1417     1.0  0.76246  0.98529  0.66890  1.0000
  H   H1418     1.0  0.83758  0.13646  0.93174  1.0000
  H   H1419     1.0  0.83171  0.08292  0.97718  1.0000
  C   C1427     1.0  0.84083  0.09154  0.99282  1.0000
  H   H1420     1.0  0.86111  0.15663  0.95258  1.0000
  C   C1428     1.0  0.93647  0.17878  0.97077  1.0000
  C   C1429     1.0  0.81998  0.11699  0.95970  1.0000
  H   H1421     1.0  0.93356  0.18957  0.97657  1.0000
  C   C1430     1.0  0.88320  0.28434  0.98985  1.0000
  H   H1422     1.0  0.78701  0.28934  0.53706  1.0000
  H   H1423     1.0  0.85925  0.31335  0.98116  1.0000
  H   H1424     1.0  0.94653  0.14075  0.94565  1.0000
  H   H1425     1.0  0.76489  0.26243  0.51856  1.0000
  H   H1426     1.0  0.86765  0.15304  0.99147  1.0000
  H   H1427     1.0  0.84566  0.28095  0.50240  1.0000
  S   S473      1.0  0.79809  0.19514  0.50743  1.0000
  N   N120      1.0  0.78982  0.27024  0.50690  1.0000
  H   H1428     1.0  0.85754  0.17750  0.50454  1.0000
  C   C1431     1.0  0.76158  0.98478  0.64261  1.0000
  C   C1432     1.0  0.77383  0.26104  0.50203  1.0000
  S   S474      1.0  0.91265  0.42047  0.47155  1.0000
  S   S475      1.0  0.74383  0.62427  0.00603  1.0000
  H   H1429     1.0  0.83569  0.65095  0.18096  1.0000
  H   H1430     1.0  0.78902  0.64299  0.06032  1.0000
  H   H1431     1.0  0.88496  0.39532  0.41826  1.0000
  H   H1432     1.0  0.84904  0.59718  0.16816  1.0000
  H   H1433     1.0  0.93302  0.47848  0.43569  1.0000
  Fe  Fe241     1.0  0.82485  0.56007  0.26287  1.0000
  S   S476      1.0  0.83757  0.58256  0.29491  1.0000
  S   S477      1.0  0.82978  0.53598  0.26347  1.0000
  Fe  Fe242     1.0  0.80412  0.57665  0.23068  1.0000
  S   S478      1.0  0.81593  0.60024  0.26042  1.0000
  S   S479      1.0  0.78430  0.57985  0.20119  1.0000
  Fe  Fe243     1.0  0.83902  0.59738  0.24970  1.0000
  S   S480      1.0  0.86210  0.61896  0.23590  1.0000
  Fe  Fe244     1.0  0.81315  0.58349  0.30298  1.0000
  S   S481      1.0  0.80514  0.59279  0.34978  1.0000
  S   S482      1.0  0.82770  0.57489  0.21678  1.0000
  S   S483      1.0  0.80002  0.55990  0.27419  1.0000
  Fe  Fe245     1.0  0.89518  0.47126  0.33588  1.0000
  S   S484      1.0  0.91580  0.46829  0.30925  1.0000
  S   S485      1.0  0.87961  0.45338  0.37397  1.0000
  Fe  Fe246     1.0  0.90098  0.50490  0.30550  1.0000
  S   S486      1.0  0.92271  0.50494  0.27734  1.0000
  S   S487      1.0  0.89395  0.52766  0.30687  1.0000
  Fe  Fe247     1.0  0.90771  0.47789  0.26557  1.0000
  S   S488      1.0  0.91361  0.47050  0.21497  1.0000
  Fe  Fe248     1.0  0.92958  0.49533  0.32249  1.0000
  S   S489      1.0  0.95474  0.49899  0.33780  1.0000
  S   S490      1.0  0.88540  0.47844  0.29074  1.0000
  S   S491      1.0  0.90940  0.49768  0.35226  1.0000
  Fe  Fe249     1.0  0.89203  0.39722  0.08943  1.0000
  S   S492      1.0  0.89825  0.37453  0.09327  1.0000
  S   S493      1.0  0.87883  0.40400  0.13140  1.0000
  C   C1433     1.0  0.96519  0.53211  0.35849  1.0000
  H   H1434     1.0  0.86698  0.47923  0.35738  1.0000
  C   C1434     1.0  0.88108  0.38513  0.43646  1.0000
  Fe  Fe250     1.0  0.89057  0.36944  0.04088  1.0000
  H   H1435     1.0  0.89577  0.32224  0.02813  1.0000
  Fe  Fe251     1.0  0.92240  0.39160  0.07375  1.0000
  S   S494      1.0  0.94598  0.39236  0.09338  1.0000
  S   S495      1.0  0.88260  0.39118  0.03814  1.0000
  S   S496      1.0  0.91660  0.41439  0.07340  1.0000
  C   C1435     1.0  0.95903  0.40999  0.11528  1.0000
  H   H1436     1.0  0.94328  0.42334  0.11616  1.0000
  H   H1437     1.0  0.94394  0.47750  0.39866  1.0000
  N   N121      1.0  0.90033  0.45279  0.05178  1.0000
  H   H1438     1.0  0.87609  0.61860  0.15830  1.0000
  H   H1439     1.0  0.76821  0.56570  0.29170  1.0000
  C   C1436     1.0  0.85715  0.32213  0.06177  1.0000
  C   C1437     1.0  0.90350  0.45185  0.19269  1.0000
  C   C1438     1.0  0.91111  0.44869  0.16470  1.0000
  C   C1439     1.0  0.90374  0.43399  0.14607  1.0000
  C   C1440     1.0  0.88853  0.42241  0.15488  1.0000
  C   C1441     1.0  0.88083  0.42560  0.18281  1.0000
  C   C1442     1.0  0.88836  0.44022  0.20188  1.0000
  H   H1440     1.0  0.92285  0.45764  0.15751  1.0000
  H   H1441     1.0  0.90977  0.43183  0.12466  1.0000
  H   H1442     1.0  0.86903  0.41671  0.18979  1.0000
  H   H1443     1.0  0.88238  0.44259  0.22340  1.0000
  C   C1443     1.0  0.88892  0.44472  0.40185  1.0000
  C   C1444     1.0  0.87996  0.43509  0.42796  1.0000
  C   C1445     1.0  0.88708  0.42786  0.45014  1.0000
  C   C1446     1.0  0.90318  0.43006  0.44604  1.0000
  C   C1447     1.0  0.91213  0.43973  0.42000  1.0000
  C   C1448     1.0  0.90508  0.44710  0.39815  1.0000
  H   H1444     1.0  0.86746  0.43323  0.43108  1.0000
  H   H1445     1.0  0.77774  0.63199  0.02513  1.0000
  H   H1446     1.0  0.92457  0.44143  0.41657  1.0000
  H   H1447     1.0  0.91209  0.45443  0.37813  1.0000
  C   C1449     1.0  0.91683  0.39571  0.17184  1.0000
  S   S497      1.0  0.72664  0.57942  0.04726  1.0000
  C   C1450     1.0  0.74018  0.57563  0.35854  1.0000
  H   H1448     1.0  0.95350  0.53173  0.35195  1.0000
  C   C1451     1.0  0.84837  0.53436  0.27237  1.0000
  C   C1452     1.0  0.84965  0.51869  0.26886  1.0000
  C   C1453     1.0  0.86368  0.51651  0.27826  1.0000
  C   C1454     1.0  0.87659  0.52997  0.29157  1.0000
  C   C1455     1.0  0.87537  0.54567  0.29472  1.0000
  C   C1456     1.0  0.86142  0.54790  0.28504  1.0000
  H   H1449     1.0  0.83965  0.50813  0.25907  1.0000
  H   H1450     1.0  0.86440  0.50436  0.27567  1.0000
  H   H1451     1.0  0.88527  0.55619  0.30495  1.0000
  H   H1452     1.0  0.86065  0.56001  0.28800  1.0000
  C   C1457     1.0  0.76506  0.56329  0.09747  1.0000
  C   C1458     1.0  0.76060  0.57468  0.11565  1.0000
  C   C1459     1.0  0.76671  0.57966  0.14724  1.0000
  C   C1460     1.0  0.77745  0.57346  0.16090  1.0000
  C   C1461     1.0  0.78214  0.56229  0.14251  1.0000
  C   C1462     1.0  0.77588  0.55717  0.11103  1.0000
  H   H1453     1.0  0.75231  0.57951  0.10555  1.0000
  H   H1454     1.0  0.76302  0.58831  0.16127  1.0000
  H   H1455     1.0  0.79027  0.55730  0.15277  1.0000
  H   H1456     1.0  0.77934  0.54828  0.09722  1.0000
  C   C1463     1.0  0.76032  0.56321  0.41097  1.0000
  C   C1464     1.0  0.76502  0.55525  0.38490  1.0000
  C   C1465     1.0  0.77894  0.56401  0.36628  1.0000
  C   C1466     1.0  0.78828  0.58079  0.37378  1.0000
  C   C1467     1.0  0.78375  0.58862  0.40029  1.0000
  C   C1468     1.0  0.76981  0.57990  0.41876  1.0000
  H   H1457     1.0  0.75776  0.54232  0.37883  1.0000
  H   H1458     1.0  0.78238  0.55782  0.34608  1.0000
  H   H1459     1.0  0.79094  0.60158  0.40624  1.0000
  H   H1460     1.0  0.76629  0.58617  0.43867  1.0000
  C   C1469     1.0  0.75278  0.64252  0.40708  1.0000
  C   C1470     1.0  0.74922  0.63217  0.43459  1.0000
  H   H1461     1.0  0.87483  0.35433  0.45749  1.0000
  H   H1462     1.0  0.74364  0.55894  0.32259  1.0000
  H   H1463     1.0  0.88008  0.42055  0.47021  1.0000
  H   H1464     1.0  0.74313  0.61874  0.43184  1.0000
  S   S498      1.0  0.87735  0.34390  0.01557  1.0000
  C   C1471     1.0  0.76001  0.60396  0.35818  1.0000
  C   C1472     1.0  0.84694  0.63740  0.20774  1.0000
  H   H1465     1.0  0.92346  0.45578  0.03414  1.0000
  C   C1473     1.0  0.86573  0.62000  0.14787  1.0000
  H   H1466     1.0  0.83578  0.62696  0.21276  1.0000
  S   S499      1.0  0.91552  0.38475  0.02155  1.0000
  N   N122      1.0  0.92611  0.40991  0.19303  1.0000
  C   C1474     1.0  0.94205  0.41355  0.19801  1.0000
  C   C1475     1.0  0.91865  0.41911  0.20858  1.0000
  C   C1476     1.0  0.95121  0.42741  0.21725  1.0000
  C   C1477     1.0  0.92743  0.43308  0.22790  1.0000
  C   C1478     1.0  0.94385  0.43734  0.23191  1.0000
  H   H1467     1.0  0.91227  0.39785  0.42027  1.0000
  H   H1468     1.0  0.94793  0.40605  0.18622  1.0000
  H   H1469     1.0  0.89384  0.34040  0.46294  1.0000
  H   H1470     1.0  0.87939  0.64418  0.12735  1.0000
  C   C1479     1.0  0.91425  0.46112  0.03042  1.0000
  H   H1471     1.0  0.81149  0.64533  0.40738  1.0000
  H   H1472     1.0  0.92253  0.35543  0.44714  1.0000
  H   H1473     1.0  0.74025  0.59492  0.39263  1.0000
  H   H1474     1.0  0.77885  0.60884  0.32220  1.0000
  C   C1480     1.0  0.91402  0.36129  0.44380  1.0000
  N   N123      1.0  0.83708  0.60999  0.14211  1.0000
  C   C1481     1.0  0.83876  0.62408  0.12534  1.0000
  C   C1482     1.0  0.85031  0.60792  0.15355  1.0000
  C   C1483     1.0  0.89882  0.46012  0.08090  1.0000
  H   H1475     1.0  0.86447  0.42978  0.10938  1.0000
  C   C1484     1.0  0.86218  0.32476  0.02914  1.0000
  C   C1485     1.0  0.82099  0.59765  0.15005  1.0000
  H   H1476     1.0  0.91068  0.45915  0.00435  1.0000
  Fe  Fe252     1.0  0.90802  0.40666  0.02230  1.0000
  H   H1477     1.0  0.90781  0.47214  0.08837  1.0000
  H   H1478     1.0  0.81734  0.60023  0.17497  1.0000
  S   S500      1.0  0.72031  0.58110  0.46326  1.0000
  C   C1486     1.0  0.79737  0.64350  0.45123  1.0000
  C   C1487     1.0  0.77021  0.57921  0.29181  1.0000
  H   H1479     1.0  0.76599  0.58217  0.26839  1.0000
  C   C1488     1.0  0.91917  0.37752  0.43181  1.0000
  C   C1489     1.0  0.74616  0.59187  0.37162  1.0000
  H   H1480     1.0  0.96158  0.44726  0.14888  1.0000
  C   C1490     1.0  0.74818  0.57169  0.33212  1.0000
  H   H1481     1.0  0.86208  0.33220  0.07949  1.0000
  C   C1491     1.0  0.96517  0.43707  0.14193  1.0000
  Fe  Fe253     1.0  0.73691  0.59870  0.49997  1.0000
  H   H1482     1.0  0.93174  0.38442  0.42576  1.0000
  H   H1483     1.0  0.90589  0.41587  0.20563  1.0000
  H   H1484     1.0  0.95086  0.44836  0.24624  1.0000
  C   C1492     1.0  0.88935  0.43728  0.04317  1.0000
  N   N124      1.0  0.84623  0.51065  0.35116  1.0000
  C   C1493     1.0  0.83830  0.49433  0.34128  1.0000
  C   C1494     1.0  0.86139  0.51586  0.36347  1.0000
  C   C1495     1.0  0.84563  0.48280  0.34334  1.0000
  C   C1496     1.0  0.86905  0.50465  0.36591  1.0000
  C   C1497     1.0  0.86110  0.48802  0.35583  1.0000
  C   C1498     1.0  0.83812  0.52239  0.35002  1.0000
  H   H1485     1.0  0.82632  0.49023  0.33133  1.0000
  H   H1486     1.0  0.86789  0.52888  0.37047  1.0000
  H   H1487     1.0  0.83946  0.46992  0.33508  1.0000
  H   H1488     1.0  0.88129  0.50900  0.37458  1.0000
  H   H1489     1.0  0.89084  0.43124  0.02058  1.0000
  H   H1490     1.0  0.84690  0.53543  0.34620  1.0000
  H   H1491     1.0  0.82966  0.51937  0.32922  1.0000
  H   H1492     1.0  0.83136  0.52196  0.37308  1.0000
  H   H1493     1.0  0.88474  0.45777  0.12518  1.0000
  C   C1499     1.0  0.90809  0.38507  0.42880  1.0000
  C   C1500     1.0  0.85402  0.63643  0.11921  1.0000
  H   H1494     1.0  0.91172  0.38407  0.18621  1.0000
  H   H1495     1.0  0.81184  0.59792  0.13258  1.0000
  H   H1496     1.0  0.79033  0.63017  0.44825  1.0000
  C   C1501     1.0  0.95475  0.42350  0.12340  1.0000
  H   H1497     1.0  0.82827  0.62607  0.11740  1.0000
  H   H1498     1.0  0.88053  0.39080  0.46080  1.0000
  H   H1499     1.0  0.78340  0.58627  0.29332  1.0000
  Fe  Fe254     1.0  0.73409  0.56497  0.47378  1.0000
  H   H1500     1.0  0.92448  0.39384  0.15175  1.0000
  H   H1501     1.0  0.74930  0.63703  0.38308  1.0000
  H   H1502     1.0  0.86884  0.37621  0.42983  1.0000
  N   N125      1.0  0.89232  0.37667  0.43751  1.0000
  C   C1502     1.0  0.75345  0.63929  0.46570  1.0000
  C   C1503     1.0  0.76780  0.59954  0.33194  1.0000
  H   H1503     1.0  0.92157  0.44073  0.23924  1.0000
  Fe  Fe255     1.0  0.74160  0.56564  0.02813  1.0000
  N   N126      1.0  0.76193  0.58353  0.31946  1.0000
  H   H1504     1.0  0.82072  0.58470  0.14919  1.0000
  C   C1504     1.0  0.87617  0.42891  0.06352  1.0000
  S   S501      1.0  0.75693  0.55582  0.05841  1.0000
  S   S502      1.0  0.74200  0.55230  0.43187  1.0000
  C   C1505     1.0  0.78101  0.64353  0.04059  1.0000
  H   H1505     1.0  0.76488  0.61656  0.36850  1.0000
  H   H1506     1.0  0.90683  0.39790  0.16004  1.0000
  C   C1506     1.0  0.88575  0.45212  0.10176  1.0000
  H   H1507     1.0  0.91968  0.47486  0.03502  1.0000
  C   C1507     1.0  0.86146  0.63698  0.21785  1.0000
  C   C1508     1.0  0.88719  0.36078  0.44939  1.0000
  C   C1509     1.0  0.87436  0.43643  0.09291  1.0000
  H   H1508     1.0  0.86760  0.41648  0.05699  1.0000
  C   C1510     1.0  0.84693  0.65100  0.18974  1.0000
  H   H1509     1.0  0.76954  0.64330  0.05144  1.0000
  C   C1511     1.0  0.89792  0.35282  0.45251  1.0000
  C   C1512     1.0  0.86756  0.63436  0.13065  1.0000
  H   H1510     1.0  0.93267  0.49034  0.40011  1.0000
  C   C1513     1.0  0.94031  0.48586  0.41505  1.0000
  H   H1511     1.0  0.96401  0.43066  0.22000  1.0000
  H   H1512     1.0  0.96666  0.54104  0.44802  1.0000
  H   H1513     1.0  0.78518  0.64562  0.49543  1.0000
  H   H1514     1.0  0.72976  0.56599  0.36965  1.0000
  C   C1514     1.0  0.96700  0.52869  0.44496  1.0000
  Fe  Fe256     1.0  0.73636  0.59611  0.00405  1.0000
  N   N127      1.0  0.95444  0.49991  0.42725  1.0000
  H   H1515     1.0  0.94294  0.51728  0.42697  1.0000
  C   C1515     1.0  0.96888  0.51799  0.35331  1.0000
  C   C1516     1.0  0.95370  0.51524  0.43280  1.0000
  H   H1516     1.0  0.72975  0.52289  0.06256  1.0000
  H   H1517     1.0  0.85531  0.64792  0.10708  1.0000
  H   H1518     1.0  0.72780  0.54532  0.09826  1.0000
  H   H1519     1.0  0.96870  0.48529  0.42978  1.0000
  C   C1517     1.0  0.96812  0.49744  0.43418  1.0000
  S   S503      1.0  0.75014  0.62695  0.50088  1.0000
  H   H1520     1.0  0.88716  0.65032  0.21888  1.0000
  C   C1518     1.0  0.87589  0.65060  0.21109  1.0000
  H   H1521     1.0  0.86540  0.50991  0.70241  1.0000
  H   H1522     1.0  0.76029  0.61972  0.83082  1.0000
  H   H1523     1.0  0.77752  0.63272  0.90711  1.0000
  N   N128      1.0  0.89782  0.42703  0.78694  1.0000
  C   C1519     1.0  0.73981  0.63537  0.88337  1.0000
  C   C1520     1.0  0.87005  0.41862  0.77290  1.0000
  H   H1524     1.0  0.90798  0.44269  0.82861  1.0000
  Fe  Fe257     1.0  0.83858  0.57368  0.74754  1.0000
  S   S504      1.0  0.83310  0.59124  0.78239  1.0000
  S   S505      1.0  0.86235  0.57039  0.75184  1.0000
  Fe  Fe258     1.0  0.80748  0.56634  0.71011  1.0000
  S   S506      1.0  0.79926  0.58248  0.74335  1.0000
  S   S507      1.0  0.79632  0.55430  0.66214  1.0000
  Fe  Fe259     1.0  0.82486  0.60094  0.73894  1.0000
  S   S508      1.0  0.82751  0.62764  0.72996  1.0000
  Fe  Fe260     1.0  0.80805  0.57140  0.78414  1.0000
  S   S509      1.0  0.79910  0.56448  0.83609  1.0000
  S   S510      1.0  0.83265  0.58537  0.70373  1.0000
  S   S511      1.0  0.81404  0.55328  0.75126  1.0000
  Fe  Fe261     1.0  0.90290  0.47496  0.83675  1.0000
  S   S512      1.0  0.92727  0.48001  0.81489  1.0000
  S   S513      1.0  0.88923  0.45469  0.87300  1.0000
  Fe  Fe262     1.0  0.89532  0.49739  0.78823  1.0000
  S   S514      1.0  0.91909  0.50379  0.76195  1.0000
  S   S515      1.0  0.87330  0.50288  0.77427  1.0000
  Fe  Fe263     1.0  0.91532  0.47669  0.76627  1.0000
  S   S516      1.0  0.92464  0.46213  0.73022  1.0000
  Fe  Fe264     1.0  0.92975  0.50675  0.81215  1.0000
  S   S517      1.0  0.95458  0.52767  0.81525  1.0000
  S   S518      1.0  0.89075  0.46981  0.78814  1.0000
  S   S519      1.0  0.90616  0.50220  0.83839  1.0000
  Fe  Fe265     1.0  0.89134  0.39884  0.58710  1.0000
  S   S520      1.0  0.89816  0.37661  0.59417  1.0000
  S   S521      1.0  0.88025  0.40985  0.62664  1.0000
  C   C1521     1.0  0.91108  0.43506  0.80957  1.0000
  C   C1522     1.0  0.79594  0.59720  0.60195  1.0000
  C   C1523     1.0  0.85573  0.53732  0.84351  1.0000
  Fe  Fe266     1.0  0.88742  0.36817  0.54427  1.0000
  C   C1524     1.0  0.96286  0.45996  0.62973  1.0000
  Fe  Fe267     1.0  0.92093  0.39269  0.56803  1.0000
  S   S522      1.0  0.94675  0.39606  0.57573  1.0000
  S   S523      1.0  0.87910  0.38951  0.53863  1.0000
  S   S524      1.0  0.91485  0.41530  0.56461  1.0000
  C   C1525     1.0  0.95743  0.40896  0.60808  1.0000
  H   H1525     1.0  0.93650  0.40675  0.63673  1.0000
  C   C1526     1.0  0.80950  0.60300  0.65471  1.0000
  H   H1526     1.0  0.95222  0.42433  0.68263  1.0000
  C   C1527     1.0  0.95841  0.42210  0.66133  1.0000
  C   C1528     1.0  0.83765  0.55663  0.83697  1.0000
  H   H1527     1.0  0.91406  0.42540  0.82204  1.0000
  C   C1529     1.0  0.91240  0.44865  0.69987  1.0000
  C   C1530     1.0  0.91882  0.43934  0.67982  1.0000
  C   C1531     1.0  0.90919  0.42776  0.65663  1.0000
  C   C1532     1.0  0.89304  0.42533  0.65345  1.0000
  C   C1533     1.0  0.88668  0.43477  0.67327  1.0000
  C   C1534     1.0  0.89634  0.44644  0.69634  1.0000
  H   H1528     1.0  0.93119  0.44086  0.68262  1.0000
  H   H1529     1.0  0.91414  0.42039  0.64179  1.0000
  H   H1530     1.0  0.87420  0.43293  0.67094  1.0000
  H   H1531     1.0  0.89128  0.45352  0.71171  1.0000
  C   C1535     1.0  0.89793  0.44720  0.90406  1.0000
  C   C1536     1.0  0.88803  0.43354  0.92276  1.0000
  C   C1537     1.0  0.89444  0.42732  0.94798  1.0000
  C   C1538     1.0  0.91083  0.43482  0.95479  1.0000
  C   C1539     1.0  0.92073  0.44845  0.93603  1.0000
  C   C1540     1.0  0.91434  0.45458  0.91067  1.0000
  H   H1532     1.0  0.87532  0.42775  0.91773  1.0000
  H   H1533     1.0  0.89041  0.40625  0.71431  1.0000
  H   H1534     1.0  0.93342  0.45435  0.94124  1.0000
  H   H1535     1.0  0.92207  0.46513  0.89653  1.0000
  H   H1536     1.0  0.87426  0.55362  0.68268  1.0000
  H   H1537     1.0  0.86030  0.57751  0.83004  1.0000
  H   H1538     1.0  0.82474  0.54623  0.67319  1.0000
  H   H1539     1.0  0.80558  0.60227  0.68068  1.0000
  C   C1541     1.0  0.86505  0.55157  0.75971  1.0000
  C   C1542     1.0  0.88069  0.55222  0.76407  1.0000
  C   C1543     1.0  0.88343  0.53754  0.76972  1.0000
  C   C1544     1.0  0.87054  0.52198  0.77053  1.0000
  C   C1545     1.0  0.85488  0.52135  0.76630  1.0000
  C   C1546     1.0  0.85211  0.53606  0.76114  1.0000
  H   H1540     1.0  0.89079  0.56416  0.76299  1.0000
  H   H1541     1.0  0.89555  0.53820  0.77271  1.0000
  H   H1542     1.0  0.84483  0.50936  0.76677  1.0000
  H   H1543     1.0  0.84002  0.53536  0.75781  1.0000
  C   C1547     1.0  0.75496  0.56475  0.61687  1.0000
  C   C1548     1.0  0.76386  0.55768  0.59799  1.0000
  C   C1549     1.0  0.77647  0.55448  0.61217  1.0000
  C   C1550     1.0  0.78045  0.55857  0.64510  1.0000
  C   C1551     1.0  0.77171  0.56589  0.66376  1.0000
  C   C1552     1.0  0.75893  0.56879  0.64978  1.0000
  H   H1544     1.0  0.76086  0.55441  0.57267  1.0000
  H   H1545     1.0  0.78313  0.54874  0.59758  1.0000
  H   H1546     1.0  0.77451  0.56894  0.68918  1.0000
  H   H1547     1.0  0.75205  0.57417  0.66461  1.0000
  C   C1553     1.0  0.75286  0.56487  0.88468  1.0000
  C   C1554     1.0  0.75463  0.56558  0.85052  1.0000
  C   C1555     1.0  0.76890  0.56599  0.83523  1.0000
  C   C1556     1.0  0.78140  0.56534  0.85402  1.0000
  C   C1557     1.0  0.77963  0.56467  0.88815  1.0000
  C   C1558     1.0  0.76551  0.56460  0.90346  1.0000
  H   H1548     1.0  0.74484  0.56561  0.83577  1.0000
  H   H1549     1.0  0.77004  0.56633  0.80894  1.0000
  H   H1550     1.0  0.78921  0.56410  0.90290  1.0000
  H   H1551     1.0  0.76429  0.56398  0.92973  1.0000
  S   S525      1.0  0.75166  0.58341  0.50796  1.0000
  H   H1552     1.0  0.78759  0.61582  0.66847  1.0000
  C   C1559     1.0  0.75560  0.63597  0.97350  1.0000
  C   C1560     1.0  0.76268  0.62874  0.95045  1.0000
  C   C1561     1.0  0.77212  0.63842  0.92491  1.0000
  N   N129      1.0  0.83013  0.53977  0.84190  1.0000
  H   H1553     1.0  0.95776  0.46286  0.65206  1.0000
  C   C1562     1.0  0.73350  0.60660  0.89366  1.0000
  C   C1563     1.0  0.85696  0.63663  0.69849  1.0000
  C   C1564     1.0  0.77471  0.61142  0.62342  1.0000
  H   H1554     1.0  0.80398  0.59130  0.59355  1.0000
  H   H1555     1.0  0.85684  0.62461  0.70552  1.0000
  S   S526      1.0  0.91098  0.38275  0.51893  1.0000
  C   C1565     1.0  0.84158  0.51760  0.68227  1.0000
  C   C1566     1.0  0.82960  0.52391  0.67844  1.0000
  H   H1556     1.0  0.83814  0.50418  0.68432  1.0000
  H   H1557     1.0  0.81703  0.51553  0.67751  1.0000
  H   H1558     1.0  0.87341  0.51808  0.66274  1.0000
  N   N130      1.0  0.79696  0.60348  0.63310  1.0000
  S   S527      1.0  0.91945  0.42833  0.98750  1.0000
  N   N131      1.0  0.73184  0.62133  0.90127  1.0000
  S   S528      1.0  0.73463  0.56412  0.90290  1.0000
  C   C1567     1.0  0.78670  0.61075  0.64382  1.0000
  H   H1559     1.0  0.83067  0.56426  0.83417  1.0000
  H   H1560     1.0  0.80741  0.53452  0.82063  1.0000
  Fe  Fe268     1.0  0.90343  0.40450  0.51680  1.0000
  H   H1561     1.0  0.78303  0.59226  0.55652  1.0000
  H   H1562     1.0  0.83304  0.51668  0.84846  1.0000
  C   C1568     1.0  0.74373  0.60581  0.86823  1.0000
  H   H1563     1.0  0.93990  0.44405  0.61001  1.0000
  H   H1564     1.0  0.88060  0.53043  0.69955  1.0000
  C   C1569     1.0  0.95283  0.44939  0.60614  1.0000
  C   C1570     1.0  0.81253  0.53222  0.84360  1.0000
  C   C1571     1.0  0.88275  0.42637  0.79439  1.0000
  H   H1565     1.0  0.88050  0.43203  0.81685  1.0000
  C   C1572     1.0  0.86980  0.52133  0.68713  1.0000
  H   H1566     1.0  0.92185  0.44364  0.79614  1.0000
  N   N132      1.0  0.85741  0.52821  0.68383  1.0000
  C   C1573     1.0  0.94949  0.41217  0.63539  1.0000
  C   C1574     1.0  0.83392  0.54116  0.67594  1.0000
  C   C1575     1.0  0.96193  0.52544  0.87974  1.0000
  C   C1576     1.0  0.86176  0.54514  0.68098  1.0000
  C   C1577     1.0  0.85009  0.55186  0.67719  1.0000
  H   H1567     1.0  0.81226  0.59173  0.64951  1.0000
  H   H1568     1.0  0.94931  0.51787  0.88352  1.0000
  C   C1578     1.0  0.86348  0.55451  0.83854  1.0000
  C   C1579     1.0  0.78418  0.59778  0.58082  1.0000
  C   C1580     1.0  0.90059  0.41978  0.75876  1.0000
  H   H1569     1.0  0.87648  0.56019  0.83624  1.0000
  C   C1581     1.0  0.83894  0.53009  0.84506  1.0000
  H   H1570     1.0  0.80781  0.51848  0.84737  1.0000
  H   H1571     1.0  0.91260  0.42058  0.75258  1.0000
  C   C1582     1.0  0.96761  0.53148  0.84872  1.0000
  C   C1583     1.0  0.95955  0.44522  0.57808  1.0000
  H   H1572     1.0  0.76393  0.60486  0.57599  1.0000
  C   C1584     1.0  0.88811  0.41167  0.73703  1.0000
  H   H1573     1.0  0.88035  0.64457  0.67531  1.0000
  H   H1574     1.0  0.76625  0.61669  0.63224  1.0000
  H   H1575     1.0  0.85821  0.41846  0.77857  1.0000
  H   H1576     1.0  0.82062  0.61447  0.65178  1.0000
  H   H1577     1.0  0.86269  0.52956  0.84517  1.0000
  H   H1578     1.0  0.73863  0.64710  0.88945  1.0000
  Fe  Fe269     1.0  0.73371  0.57049  0.54715  1.0000
  C   C1585     1.0  0.87031  0.64798  0.68150  1.0000
  Fe  Fe270     1.0  0.73210  0.56718  0.95768  1.0000
  C   C1586     1.0  0.87279  0.41126  0.74402  1.0000
  H   H1579     1.0  0.86316  0.40545  0.72678  1.0000
  S   S529      1.0  0.87507  0.34164  0.52151  1.0000
  H   H1580     1.0  0.85359  0.56533  0.67606  1.0000
  H   H1581     1.0  0.76087  0.61569  0.95219  1.0000
  C   C1587     1.0  0.75012  0.63501  0.85772  1.0000
  C   C1588     1.0  0.85441  0.56424  0.83510  1.0000
  C   C1589     1.0  0.84403  0.64105  0.70690  1.0000
  S   S530      1.0  0.73872  0.56867  0.60077  1.0000
  H   H1582     1.0  0.74520  0.59416  0.86277  1.0000
  H   H1583     1.0  0.95496  0.48531  0.75904  1.0000
  H   H1584     1.0  0.80811  0.53800  0.86406  1.0000
  C   C1590     1.0  0.96701  0.48649  0.76512  1.0000
  C   C1591     1.0  0.77346  0.60486  0.59175  1.0000
  H   H1585     1.0  0.85350  0.32893  0.57856  1.0000
  H   H1586     1.0  0.75687  0.64635  0.84443  1.0000
  H   H1587     1.0  0.88671  0.41678  0.96211  1.0000
  C   C1592     1.0  0.75214  0.62013  0.85026  1.0000
  H   H1588     1.0  0.82076  0.64070  0.80273  1.0000
  S   S531      1.0  0.72168  0.54773  0.99674  1.0000
  S   S532      1.0  0.75293  0.58375  0.98757  1.0000
  H   H1589     1.0  0.95187  0.43647  0.56020  1.0000
  C   C1593     1.0  0.85185  0.31856  0.56187  1.0000
  H   H1590     1.0  0.72209  0.61441  0.94893  1.0000
  H   H1591     1.0  0.72419  0.63484  0.93767  1.0000
  H   H1592     1.0  0.72706  0.59536  0.90746  1.0000
  H   H1593     1.0  0.96794  0.52554  0.93042  1.0000
  C   C1594     1.0  0.72105  0.62186  0.92804  1.0000
  C   C1595     1.0  0.86094  0.32134  0.53295  1.0000
  H   H1594     1.0  0.96789  0.46861  0.72847  1.0000
  H   H1595     1.0  0.79670  0.64605  0.98367  1.0000
  H   H1596     1.0  0.88990  0.31850  0.98645  1.0000
  H   H1597     1.0  0.96970  0.50471  0.80329  1.0000
  S   S533      1.0  0.72008  0.58708  0.54150  1.0000
  S   S534      1.0  0.73346  0.89786  0.09732  1.0000
  C   C1596     1.0  0.73687  0.80636  0.43193  1.0000
  C   C1597     1.0  0.74339  0.72819  0.32193  1.0000
  H   H1598     1.0  0.83759  0.72172  0.17907  1.0000
  H   H1599     1.0  0.87052  0.73214  0.47309  1.0000
  C   C1598     1.0  0.79452  0.65234  0.47793  1.0000
  Fe  Fe271     1.0  0.88384  0.74121  0.16803  1.0000
  S   S535      1.0  0.89575  0.72445  0.18472  1.0000
  S   S536      1.0  0.87308  0.75494  0.20265  1.0000
  Fe  Fe272     1.0  0.88643  0.73255  0.09590  1.0000
  S   S537      1.0  0.89848  0.71496  0.10763  1.0000
  S   S538      1.0  0.88142  0.73458  0.04241  1.0000
  Fe  Fe273     1.0  0.88007  0.70586  0.14810  1.0000
  S   S539      1.0  0.86071  0.67992  0.15591  1.0000
  Fe  Fe274     1.0  0.91332  0.73532  0.14281  1.0000
  S   S540      1.0  0.94029  0.74250  0.15215  1.0000
  S   S541      1.0  0.86722  0.72224  0.13378  1.0000
  S   S542      1.0  0.90230  0.75347  0.12872  1.0000
  Fe  Fe275     1.0  0.81827  0.72120  0.36053  1.0000
  S   S543      1.0  0.81886  0.74270  0.39319  1.0000
  S   S544      1.0  0.83840  0.71759  0.33142  1.0000
  Fe  Fe276     1.0  0.78430  0.69884  0.38342  1.0000
  S   S545      1.0  0.78204  0.71855  0.41725  1.0000
  S   S546      1.0  0.76538  0.67279  0.37588  1.0000
  Fe  Fe277     1.0  0.79332  0.73644  0.37637  1.0000
  S   S547      1.0  0.78529  0.75622  0.35522  1.0000
  Fe  Fe278     1.0  0.80752  0.72305  0.43130  1.0000
  H   H1600     1.0  0.84505  0.68199  0.27165  1.0000
  S   S548      1.0  0.79375  0.71617  0.34117  1.0000
  S   S549      1.0  0.80871  0.70211  0.39999  1.0000
  C   C1599     1.0  0.84299  0.68177  0.24497  1.0000
  S   S550      1.0  0.72905  0.87090  0.01837  1.0000
  H   H1601     1.0  0.72077  0.91653  0.19974  1.0000
  N   N133      1.0  0.83573  0.69366  0.23676  1.0000
  C   C1600     1.0  0.76515  0.66704  0.44164  1.0000
  C   C1601     1.0  0.81466  0.67768  0.45913  1.0000
  C   C1602     1.0  0.76801  0.76101  0.36253  1.0000
  C   C1603     1.0  0.76550  0.77282  0.34265  1.0000
  C   C1604     1.0  0.75159  0.77643  0.34625  1.0000
  C   C1605     1.0  0.73999  0.76828  0.36993  1.0000
  C   C1606     1.0  0.74259  0.75663  0.39013  1.0000
  C   C1607     1.0  0.75649  0.75300  0.38648  1.0000
  H   H1602     1.0  0.77432  0.77908  0.32402  1.0000
  H   H1603     1.0  0.74974  0.78531  0.33032  1.0000
  H   H1604     1.0  0.73371  0.75023  0.40853  1.0000
  H   H1605     1.0  0.75824  0.74391  0.40198  1.0000
  C   C1608     1.0  0.72187  0.87210  0.47893  1.0000
  N   N134      1.0  0.75636  0.93230  0.15917  1.0000
  H   H1606     1.0  0.77124  0.68048  0.44459  1.0000
  C   C1609     1.0  0.86214  0.73211  0.02898  1.0000
  C   C1610     1.0  0.85173  0.73690  0.04853  1.0000
  C   C1611     1.0  0.83741  0.73689  0.03544  1.0000
  H   H1607     1.0  0.76002  0.83626  0.37990  1.0000
  C   C1612     1.0  0.84520  0.72710  0.47724  1.0000
  C   C1613     1.0  0.83354  0.71419  0.20078  1.0000
  H   H1608     1.0  0.85498  0.74116  0.07336  1.0000
  H   H1609     1.0  0.82961  0.74099  0.05050  1.0000
  H   H1610     1.0  0.84400  0.72931  0.45173  1.0000
  N   N135      1.0  0.72899  0.72381  0.33818  1.0000
  C   C1614     1.0  0.86390  0.74505  0.23925  1.0000
  C   C1615     1.0  0.86735  0.73196  0.25179  1.0000
  C   C1616     1.0  0.85994  0.72423  0.28084  1.0000
  C   C1617     1.0  0.84869  0.72921  0.29726  1.0000
  C   C1618     1.0  0.84536  0.74247  0.28505  1.0000
  C   C1619     1.0  0.85310  0.75049  0.25629  1.0000
  H   H1611     1.0  0.87573  0.72775  0.23914  1.0000
  H   H1612     1.0  0.86265  0.71406  0.29029  1.0000
  H   H1613     1.0  0.83677  0.74646  0.29761  1.0000
  H   H1614     1.0  0.85049  0.76074  0.24692  1.0000
  H   H1615     1.0  0.81779  0.72623  0.21707  1.0000
  C   C1620     1.0  0.87587  0.66435  0.19341  1.0000
  H   H1616     1.0  0.88707  0.67458  0.18755  1.0000
  H   H1617     1.0  0.86083  0.76330  0.49645  1.0000
  C   C1621     1.0  0.95788  0.75899  0.13690  1.0000
  C   C1622     1.0  0.95731  0.76961  0.11213  1.0000
  H   H1618     1.0  0.77285  0.86330  0.42817  1.0000
  H   H1619     1.0  0.94587  0.76803  0.10178  1.0000
  C   C1623     1.0  0.78895  0.67367  0.03278  1.0000
  C   C1624     1.0  0.73549  0.81679  0.45722  1.0000
  C   C1625     1.0  0.82453  0.69573  0.25739  1.0000
  H   H1620     1.0  0.93354  0.77417  0.15978  1.0000
  H   H1621     1.0  0.85489  0.68499  0.23271  1.0000
  C   C1626     1.0  0.83198  0.72332  0.49837  1.0000
  Fe  Fe279     1.0  0.72708  0.91965  0.08417  1.0000
  C   C1627     1.0  0.86021  0.72870  0.48940  1.0000
  C   C1628     1.0  0.73468  0.94287  0.19216  1.0000
  S   S551      1.0  0.81339  0.72308  0.48508  1.0000
  H   H1622     1.0  0.82705  0.67604  0.41444  1.0000
  H   H1623     1.0  0.76418  0.66236  0.49315  1.0000
  C   C1629     1.0  0.75107  0.96577  0.09592  1.0000
  H   H1624     1.0  0.75469  0.86590  0.44127  1.0000
  H   H1625     1.0  0.89614  0.76518  0.25645  1.0000
  C   C1630     1.0  0.73911  0.96932  0.11276  1.0000
  N   N136      1.0  0.78893  0.65869  0.02137  1.0000
  C   C1631     1.0  0.82243  0.71671  0.22209  1.0000
  H   H1626     1.0  0.72745  0.95941  0.11677  1.0000
  S   S552      1.0  0.74830  0.94513  0.08241  1.0000
  C   C1632     1.0  0.76088  0.65997  0.41054  1.0000
  H   H1627     1.0  0.76545  0.72417  0.31644  1.0000
  H   H1628     1.0  0.72829  0.81146  0.47873  1.0000
  H   H1629     1.0  0.83501  0.66890  0.23722  1.0000
  H   H1630     1.0  0.84886  0.70080  0.19202  1.0000
  H   H1631     1.0  0.75731  0.70128  0.35703  1.0000
  H   H1632     1.0  0.74195  0.84221  0.47397  1.0000
  H   H1633     1.0  0.76602  0.92820  0.11394  1.0000
  C   C1633     1.0  0.73460  0.70307  0.36786  1.0000
  H   H1634     1.0  0.80953  0.70954  0.26778  1.0000
  H   H1635     1.0  0.72666  0.88474  0.48891  1.0000
  H   H1636     1.0  0.93786  0.79348  0.18269  1.0000
  H   H1637     1.0  0.95138  0.78286  0.18392  1.0000
  N   N137      1.0  0.75178  0.84100  0.42667  1.0000
  C   C1634     1.0  0.74324  0.83419  0.45434  1.0000
  C   C1635     1.0  0.75331  0.83087  0.40190  1.0000
  H   H1638     1.0  0.74716  0.73827  0.30448  1.0000
  H   H1639     1.0  0.74015  0.90742  0.17053  1.0000
  H   H1640     1.0  0.78014  0.93464  0.14703  1.0000
  C   C1636     1.0  0.75980  0.85924  0.42376  1.0000
  C   C1637     1.0  0.74865  0.95458  0.17835  1.0000
  C   C1638     1.0  0.76616  0.97887  0.09101  1.0000
  H   H1641     1.0  0.73113  0.69327  0.38593  1.0000
  C   C1639     1.0  0.75380  0.72021  0.32853  1.0000
  H   H1642     1.0  0.72998  0.87974  0.42979  1.0000
  H   H1643     1.0  0.92912  0.74043  0.26079  1.0000
  H   H1644     1.0  0.82133  0.68901  0.28017  1.0000
  S   S553      1.0  0.72255  0.84974  0.39119  1.0000
  H   H1645     1.0  0.74706  0.80539  0.38443  1.0000
  H   H1646     1.0  0.90465  0.74423  0.28192  1.0000
  H   H1647     1.0  0.75791  0.86315  0.39902  1.0000
  C   C1640     1.0  0.93847  0.78090  0.18294  1.0000
  C   C1641     1.0  0.76118  0.65676  0.46911  1.0000
  C   C1642     1.0  0.84000  0.70243  0.20840  1.0000
  H   H1648     1.0  0.75096  0.96786  0.17957  1.0000
  C   C1643     1.0  0.81776  0.70732  0.25045  1.0000
  S   S554      1.0  0.72157  0.77121  0.37386  1.0000
  C   C1644     1.0  0.86139  0.66437  0.18207  1.0000
  C   C1645     1.0  0.76752  0.92686  0.14045  1.0000
  H   H1649     1.0  0.76982  0.95816  0.14966  1.0000
  C   C1646     1.0  0.74597  0.81342  0.40424  1.0000
  H   H1650     1.0  0.76536  0.91355  0.14501  1.0000
  N   N138      1.0  0.92939  0.77107  0.21062  1.0000
  C   C1647     1.0  0.93419  0.75955  0.22445  1.0000
  C   C1648     1.0  0.91572  0.77288  0.22147  1.0000
  C   C1649     1.0  0.92539  0.74972  0.25026  1.0000
  C   C1650     1.0  0.90688  0.76355  0.24775  1.0000
  C   C1651     1.0  0.91168  0.75181  0.26205  1.0000
  H   H1651     1.0  0.96554  0.73947  0.08322  1.0000
  H   H1652     1.0  0.94477  0.75776  0.21526  1.0000
  H   H1653     1.0  0.91146  0.78147  0.20970  1.0000
  H   H1654     1.0  0.79687  0.70033  0.02419  1.0000
  C   C1652     1.0  0.74272  0.92073  0.17279  1.0000
  C   C1653     1.0  0.79687  0.68840  0.01538  1.0000
  C   C1654     1.0  0.73168  0.92582  0.18946  1.0000
  C   C1655     1.0  0.81794  0.66921  0.43227  1.0000
  C   C1656     1.0  0.74934  0.70755  0.35159  1.0000
  H   H1655     1.0  0.78275  0.67429  0.05537  1.0000
  H   H1656     1.0  0.72439  0.74430  0.31883  1.0000
  S   S555      1.0  0.72765  0.81581  0.33207  1.0000
  H   H1657     1.0  0.73080  0.79283  0.43356  1.0000
  H   H1658     1.0  0.72609  0.94697  0.20452  1.0000
  N   N139      1.0  0.80304  0.66924  0.48144  1.0000
  H   H1659     1.0  0.77552  0.97631  0.07799  1.0000
  C   C1657     1.0  0.75936  0.94903  0.16164  1.0000
  H   H1660     1.0  0.73920  0.84020  0.01519  1.0000
  C   C1658     1.0  0.72375  0.86924  0.44546  1.0000
  C   C1659     1.0  0.72449  0.71135  0.36076  1.0000
  H   H1661     1.0  0.82130  0.69111  0.46182  1.0000
  C   C1660     1.0  0.80918  0.65202  0.42829  1.0000
  C   C1661     1.0  0.83339  0.73207  0.00283  1.0000
  H   H1662     1.0  0.79414  0.68722  0.49892  1.0000
  S   S556      1.0  0.73496  0.90189  0.60106  1.0000
  H   H1663     1.0  0.84418  0.69947  0.74361  1.0000
  H   H1664     1.0  0.73104  0.76171  0.83296  1.0000
  S   S557      1.0  0.74190  0.94885  0.57118  1.0000
  C   C1662     1.0  0.87081  0.66380  0.67289  1.0000
  C   C1663     1.0  0.72463  0.85556  0.95833  1.0000
  Fe  Fe280     1.0  0.87706  0.73137  0.66094  1.0000
  S   S558      1.0  0.89601  0.72363  0.68124  1.0000
  S   S559      1.0  0.85665  0.73633  0.68597  1.0000
  Fe  Fe281     1.0  0.88654  0.72781  0.59071  1.0000
  S   S560      1.0  0.90632  0.71954  0.60484  1.0000
  S   S561      1.0  0.88165  0.73110  0.53765  1.0000
  Fe  Fe282     1.0  0.88857  0.70375  0.64204  1.0000
  S   S562      1.0  0.88794  0.67795  0.65247  1.0000
  Fe  Fe283     1.0  0.91284  0.74003  0.64288  1.0000
  S   S563      1.0  0.93860  0.75541  0.65954  1.0000
  S   S564      1.0  0.86832  0.71010  0.62438  1.0000
  S   S565      1.0  0.89438  0.74966  0.62610  1.0000
  Fe  Fe284     1.0  0.82088  0.72635  0.86393  1.0000
  S   S566      1.0  0.81257  0.74403  0.89282  1.0000
  S   S567      1.0  0.84541  0.73390  0.83960  1.0000
  Fe  Fe285     1.0  0.79346  0.69513  0.89048  1.0000
  S   S568      1.0  0.78307  0.71034  0.92108  1.0000
  S   S569      1.0  0.78571  0.66687  0.88884  1.0000
  Fe  Fe286     1.0  0.78756  0.72702  0.87731  1.0000
  S   S570      1.0  0.76773  0.73344  0.85450  1.0000
  Fe  Fe287     1.0  0.80878  0.72594  0.93393  1.0000
  C   C1664     1.0  0.75240  0.85664  0.74645  1.0000
  S   S571      1.0  0.79635  0.71045  0.84549  1.0000
  S   S572      1.0  0.81870  0.70960  0.90617  1.0000
  H   H1665     1.0  0.74889  0.83562  0.71414  1.0000
  N   N140      1.0  0.83737  0.68147  0.78129  1.0000
  H   H1666     1.0  0.93795  0.69991  0.57836  1.0000
  C   C1665     1.0  0.81714  0.67742  0.82286  1.0000
  H   H1667     1.0  0.83549  0.74828  0.62917  1.0000
  H   H1668     1.0  0.75136  0.84947  0.76839  1.0000
  C   C1666     1.0  0.76023  0.74952  0.86178  1.0000
  C   C1667     1.0  0.74733  0.74950  0.84301  1.0000
  C   C1668     1.0  0.74095  0.76194  0.84763  1.0000
  C   C1669     1.0  0.74744  0.77465  0.87112  1.0000
  C   C1670     1.0  0.76034  0.77467  0.88994  1.0000
  C   C1671     1.0  0.76670  0.76220  0.88535  1.0000
  H   H1669     1.0  0.74222  0.73978  0.82471  1.0000
  C   C1672     1.0  0.93023  0.71135  0.68639  1.0000
  N   N141      1.0  0.85934  0.76273  0.54850  1.0000
  H   H1670     1.0  0.77661  0.76242  0.89998  1.0000
  N   N142      1.0  0.85514  0.76756  0.94306  1.0000
  H   H1671     1.0  0.76899  0.67553  0.94318  1.0000
  H   H1672     1.0  0.93539  0.70609  0.70547  1.0000
  C   C1673     1.0  0.75104  0.84885  0.71591  1.0000
  C   C1674     1.0  0.84871  0.72197  0.54352  1.0000
  C   C1675     1.0  0.93390  0.70437  0.62912  1.0000
  C   C1676     1.0  0.73533  0.83000  0.99731  1.0000
  H   H1673     1.0  0.83121  0.76415  0.95545  1.0000
  C   C1677     1.0  0.72484  0.80476  0.95022  1.0000
  H   H1674     1.0  0.85002  0.72022  0.56918  1.0000
  H   H1675     1.0  0.82353  0.71741  0.54788  1.0000
  H   H1676     1.0  0.84074  0.72316  0.95849  1.0000
  H   H1677     1.0  0.83101  0.70105  0.80120  1.0000
  C   C1678     1.0  0.85374  0.73557  0.72871  1.0000
  C   C1679     1.0  0.86609  0.73680  0.74993  1.0000
  C   C1680     1.0  0.86343  0.73657  0.78389  1.0000
  C   C1681     1.0  0.84836  0.73482  0.79685  1.0000
  C   C1682     1.0  0.83594  0.73335  0.77563  1.0000
  C   C1683     1.0  0.83869  0.73388  0.74170  1.0000
  H   H1678     1.0  0.87777  0.73824  0.74019  1.0000
  H   H1679     1.0  0.87311  0.73773  0.80016  1.0000
  H   H1680     1.0  0.82429  0.73203  0.78533  1.0000
  H   H1681     1.0  0.82909  0.73298  0.72543  1.0000
  C   C1684     1.0  0.87916  0.75497  0.93920  1.0000
  C   C1685     1.0  0.75474  0.88216  0.72008  1.0000
  H   H1682     1.0  0.85800  0.68021  0.67422  1.0000
  C   C1686     1.0  0.95790  0.76151  0.60324  1.0000
  C   C1687     1.0  0.95710  0.76354  0.63709  1.0000
  H   H1683     1.0  0.75555  0.89498  0.72205  1.0000
  H   H1684     1.0  0.94695  0.75533  0.58971  1.0000
  C   C1688     1.0  0.87670  0.76256  0.96802  1.0000
  C   C1689     1.0  0.86439  0.76858  0.96970  1.0000
  C   C1690     1.0  0.75343  0.88346  0.66037  1.0000
  H   H1685     1.0  0.82141  0.75041  0.57863  1.0000
  S   S573      1.0  0.81585  0.73329  0.98663  1.0000
  H   H1686     1.0  0.92995  0.72346  0.69530  1.0000
  C   C1691     1.0  0.76737  0.66255  0.94518  1.0000
  H   H1687     1.0  0.72088  0.79501  0.93151  1.0000
  C   C1692     1.0  0.85866  0.75669  0.60555  1.0000
  H   H1688     1.0  0.86211  0.77381  0.99262  1.0000
  C   C1693     1.0  0.95846  0.71967  0.59958  1.0000
  S   S574      1.0  0.72081  0.89061  0.69399  1.0000
  C   C1694     1.0  0.84230  0.77394  0.94537  1.0000
  C   C1695     1.0  0.75217  0.96820  0.59275  1.0000
  H   H1689     1.0  0.87995  0.76457  0.57542  1.0000
  C   C1696     1.0  0.86938  0.75357  0.91245  1.0000
  C   C1697     1.0  0.75315  0.96921  0.62679  1.0000
  H   H1690     1.0  0.86581  0.72301  0.98149  1.0000
  C   C1698     1.0  0.75436  0.87343  0.74862  1.0000
  H   H1691     1.0  0.74765  0.95796  0.64094  1.0000
  H   H1692     1.0  0.74980  0.81225  0.93638  1.0000
  H   H1693     1.0  0.75309  0.89597  0.66578  1.0000
  H   H1694     1.0  0.88382  0.76309  0.98941  1.0000
  H   H1695     1.0  0.84975  0.75868  0.89391  1.0000
  H   H1696     1.0  0.75494  0.87945  0.77229  1.0000
  H   H1697     1.0  0.76548  0.78442  0.90817  1.0000
  C   C1699     1.0  0.86212  0.72650  0.52269  1.0000
  N   N143      1.0  0.75328  0.87437  0.69021  1.0000
  C   C1700     1.0  0.83469  0.66479  0.78196  1.0000
  C   C1701     1.0  0.85734  0.75994  0.91483  1.0000
  H   H1698     1.0  0.81068  0.68626  0.52159  1.0000
  S   S575      1.0  0.73992  0.79073  0.87793  1.0000
  H   H1699     1.0  0.83435  0.66016  0.70382  1.0000
  C   C1702     1.0  0.85777  0.66811  0.68095  1.0000
  H   H1700     1.0  0.92182  0.69473  0.62934  1.0000
  H   H1701     1.0  0.75002  0.85170  0.66425  1.0000
  C   C1703     1.0  0.79683  0.65793  0.99293  1.0000
  C   C1704     1.0  0.84440  0.65673  0.69775  1.0000
  C   C1705     1.0  0.75805  0.65291  0.97088  1.0000
  H   H1702     1.0  0.85505  0.68597  0.74291  1.0000
  C   C1706     1.0  0.77441  0.65532  0.92205  1.0000
  C   C1707     1.0  0.86714  0.76176  0.57616  1.0000
  H   H1703     1.0  0.87841  0.76369  0.51610  1.0000
  C   C1708     1.0  0.84959  0.69277  0.75930  1.0000
  H   H1704     1.0  0.81065  0.67174  0.95180  1.0000
  H   H1705     1.0  0.84576  0.78523  0.96152  1.0000
  C   C1709     1.0  0.84356  0.72679  0.98365  1.0000
  H   H1706     1.0  0.87095  0.74743  0.89002  1.0000
  C   C1710     1.0  0.80480  0.68768  0.98628  1.0000
  H   H1707     1.0  0.83693  0.75965  0.52736  1.0000
  H   H1708     1.0  0.74257  0.87639  0.64576  1.0000
  C   C1711     1.0  0.95518  0.72606  0.65611  1.0000
  H   H1709     1.0  0.73761  0.86065  0.95649  1.0000
  C   C1712     1.0  0.83430  0.75379  0.57831  1.0000
  H   H1710     1.0  0.91758  0.70259  0.68238  1.0000
  C   C1713     1.0  0.84214  0.75255  0.60653  1.0000
  H   H1711     1.0  0.86480  0.75579  0.62745  1.0000
  N   N144      1.0  0.93994  0.71398  0.65641  1.0000
  H   H1712     1.0  0.75260  0.65859  0.98864  1.0000
  Fe  Fe288     1.0  0.72627  0.92231  0.58862  1.0000
  C   C1714     1.0  0.74651  0.82720  0.97663  1.0000
  H   H1713     1.0  0.72311  0.97044  0.56774  1.0000
  H   H1714     1.0  0.88838  0.74984  0.93793  1.0000
  C   C1715     1.0  0.81417  0.66037  0.82343  1.0000
  C   C1716     1.0  0.82882  0.68784  0.80148  1.0000
  H   H1715     1.0  0.81043  0.68256  0.83888  1.0000
  C   C1717     1.0  0.86853  0.76834  0.51813  1.0000
  C   C1718     1.0  0.85782  0.72674  0.99673  1.0000
  C   C1719     1.0  0.84317  0.75908  0.54937  1.0000
  C   C1720     1.0  0.75156  0.85798  0.68786  1.0000
  H   H1716     1.0  0.85938  0.70217  0.77368  1.0000
  H   H1717     1.0  0.83954  0.77755  0.92108  1.0000
  C   C1721     1.0  0.83371  0.72040  0.53137  1.0000
  C   C1722     1.0  0.94299  0.70718  0.60022  1.0000
  H   H1718     1.0  0.76437  0.88524  0.64556  1.0000
  C   C1723     1.0  0.74126  0.81450  0.95291  1.0000
  H   H1719     1.0  0.72134  0.84250  0.91181  1.0000
  H   H1720     1.0  0.95982  0.73396  0.67749  1.0000
  C   C1724     1.0  0.80480  0.67240  0.97486  1.0000
  H   H1721     1.0  0.87374  0.78224  0.51743  1.0000
  H   H1722     1.0  0.79086  0.67025  0.52644  1.0000
  H   H1723     1.0  0.75920  0.83500  0.97867  1.0000
  H   H1724     1.0  0.84157  0.65969  0.76636  1.0000
  C   C1725     1.0  0.96469  0.72903  0.62779  1.0000
  H   H1725     1.0  0.80508  0.65221  0.83992  1.0000
  H   H1726     1.0  0.75880  0.98252  0.54861  1.0000
  S   S576      1.0  0.72133  0.82082  0.84325  1.0000
  H   H1727     1.0  0.96555  0.72231  0.57719  1.0000
  H   H1728     1.0  0.81088  0.69899  0.97259  1.0000
  C   C1726     1.0  0.82296  0.65396  0.80279  1.0000
  C   C1727     1.0  0.75943  0.98307  0.57494  1.0000
  C   C1728     1.0  0.79948  0.67863  0.50852  1.0000
