data_image0
_chemical_formula_structural       FeS2FeSH3FeHCH2CHCHFeS2FeSCFeSFeSHSCHCSH2SCHCSCNSHC3H2C7H3FeC2NCH2CHCHC2H2NH2CHCFeCHCHCHNCHCHCSHCHC2FeC3H6S2C5H3CHC2SHSHC3SFeH2SH2C3HCNCHC2H3CSHC3NH2C3H2SCFeS2FeSH2CH4S2C2HFeS2CS2FeSFeS3CH2CFeH2CH2CHCH2C3H2C6H5CH2C2HFeCHCH2CH4CNC4HCSH5FeC4HCH2SCH3SHCH2NFeCHC2NC2HCHCSC5SFeCFeS2FeS2FeSFeS3FeHSFeSFeH2C2HC2SCSFeS2FeS2FeSFeS3HC3HCHCHC2H2C7H4FeHSH3CH2C3H2C2NC3H4C6H4C6H4C3H2SHNCNC2HC3SH2C3H2CHS2CH4C2HCH4CHCHC3H3CHCH2C3H2C2H3C2H2CFeS2FeS2FeSFeS3FeS2FeSFeCH3CHNC2HFeS2FeS2FeSFeS3HCH2CHSC2HC2HC7SH3CHNH2SCHCH5C2HCHC2H3C6H4C6H4C2H4CHC2H3C3HC2H2NCFeNSH2FeCNC3HC2HSCHCH2CHCH4C2HCHCNC3HCHNC2HSCHCHSHC2H4CNHCHCSC4H2CS2CHCH2SFeS2FeS2FeSFeCS2HCH2C2SHCFeHFeS2HCHCHCHNC2H2C3SC3SHSC2H3C2HCH2C6H2NHC2H4CH4C2HNCHCS2H4C2S2FeC2SHC2HCHCHCHC2H2C2SHCH3C2FeNC3H2CHCH2CHCHNSCHC2H2FeC2H4CH4CHSH2FeS2FeS2FeSFeHS3C2HCFe2HCFeHFeS2C2HC4HC2H2S2C4H2C4H3CNSC2HC6H2CHCHCHCH2CHSH2CHN2H2C2SHC3HCH3CSH2CHCHCHNC3H3CH3CH6CHCHFeC2HC4HS2FeSHFeS2FeSFeS4CFeSHFeS2CSCFeSFeSHSHNHCH2C2H3C6H4C6HCH3CHC3HCH4CHCH4CH2CSHCNC2SC2H3CH2NH5CHCH2CFeC2FeSC2HC2HNHCH2CHCHCH2FeSCFeS2FeSFeS2C2HFeS2FeSHCSCFeSFeSCSCHCH3C3H2C6H4C6H4NC3HNSCNH2CFeH2CH2NH2CHS2CH2CH2SH4NHSC2H3C2HC2HC2HC2H6CHSFeC3HNHCHSCH2C2HCH4CHCHSFeS2FeS2FeSFeS3FeS2FeS2FeSFeS3FeHCH2CFeS2C6H4CNCH2C7HCHC6H4C3H2C6H5CN2CH3C3HC2HNC3HC2FeCHSC2HCHCH2C2H2C3HC2NC3HCH7C3HCH4CSH2FeC2H2CH7CHCNH4CSH6C3HS2CHFeCHSCH3CHN2CS2FeS2FeS2FeSFeS3FeS2FeS2FeSFeS3FeSCFeS2FeS2C6H4C4H3C2H2CH2C7H4C2H2C7H5CH2CH4CHCHNC6HFeH5CHCNH2C3HCH3C2NC7H4C2HC2H3CFeHCH3CH5CH5CHCH3CH2C2NCFeSNFeS2FeSFeS3CSHFeSNFeS2FeSFeS2HC6H4C6H4CHCNHC4HCHC2HSHSHCHN2CH4CH2CH2C2HCH2CH6CH2C2H2FeCH3CHSC2SC2NC3HCH2CNHC2HCH2C8HC2H2C3H2CH6CH2FeSCFeS2FeSFeS3HSHFeSHFeS2FeSFeS2HC6H4C6H4C3HFeC3H4C2HC2H3C2SCHNHSNSHCHCH2CHC2H2C3HC4H4SHCH2C2H5CHC2NH3CH2C2NC3NC5H3NH3CH2CHC3HCH2FeS2FeSHFeSFeS3FeS2HFeS2FeS2FeCFeS3C2H2CH4C3HC6H4C6H4SCHCH4NHC3H2CNC6H2CSH2CH4C3HNHSH3CH3CHCH5C3HNHC4HC2HC2FeSH4NC4HC2HCHCHCH2CFeS2FeS2FeSFeS3FeS2HFeS2FeS2FeHFeS3C3H2CHCHCH2C7H4C6H4CHC5H2C4H2CHC2SHCHC3H4C2HNC2HC2HSCH2SC2H2FeHNC6H8NHCNH2CH2C2HSCH3CH2C2HCFe2S2H2C2HFeS2FeS2FeSFeS3FeH4SFeS2FeS2FeS2FeSFeS3C3HC7H6C3HSCHC7H4NSH3C6H4CHCHC2SC3HCHCHC3HC3HFeCH2NH2C3H3CSC3HCHC2HCH2CHCNC2H3CNH3CNCHCH4CH3C3SCHSCHFeC2SCH3SHS3C2HFeCFeS2FeS2FeSFeS3FeH3C2FeS2FeS2FeS2FeSFeS3C3HC7H4CHC2FeH3C8H4CHCH2C6H4N3C3HCHCHCH5C3H6CHC2HCHCHCH2C2H2C2HCHC2H3NC3H3CHSCHCHNSCNCH2C2H3C2H2CHSHC2HNC3H7C2SCHC2H2SHFeSHFeS2FeSFeS3FeS2FeSCFeSFeS3FeCHCHC6H4C6H5C3HCHC3H3C3H5C2HCH2C3H2C2H3C2SHC2H3C2HC3H2C2H2C2HCNCH2C2H3C4HCHN2H2SHCSC2HCH3CSHN2HCH2CH2FeSCFeS2FeS2FeSFeS3FeS2FeSHFeSFeS3H2CH2C6H4C6H6CSCHCSC3HC3H9C2H4CHC2HC2H2C2HC3HCHCH2NC4H2CH3N2HCHCHSC7H4C4H2CHCHCSHC2HSHSHFeS2FeSFeSCS2HC2HCFeCFeH2SNC3H5C2HSH6C2HSH2C7HSH2C2H3C2SH3C3H2C2HCSCFeHCHNSHC3HC2HC2S2NCNHSH2CHC2HCFeSC2HC2H2CFe2CHSCHNH2C2HCFeSHFeS2FeSFeSHSCH2CHCFeSFeCS2FeHCH3SH2CSCH6CH3CHSHC6HCH2C4HCHCHNH2CSHC3SHCH3CNC2SCHCHCHSNHNC2HSH2FeHCHNH2C4H3C2SCFeH2CHFeC3HFeCH2C2HC2SCH3C3HNHC2H3NH2FeCFeSCHFeS2FeS2FeSFeS3FeS2FeS2FeSFeS3HNHCSC2HC2HC6H4C3H2CH2C2H5C6H4C3H2FeHCHCHC7FeH3NC6H11CNCH3C2H4SHC2HFeSC3H2SHCHCHC3SC2HNC3HCH2CHCHCHNHNHFeHC2H4C3H4CHC3HNC3HSH6CHFeHCFeSH2CFe2S2FeS2FeSFeS3FeS2FeS2FeSFeS3CH3CH3FeC8H4C3H2CH2CH3C2HC6H5C2SHC2SHCHNC6H4C4H2CSHCHNSC3NC6H7CHCH5CNH5C2HCHCSHCH3C2HSCH2C2HSH4FeS2FeS2FeHFeS3CH2FeSCFeCSFeSFeSH2C2HC3H5SC3H2CHC2SCSCHCHCHC2H2C6H4C3H3SHC2HNCH3C2HNCSCHCHCHC4HC2HSHNCHCHCHNC3HCHCHC2H4CH3C2HC4H6C2HCFeS2FeS2FeHFeS3HC2FeSCFeHSHNFeSHNHCNH2CHCH6CFeH3C2HCNCHFeCSHCHCHC6H4C2H2CH3CH2C2HSCH3C2H2SNC6H3CHCSHNC6H5NH4CHCFeC3SH3C3SCHS2HCSHC2H4NC5
_chemical_formula_sum              "Fe256 S512 H1536 C1536 N128"
_cell_length_a       74.3553
_cell_length_b       74.2497
_cell_length_c       46.4668
_cell_angle_alpha    90.0616
_cell_angle_beta     89.9163
_cell_angle_gamma    88.4357

_space_group_name_H-M_alt    "P 1"
_space_group_IT_number       1

loop_
  _space_group_symop_operation_xyz
  'x, y, z'

loop_
  _atom_site_type_symbol
  _atom_site_label
  _atom_site_symmetry_multiplicity
  _atom_site_fract_x
  _atom_site_fract_y
  _atom_site_fract_z
  _atom_site_occupancy
  Fe  Fe1       1.0  0.22405  0.15256  0.03582  1.0000
  S   S1        1.0  0.19977  0.17007  0.02505  1.0000
  S   S2        1.0  0.22756  0.14292  0.08253  1.0000
  Fe  Fe2       1.0  0.23133  0.15710  0.47571  1.0000
  S   S3        1.0  0.20626  0.16908  0.45619  1.0000
  H   H1        1.0  0.06582  0.09896  0.39652  1.0000
  H   H2        1.0  0.20641  0.13080  0.43872  1.0000
  H   H3        1.0  0.11380  0.03230  0.47714  1.0000
  Fe  Fe3       1.0  0.21102  0.19233  0.48628  1.0000
  H   H4        1.0  0.24746  0.33041  0.17430  1.0000
  C   C1        1.0  0.23799  0.20415  0.39327  1.0000
  H   H5        1.0  0.10945  0.12937  0.45894  1.0000
  H   H6        1.0  0.19905  0.09720  0.39918  1.0000
  C   C2        1.0  0.18246  0.08034  0.42495  1.0000
  H   H7        1.0  0.16655  0.06629  0.45605  1.0000
  C   C3        1.0  0.25321  0.15549  0.34977  1.0000
  H   H8        1.0  0.06486  0.02438  0.03741  1.0000
  Fe  Fe4       1.0  0.09389  0.04141  0.34932  1.0000
  S   S4        1.0  0.08764  0.06961  0.36522  1.0000
  S   S5        1.0  0.08850  0.03779  0.30111  1.0000
  Fe  Fe5       1.0  0.10235  0.02878  0.41067  1.0000
  S   S6        1.0  0.09689  0.05598  0.43058  1.0000
  C   C4        1.0  0.21404  0.11776  0.43931  1.0000
  Fe  Fe6       1.0  0.07273  0.05667  0.40135  1.0000
  S   S7        1.0  0.04616  0.06651  0.42057  1.0000
  Fe  Fe7       1.0  0.11238  0.06668  0.39300  1.0000
  S   S8        1.0  0.13246  0.08968  0.39254  1.0000
  H   H9        1.0  0.21478  0.28584  0.47036  1.0000
  S   S9        1.0  0.11969  0.03920  0.37468  1.0000
  C   C5        1.0  0.02578  0.05950  0.40480  1.0000
  H   H10       1.0  0.22771  0.31216  0.31068  1.0000
  C   C6        1.0  0.02575  0.05019  0.37863  1.0000
  S   S10       1.0  0.21588  0.21979  0.46618  1.0000
  H   H11       1.0  0.03833  0.04707  0.36775  1.0000
  H   H12       1.0  0.21144  0.30960  0.35739  1.0000
  S   S11       1.0  0.21999  0.33237  0.07782  1.0000
  C   C7        1.0  0.24399  0.14952  0.10815  1.0000
  H   H13       1.0  0.06262  0.09710  0.44917  1.0000
  C   C8        1.0  0.22027  0.25816  0.06533  1.0000
  S   S12       1.0  0.20209  0.33764  0.45546  1.0000
  C   C9        1.0  0.20362  0.28699  0.06759  1.0000
  N   N1        1.0  0.20424  0.26937  0.05891  1.0000
  S   S13       1.0  0.25332  0.14495  0.44724  1.0000
  H   H14       1.0  0.21961  0.24453  0.05536  1.0000
  C   C10       1.0  0.25476  0.14927  0.15820  1.0000
  C   C11       1.0  0.23745  0.15834  0.36596  1.0000
  C   C12       1.0  0.23732  0.15506  0.39574  1.0000
  H   H15       1.0  0.22532  0.16328  0.35545  1.0000
  H   H16       1.0  0.22507  0.15727  0.40772  1.0000
  C   C13       1.0  0.15782  0.12464  0.46326  1.0000
  C   C14       1.0  0.14541  0.11139  0.47066  1.0000
  C   C15       1.0  0.13771  0.10038  0.44944  1.0000
  C   C16       1.0  0.14204  0.10276  0.42041  1.0000
  C   C17       1.0  0.15424  0.11617  0.41297  1.0000
  C   C18       1.0  0.16220  0.12696  0.43424  1.0000
  C   C19       1.0  0.25293  0.14879  0.40965  1.0000
  H   H17       1.0  0.12835  0.09014  0.45553  1.0000
  H   H18       1.0  0.15763  0.11820  0.39057  1.0000
  H   H19       1.0  0.17152  0.13722  0.42814  1.0000
  Fe  Fe8       1.0  0.21497  0.33812  0.02974  1.0000
  C   C20       1.0  0.22584  0.30689  0.35628  1.0000
  C   C21       1.0  0.19498  0.09385  0.42091  1.0000
  N   N2        1.0  0.08915  0.11519  0.39815  1.0000
  C   C22       1.0  0.24888  0.33529  0.15252  1.0000
  H   H20       1.0  0.06277  0.05580  0.01869  1.0000
  H   H21       1.0  0.22766  0.25571  0.45716  1.0000
  C   C23       1.0  0.23716  0.33774  0.10311  1.0000
  H   H22       1.0  0.22978  0.13803  0.14390  1.0000
  C   C24       1.0  0.20804  0.27378  0.47688  1.0000
  H   H23       1.0  0.08441  0.03476  0.24001  1.0000
  C   C25       1.0  0.23548  0.30267  0.38123  1.0000
  C   C26       1.0  0.16588  0.08563  0.00424  1.0000
  H   H24       1.0  0.16302  0.29984  0.03977  1.0000
  H   H25       1.0  0.10820  0.02742  0.02662  1.0000
  N   N3        1.0  0.06731  0.01207  0.49317  1.0000
  H   H26       1.0  0.11258  0.13040  0.40601  1.0000
  H   H27       1.0  0.22174  0.25648  0.08895  1.0000
  C   C27       1.0  0.23572  0.33144  0.13161  1.0000
  H   H28       1.0  0.05510  0.03397  0.47031  1.0000
  C   C28       1.0  0.06121  0.02694  0.01511  1.0000
  Fe  Fe9       1.0  0.19201  0.15573  0.49278  1.0000
  C   C29       1.0  0.16736  0.12877  0.04614  1.0000
  H   H29       1.0  0.22464  0.21219  0.35390  1.0000
  C   C30       1.0  0.11281  0.01981  0.48886  1.0000
  H   H30       1.0  0.19769  0.08703  0.02997  1.0000
  C   C31       1.0  0.09175  0.02280  0.24714  1.0000
  H   H31       1.0  0.20017  0.10746  0.48932  1.0000
  N   N4        1.0  0.20159  0.10307  0.44395  1.0000
  C   C32       1.0  0.23702  0.20708  0.36356  1.0000
  H   H32       1.0  0.08446  0.11244  0.48090  1.0000
  C   C33       1.0  0.06014  0.04454  0.00458  1.0000
  H   H33       1.0  0.22427  0.32360  0.13765  1.0000
  C   C34       1.0  0.25952  0.15849  0.10008  1.0000
  S   S14       1.0  0.07714  0.02883  0.38393  1.0000
  H   H34       1.0  0.18824  0.31207  0.06825  1.0000
  C   C35       1.0  0.18861  0.29807  0.06145  1.0000
  H   H35       1.0  0.09330  0.13009  0.35976  1.0000
  C   C36       1.0  0.07346  0.10473  0.43993  1.0000
  C   C37       1.0  0.25294  0.34235  0.40620  1.0000
  Fe  Fe10      1.0  0.23034  0.33958  0.47173  1.0000
  C   C38       1.0  0.06868  0.02797  0.47467  1.0000
  C   C39       1.0  0.19178  0.27522  0.49199  1.0000
  C   C40       1.0  0.17502  0.27312  0.03733  1.0000
  H   H36       1.0  0.07958  0.11076  0.35523  1.0000
  H   H37       1.0  0.14819  0.11635  0.01860  1.0000
  H   H38       1.0  0.10346  0.10770  0.36035  1.0000
  H   H39       1.0  0.22629  0.20729  0.40662  1.0000
  H   H40       1.0  0.19055  0.24837  0.03724  1.0000
  H   H41       1.0  0.22869  0.30225  0.40192  1.0000
  S   S15       1.0  0.16728  0.13786  0.49110  1.0000
  S   S16       1.0  0.25298  0.16109  0.31282  1.0000
  C   C41       1.0  0.10129  0.12352  0.41541  1.0000
  C   C42       1.0  0.07537  0.10583  0.41004  1.0000
  C   C43       1.0  0.17437  0.29115  0.04580  1.0000
  C   C44       1.0  0.23492  0.30827  0.33009  1.0000
  C   C45       1.0  0.18327  0.08601  0.47605  1.0000
  H   H42       1.0  0.24144  0.18655  0.44290  1.0000
  H   H43       1.0  0.25124  0.20440  0.32317  1.0000
  H   H44       1.0  0.15901  0.14079  0.04956  1.0000
  C   C46       1.0  0.21533  0.25668  0.46950  1.0000
  H   H45       1.0  0.07510  0.02433  0.45376  1.0000
  C   C47       1.0  0.24173  0.14495  0.13735  1.0000
  C   C48       1.0  0.20672  0.24086  0.47778  1.0000
  S   S17       1.0  0.18632  0.33469  0.01479  1.0000
  H   H46       1.0  0.17678  0.07344  0.40660  1.0000
  S   S18       1.0  0.24275  0.16943  0.01035  1.0000
  H   H47       1.0  0.16315  0.07350  0.01732  1.0000
  C   C49       1.0  0.09630  0.02099  0.27643  1.0000
  C   C50       1.0  0.18902  0.09864  0.03465  1.0000
  C   C51       1.0  0.19005  0.26229  0.04440  1.0000
  S   S19       1.0  0.22659  0.31927  0.99617  1.0000
  Fe  Fe11      1.0  0.21835  0.18612  0.99739  1.0000
  H   H48       1.0  0.16424  0.26775  0.02445  1.0000
  H   H49       1.0  0.05110  0.01575  0.25779  1.0000
  S   S20       1.0  0.25462  0.33603  0.44264  1.0000
  H   H50       1.0  0.07720  0.03829  0.48474  1.0000
  H   H51       1.0  0.23243  0.26460  0.05654  1.0000
  C   C52       1.0  0.19570  0.09950  0.47121  1.0000
  C   C53       1.0  0.17665  0.07638  0.45274  1.0000
  C   C54       1.0  0.09142  0.11599  0.36683  1.0000
  H   H52       1.0  0.21485  0.29270  0.07902  1.0000
  C   C55       1.0  0.09966  0.12287  0.44538  1.0000
  N   N5        1.0  0.17223  0.10016  0.02273  1.0000
  C   C56       1.0  0.16134  0.11487  0.02854  1.0000
  H   H53       1.0  0.25280  0.14563  0.18050  1.0000
  C   C57       1.0  0.18448  0.12736  0.05829  1.0000
  C   C58       1.0  0.25413  0.29982  0.37958  1.0000
  H   H54       1.0  0.18943  0.13816  0.07166  1.0000
  H   H55       1.0  0.22169  0.11612  0.41886  1.0000
  H   H56       1.0  0.22418  0.11825  0.45686  1.0000
  C   C59       1.0  0.25355  0.30515  0.32919  1.0000
  S   S21       1.0  0.21940  0.13343  0.99878  1.0000
  H   H57       1.0  0.20881  0.11115  0.06175  1.0000
  C   C60       1.0  0.10448  0.01497  0.01639  1.0000
  C   C61       1.0  0.19537  0.11217  0.05268  1.0000
  C   C62       1.0  0.05812  0.01255  0.99645  1.0000
  N   N6        1.0  0.25334  0.19700  0.40537  1.0000
  H   H58       1.0  0.25415  0.20656  0.44841  1.0000
  H   H59       1.0  0.25569  0.22367  0.19818  1.0000
  C   C63       1.0  0.25197  0.20289  0.34637  1.0000
  C   C64       1.0  0.25374  0.19363  0.43640  1.0000
  C   C65       1.0  0.08569  0.11332  0.45768  1.0000
  H   H60       1.0  0.14191  0.10950  0.49305  1.0000
  H   H61       1.0  0.23718  0.25183  0.00142  1.0000
  S   S22       1.0  0.22544  0.21577  0.00102  1.0000
  C   C66       1.0  0.19076  0.24229  0.49369  1.0000
  Fe  Fe12      1.0  0.22008  0.16736  0.53771  1.0000
  S   S23       1.0  0.19416  0.18033  0.52144  1.0000
  S   S24       1.0  0.22401  0.16956  0.58657  1.0000
  Fe  Fe13      1.0  0.23623  0.15210  0.97236  1.0000
  S   S25       1.0  0.21310  0.16981  0.95749  1.0000
  H   H62       1.0  0.10692  0.02560  0.97344  1.0000
  H   H63       1.0  0.24979  0.19847  0.96236  1.0000
  C   C67       1.0  0.19729  0.23639  0.97746  1.0000
  H   H64       1.0  0.04990  0.03525  0.93521  1.0000
  H   H65       1.0  0.17610  0.08215  0.98751  1.0000
  H   H66       1.0  0.11764  0.11296  0.83234  1.0000
  H   H67       1.0  0.15765  0.04598  0.80755  1.0000
  S   S26       1.0  0.23688  0.18074  0.50424  1.0000
  S   S27       1.0  0.18627  0.29014  0.96839  1.0000
  C   C68       1.0  0.25868  0.15657  0.59914  1.0000
  C   C69       1.0  0.21530  0.26874  0.98583  1.0000
  H   H68       1.0  0.10017  0.03327  0.73620  1.0000
  Fe  Fe14      1.0  0.09712  0.03727  0.84720  1.0000
  S   S28       1.0  0.09381  0.06589  0.86358  1.0000
  S   S29       1.0  0.09894  0.03494  0.79788  1.0000
  C   C70       1.0  0.23599  0.20638  0.92367  1.0000
  S   S30       1.0  0.09310  0.04985  0.92918  1.0000
  S   S31       1.0  0.21704  0.14228  0.51092  1.0000
  Fe  Fe15      1.0  0.07294  0.05472  0.89356  1.0000
  S   S32       1.0  0.04590  0.06865  0.90335  1.0000
  Fe  Fe16      1.0  0.11426  0.05863  0.89782  1.0000
  S   S33       1.0  0.14077  0.07266  0.90836  1.0000
  S   S34       1.0  0.07507  0.02681  0.87533  1.0000
  S   S35       1.0  0.11894  0.03066  0.87939  1.0000
  C   C71       1.0  0.02482  0.05828  0.89857  1.0000
  H   H69       1.0  0.22539  0.21216  0.88142  1.0000
  H   H70       1.0  0.05818  0.01996  0.72815  1.0000
  C   C72       1.0  0.09939  0.01624  0.77374  1.0000
  Fe  Fe17      1.0  0.19783  0.32197  0.49631  1.0000
  H   H71       1.0  0.15333  0.08964  0.99261  1.0000
  H   H72       1.0  0.25024  0.29634  0.58385  1.0000
  C   C73       1.0  0.24217  0.16323  0.60968  1.0000
  H   H73       1.0  0.17062  0.26039  0.51210  1.0000
  H   H74       1.0  0.13883  0.04270  0.78407  1.0000
  C   C74       1.0  0.24012  0.16570  0.63959  1.0000
  H   H75       1.0  0.11627  0.03218  0.53050  1.0000
  C   C75       1.0  0.22204  0.30399  0.58308  1.0000
  H   H76       1.0  0.22739  0.17081  0.64798  1.0000
  H   H77       1.0  0.24476  0.21577  0.66115  1.0000
  C   C76       1.0  0.11425  0.01970  0.51906  1.0000
  C   C77       1.0  0.24468  0.15851  0.86393  1.0000
  C   C78       1.0  0.24413  0.15398  0.89328  1.0000
  H   H78       1.0  0.23263  0.16373  0.85347  1.0000
  H   H79       1.0  0.23170  0.15562  0.90518  1.0000
  C   C79       1.0  0.16070  0.12341  0.95564  1.0000
  C   C80       1.0  0.14214  0.12021  0.95367  1.0000
  C   C81       1.0  0.13573  0.10484  0.93935  1.0000
  C   C82       1.0  0.14785  0.09243  0.92667  1.0000
  C   C83       1.0  0.16640  0.09569  0.92850  1.0000
  C   C84       1.0  0.17280  0.11101  0.94293  1.0000
  H   H80       1.0  0.17833  0.08356  0.49763  1.0000
  H   H81       1.0  0.12143  0.10262  0.93809  1.0000
  H   H82       1.0  0.17593  0.08626  0.91872  1.0000
  H   H83       1.0  0.18710  0.11324  0.94414  1.0000
  H   H84       1.0  0.22231  0.28107  0.98935  1.0000
  C   C85       1.0  0.02372  0.04023  0.89026  1.0000
  H   H85       1.0  0.22418  0.21161  0.93504  1.0000
  H   H86       1.0  0.04921  0.01692  0.67671  1.0000
  C   C86       1.0  0.12297  0.09970  0.82651  1.0000
  C   C87       1.0  0.24595  0.30622  0.87012  1.0000
  H   H87       1.0  0.21460  0.25888  0.54417  1.0000
  Fe  Fe18      1.0  0.19839  0.31703  0.97998  1.0000
  C   C88       1.0  0.23672  0.20679  0.89367  1.0000
  H   H88       1.0  0.15351  0.06799  0.84880  1.0000
  C   C89       1.0  0.20238  0.28328  0.56156  1.0000
  H   H89       1.0  0.19429  0.32611  0.58192  1.0000
  H   H90       1.0  0.19019  0.22399  0.97454  1.0000
  C   C90       1.0  0.25442  0.16177  0.65874  1.0000
  H   H91       1.0  0.23494  0.30641  0.91325  1.0000
  H   H92       1.0  0.03585  0.03241  0.88569  1.0000
  H   H93       1.0  0.22414  0.31657  0.59420  1.0000
  H   H94       1.0  0.25872  0.19817  0.62106  1.0000
  C   C91       1.0  0.25724  0.33800  0.59666  1.0000
  N   N7        1.0  0.13621  0.06539  0.81250  1.0000
  C   C92       1.0  0.14318  0.07435  0.83548  1.0000
  C   C93       1.0  0.12265  0.07317  0.79649  1.0000
  C   C94       1.0  0.13680  0.09169  0.84265  1.0000
  C   C95       1.0  0.11581  0.09041  0.80326  1.0000
  H   H95       1.0  0.14224  0.09862  0.86117  1.0000
  C   C96       1.0  0.14275  0.04701  0.80607  1.0000
  S   S36       1.0  0.16796  0.14265  0.97514  1.0000
  H   H96       1.0  0.11680  0.06593  0.77867  1.0000
  H   H97       1.0  0.07038  0.02689  0.53217  1.0000
  H   H98       1.0  0.10483  0.09634  0.79086  1.0000
  H   H99       1.0  0.18027  0.31179  0.56137  1.0000
  H   H100      1.0  0.13679  0.03745  0.82154  1.0000
  Fe  Fe19      1.0  0.19639  0.15205  0.98605  1.0000
  C   C97       1.0  0.21466  0.23590  0.98902  1.0000
  C   C98       1.0  0.25965  0.14743  0.90708  1.0000
  C   C99       1.0  0.18892  0.25309  0.97039  1.0000
  C   C100      1.0  0.19779  0.26935  0.97493  1.0000
  H   H101      1.0  0.18393  0.23022  0.49999  1.0000
  C   C101      1.0  0.06786  0.01391  0.52247  1.0000
  H   H102      1.0  0.25266  0.16389  0.68162  1.0000
  H   H103      1.0  0.25265  0.19987  0.85611  1.0000
  S   S37       1.0  0.22659  0.32200  0.51075  1.0000
  C   C102      1.0  0.23422  0.27622  0.56316  1.0000
  H   H104      1.0  0.17536  0.25343  0.96190  1.0000
  H   H105      1.0  0.23280  0.30681  0.86008  1.0000
  H   H106      1.0  0.24558  0.26727  0.55817  1.0000
  S   S38       1.0  0.20001  0.33996  0.94823  1.0000
  H   H107      1.0  0.05492  0.06113  0.96711  1.0000
  C   C103      1.0  0.21686  0.27147  0.55537  1.0000
  H   H108      1.0  0.13261  0.12972  0.96329  1.0000
  H   H109      1.0  0.24659  0.31214  0.81486  1.0000
  N   N8        1.0  0.05444  0.01560  0.96799  1.0000
  Fe  Fe20      1.0  0.09659  0.02255  0.90895  1.0000
  C   C104      1.0  0.24707  0.30592  0.90018  1.0000
  H   H110      1.0  0.18892  0.27955  0.55534  1.0000
  C   C105      1.0  0.18986  0.31196  0.57975  1.0000
  C   C106      1.0  0.23685  0.29250  0.57742  1.0000
  N   N9        1.0  0.20517  0.29955  0.57438  1.0000
  C   C107      1.0  0.05582  0.04753  0.97573  1.0000
  C   C108      1.0  0.18322  0.25941  0.50045  1.0000
  H   H111      1.0  0.18278  0.30807  0.59973  1.0000
  C   C109      1.0  0.09994  0.01954  0.74389  1.0000
  H   H112      1.0  0.25864  0.33417  0.57428  1.0000
  C   C110      1.0  0.25204  0.20004  0.87949  1.0000
  S   S39       1.0  0.18194  0.29648  0.50105  1.0000
  C   C111      1.0  0.25051  0.19889  0.93906  1.0000
  C   C112      1.0  0.25891  0.21183  0.66205  1.0000
  C   C113      1.0  0.05299  0.03281  0.95767  1.0000
  C   C114      1.0  0.25998  0.30697  0.82226  1.0000
  C   C115      1.0  0.10368  0.01399  0.98623  1.0000
  S   S40       1.0  0.25984  0.14303  0.94444  1.0000
  Fe  Fe21      1.0  0.22740  0.34350  0.96723  1.0000
  C   C116      1.0  0.22369  0.25211  0.99270  1.0000
  Fe  Fe22      1.0  0.09531  0.54408  0.15436  1.0000
  S   S41       1.0  0.09476  0.57309  0.13989  1.0000
  S   S42       1.0  0.09220  0.54085  0.20323  1.0000
  Fe  Fe23      1.0  0.09429  0.53115  0.09146  1.0000
  S   S43       1.0  0.09294  0.55904  0.07281  1.0000
  S   S44       1.0  0.09217  0.50560  0.06539  1.0000
  Fe  Fe24      1.0  0.11460  0.56502  0.10516  1.0000
  S   S45       1.0  0.14204  0.57747  0.09600  1.0000
  Fe  Fe25      1.0  0.07327  0.56470  0.10895  1.0000
  S   S46       1.0  0.04700  0.58090  0.10722  1.0000
  S   S47       1.0  0.11691  0.53645  0.12219  1.0000
  S   S48       1.0  0.07290  0.53638  0.12493  1.0000
  Fe  Fe26      1.0  0.19809  0.65604  0.01847  1.0000
  H   H113      1.0  0.23146  0.64086  0.35757  1.0000
  S   S49       1.0  0.16949  0.64737  0.02962  1.0000
  Fe  Fe27      1.0  0.22102  0.65665  0.46442  1.0000
  S   S50       1.0  0.22557  0.64871  0.41733  1.0000
  Fe  Fe28      1.0  0.23816  0.65367  0.02966  1.0000
  H   H114      1.0  0.03304  0.43917  0.37541  1.0000
  H   H115      1.0  0.21509  0.41899  0.00424  1.0000
  C   C117      1.0  0.12259  0.45396  0.46178  1.0000
  C   C118      1.0  0.15695  0.54918  0.16024  1.0000
  H   H116      1.0  0.11221  0.57218  0.21988  1.0000
  C   C119      1.0  0.25983  0.64576  0.09401  1.0000
  C   C120      1.0  0.01878  0.46448  0.38170  1.0000
  S   S51       1.0  0.25568  0.64749  0.19240  1.0000
  C   C121      1.0  0.02669  0.55251  0.08852  1.0000
  S   S52       1.0  0.21613  0.67119  0.04854  1.0000
  Fe  Fe29      1.0  0.10006  0.47401  0.34112  1.0000
  S   S53       1.0  0.08300  0.45047  0.35331  1.0000
  S   S54       1.0  0.10735  0.47686  0.29331  1.0000
  Fe  Fe30      1.0  0.10226  0.48640  0.40421  1.0000
  S   S55       1.0  0.08523  0.46404  0.42015  1.0000
  S   S56       1.0  0.11389  0.50721  0.43435  1.0000
  Fe  Fe31      1.0  0.10219  0.44636  0.39074  1.0000
  S   S57       1.0  0.11138  0.41830  0.40653  1.0000
  Fe  Fe32      1.0  0.06779  0.47015  0.38172  1.0000
  S   S58       1.0  0.03797  0.47793  0.38438  1.0000
  S   S59       1.0  0.12026  0.46846  0.37667  1.0000
  S   S60       1.0  0.08387  0.49385  0.36750  1.0000
  H   H117      1.0  0.15975  0.57474  0.48174  1.0000
  C   C122      1.0  0.23246  0.39207  0.37426  1.0000
  C   C123      1.0  0.13320  0.56078  0.19275  1.0000
  C   C124      1.0  0.05156  0.44430  0.29120  1.0000
  H   H118      1.0  0.22409  0.34552  0.40581  1.0000
  C   C125      1.0  0.12277  0.57495  0.20447  1.0000
  H   H119      1.0  0.10709  0.43006  0.46631  1.0000
  C   C126      1.0  0.11234  0.44179  0.47711  1.0000
  H   H120      1.0  0.18211  0.39510  0.35422  1.0000
  C   C127      1.0  0.12569  0.59256  0.19552  1.0000
  C   C128      1.0  0.13921  0.59584  0.17550  1.0000
  H   H121      1.0  0.15994  0.58402  0.14880  1.0000
  H   H122      1.0  0.02620  0.49870  0.33094  1.0000
  C   C129      1.0  0.03481  0.55112  0.16846  1.0000
  C   C130      1.0  0.16441  0.39689  0.44797  1.0000
  C   C131      1.0  0.16334  0.41434  0.43612  1.0000
  C   C132      1.0  0.14741  0.42100  0.42296  1.0000
  C   C133      1.0  0.13215  0.41038  0.42186  1.0000
  C   C134      1.0  0.13328  0.39286  0.43345  1.0000
  C   C135      1.0  0.14931  0.38611  0.44632  1.0000
  H   H123      1.0  0.15809  0.55090  0.13650  1.0000
  H   H124      1.0  0.14701  0.43430  0.41351  1.0000
  H   H125      1.0  0.12164  0.38445  0.43257  1.0000
  H   H126      1.0  0.14989  0.37264  0.45521  1.0000
  Fe  Fe33      1.0  0.19633  0.36256  0.48212  1.0000
  H   H127      1.0  0.01781  0.46911  0.32213  1.0000
  S   S61       1.0  0.19190  0.66094  0.47655  1.0000
  H   H128      1.0  0.19151  0.38987  0.40451  1.0000
  H   H129      1.0  0.20540  0.39769  0.31585  1.0000
  H   H130      1.0  0.25838  0.66945  0.42453  1.0000
  C   C136      1.0  0.22754  0.39479  0.34549  1.0000
  H   H131      1.0  0.22243  0.35324  0.35397  1.0000
  H   H132      1.0  0.02530  0.43785  0.30752  1.0000
  C   C137      1.0  0.24201  0.64514  0.13783  1.0000
  C   C138      1.0  0.24312  0.64462  0.10762  1.0000
  C   C139      1.0  0.02672  0.57029  0.09847  1.0000
  H   H133      1.0  0.22908  0.64389  0.14827  1.0000
  H   H134      1.0  0.23111  0.64286  0.09491  1.0000
  C   C140      1.0  0.09780  0.50535  0.02846  1.0000
  C   C141      1.0  0.09568  0.48942  0.01272  1.0000
  N   N10       1.0  0.14618  0.56409  0.17269  1.0000
  C   C142      1.0  0.10591  0.50859  0.47015  1.0000
  C   C143      1.0  0.23537  0.35047  0.36389  1.0000
  C   C144      1.0  0.10345  0.52081  0.01423  1.0000
  H   H135      1.0  0.09155  0.47735  0.02365  1.0000
  H   H136      1.0  0.08479  0.48970  0.46451  1.0000
  H   H137      1.0  0.06904  0.48595  0.29341  1.0000
  H   H138      1.0  0.10532  0.53310  0.02618  1.0000
  C   C145      1.0  0.09643  0.52273  0.22768  1.0000
  C   C146      1.0  0.10388  0.50610  0.21891  1.0000
  C   C147      1.0  0.10719  0.49230  0.23930  1.0000
  C   C148      1.0  0.10307  0.49487  0.26865  1.0000
  C   C149      1.0  0.09555  0.51148  0.27738  1.0000
  C   C150      1.0  0.09229  0.52530  0.25702  1.0000
  H   H139      1.0  0.10714  0.50386  0.19647  1.0000
  H   H140      1.0  0.11300  0.47952  0.23226  1.0000
  H   H141      1.0  0.09244  0.51376  0.29986  1.0000
  H   H142      1.0  0.08660  0.53811  0.26412  1.0000
  C   C151      1.0  0.14923  0.59697  0.07718  1.0000
  C   C152      1.0  0.16782  0.59962  0.07386  1.0000
  C   C153      1.0  0.17428  0.61495  0.05957  1.0000
  C   C154      1.0  0.16220  0.62798  0.04860  1.0000
  C   C155      1.0  0.14361  0.62530  0.05181  1.0000
  C   C156      1.0  0.13715  0.60991  0.06594  1.0000
  H   H143      1.0  0.17733  0.58972  0.08240  1.0000
  H   H144      1.0  0.18860  0.61672  0.05719  1.0000
  H   H145      1.0  0.13411  0.63524  0.04337  1.0000
  H   H146      1.0  0.12283  0.60814  0.06832  1.0000
  C   C157      1.0  0.14956  0.58138  0.16458  1.0000
  C   C158      1.0  0.02169  0.56488  0.16975  1.0000
  C   C159      1.0  0.20172  0.39133  0.38806  1.0000
  H   H147      1.0  0.03927  0.54505  0.08591  1.0000
  H   H148      1.0  0.03770  0.50693  0.29938  1.0000
  S   S62       1.0  0.21809  0.36274  0.00203  1.0000
  H   H149      1.0  0.15697  0.60817  0.48094  1.0000
  N   N11       1.0  0.21958  0.39008  0.39502  1.0000
  C   C160      1.0  0.23629  0.34618  0.39331  1.0000
  N   N12       1.0  0.04304  0.47933  0.30872  1.0000
  C   C161      1.0  0.05931  0.47549  0.29609  1.0000
  C   C162      1.0  0.03075  0.46611  0.31219  1.0000
  H   H150      1.0  0.07692  0.45499  0.27755  1.0000
  C   C163      1.0  0.25754  0.66513  0.40234  1.0000
  C   C164      1.0  0.24326  0.65456  0.39357  1.0000
  C   C165      1.0  0.03888  0.49781  0.31822  1.0000
  S   S63       1.0  0.18504  0.38940  0.46415  1.0000
  H   H151      1.0  0.24639  0.40646  0.99939  1.0000
  H   H152      1.0  0.21718  0.37518  0.43367  1.0000
  C   C166      1.0  0.02981  0.53360  0.16200  1.0000
  C   C167      1.0  0.03489  0.44837  0.30380  1.0000
  C   C168      1.0  0.24242  0.64908  0.36459  1.0000
  H   H153      1.0  0.04971  0.50251  0.33268  1.0000
  H   H154      1.0  0.12507  0.45188  0.43902  1.0000
  C   C169      1.0  0.25555  0.65426  0.34448  1.0000
  H   H155      1.0  0.25462  0.65008  0.32224  1.0000
  S   S64       1.0  0.21996  0.63721  0.00190  1.0000
  S   S65       1.0  0.24955  0.35717  0.31067  1.0000
  C   C170      1.0  0.05377  0.51931  0.02867  1.0000
  H   H156      1.0  0.13057  0.54710  0.19948  1.0000
  H   H157      1.0  0.17061  0.54878  0.16982  1.0000
  H   H158      1.0  0.15061  0.53597  0.16388  1.0000
  H   H159      1.0  0.05509  0.43057  0.28496  1.0000
  C   C171      1.0  0.22477  0.38666  0.42497  1.0000
  C   C172      1.0  0.19632  0.39425  0.35958  1.0000
  H   H160      1.0  0.22155  0.39870  0.43845  1.0000
  C   C173      1.0  0.01998  0.44591  0.37664  1.0000
  H   H161      1.0  0.14150  0.60944  0.16804  1.0000
  H   H162      1.0  0.17496  0.42279  0.43707  1.0000
  H   H163      1.0  0.11737  0.60361  0.20390  1.0000
  H   H164      1.0  0.23930  0.38299  0.42717  1.0000
  C   C174      1.0  0.06380  0.45797  0.28702  1.0000
  H   H165      1.0  0.04886  0.55410  0.17204  1.0000
  C   C175      1.0  0.14624  0.60027  0.48993  1.0000
  H   H166      1.0  0.05100  0.51625  0.05105  1.0000
  C   C176      1.0  0.09180  0.49802  0.47958  1.0000
  C   C177      1.0  0.11460  0.51966  0.49003  1.0000
  C   C178      1.0  0.20936  0.39583  0.33815  1.0000
  H   H167      1.0  0.23780  0.39550  0.32889  1.0000
  H   H168      1.0  0.03998  0.52285  0.16080  1.0000
  H   H169      1.0  0.17972  0.59003  0.99641  1.0000
  C   C179      1.0  0.05317  0.50578  0.00772  1.0000
  H   H170      1.0  0.24663  0.39080  0.37962  1.0000
  C   C180      1.0  0.25752  0.64722  0.15453  1.0000
  H   H171      1.0  0.12562  0.52773  0.48285  1.0000
  H   H172      1.0  0.19367  0.67303  0.41351  1.0000
  C   C181      1.0  0.25205  0.34794  0.09578  1.0000
  C   C182      1.0  0.25109  0.35115  0.34726  1.0000
  C   C183      1.0  0.14787  0.58151  0.49063  1.0000
  H   H173      1.0  0.04964  0.49229  0.01414  1.0000
  H   H174      1.0  0.02557  0.57863  0.17383  1.0000
  C   C184      1.0  0.01170  0.53013  0.15661  1.0000
  C   C185      1.0  0.12920  0.46905  0.47563  1.0000
  H   H175      1.0  0.25341  0.35289  0.07402  1.0000
  H   H176      1.0  0.05966  0.54708  0.03699  1.0000
  H   H177      1.0  0.13677  0.47883  0.46358  1.0000
  C   C186      1.0  0.05881  0.53657  0.02081  1.0000
  C   C187      1.0  0.01026  0.57984  0.10180  1.0000
  H   H178      1.0  0.01021  0.59363  0.10934  1.0000
  H   H179      1.0  0.01048  0.53089  0.07307  1.0000
  C   C188      1.0  0.01036  0.54451  0.08138  1.0000
  Fe  Fe34      1.0  0.10094  0.53908  0.65894  1.0000
  S   S66       1.0  0.08814  0.56665  0.65333  1.0000
  S   S67       1.0  0.11242  0.53271  0.70366  1.0000
  Fe  Fe35      1.0  0.09187  0.52907  0.59703  1.0000
  S   S68       1.0  0.07785  0.55560  0.58757  1.0000
  S   S69       1.0  0.09126  0.50577  0.56567  1.0000
  Fe  Fe36      1.0  0.10177  0.56752  0.61001  1.0000
  S   S70       1.0  0.11234  0.59450  0.59378  1.0000
  Fe  Fe37      1.0  0.06555  0.55254  0.63141  1.0000
  S   S71       1.0  0.03727  0.55839  0.64833  1.0000
  S   S72       1.0  0.11651  0.54094  0.61705  1.0000
  S   S73       1.0  0.07769  0.52504  0.63936  1.0000
  Fe  Fe38      1.0  0.19767  0.64531  0.51715  1.0000
  S   S74       1.0  0.25769  0.66583  0.55404  1.0000
  S   S75       1.0  0.18485  0.61927  0.53312  1.0000
  Fe  Fe39      1.0  0.22464  0.65812  0.96746  1.0000
  S   S76       1.0  0.22609  0.65101  0.91938  1.0000
  Fe  Fe40      1.0  0.23273  0.66485  0.52638  1.0000
  C   C189      1.0  0.06705  0.53262  0.75928  1.0000
  H   H180      1.0  0.07486  0.57102  0.75178  1.0000
  H   H181      1.0  0.10652  0.60536  0.52535  1.0000
  H   H182      1.0  0.09732  0.41544  0.83172  1.0000
  C   C190      1.0  0.16933  0.61507  0.97871  1.0000
  H   H183      1.0  0.11055  0.53248  0.97335  1.0000
  N   N13       1.0  0.17228  0.62909  0.96034  1.0000
  C   C191      1.0  0.22830  0.39075  0.93744  1.0000
  C   C192      1.0  0.19754  0.39313  0.91887  1.0000
  H   H184      1.0  0.11780  0.47486  0.55896  1.0000
  Fe  Fe41      1.0  0.08713  0.47031  0.84204  1.0000
  S   S77       1.0  0.07403  0.44515  0.85806  1.0000
  S   S78       1.0  0.08458  0.47418  0.79315  1.0000
  Fe  Fe42      1.0  0.09557  0.48173  0.90423  1.0000
  S   S79       1.0  0.08304  0.45751  0.92395  1.0000
  S   S80       1.0  0.10579  0.50508  0.93050  1.0000
  Fe  Fe43      1.0  0.09768  0.44216  0.88870  1.0000
  S   S81       1.0  0.11283  0.41476  0.89156  1.0000
  Fe  Fe44      1.0  0.06070  0.46264  0.89190  1.0000
  S   S82       1.0  0.03169  0.46914  0.90533  1.0000
  S   S83       1.0  0.11153  0.46628  0.87042  1.0000
  S   S84       1.0  0.07259  0.48783  0.87424  1.0000
  H   H185      1.0  0.15172  0.41680  0.97814  1.0000
  C   C193      1.0  0.18192  0.60081  0.98114  1.0000
  H   H186      1.0  0.16619  0.65701  0.96421  1.0000
  H   H187      1.0  0.02471  0.43219  0.88660  1.0000
  C   C194      1.0  0.19553  0.62578  0.60755  1.0000
  H   H188      1.0  0.18984  0.64032  0.92919  1.0000
  S   S85       1.0  0.25333  0.66043  0.69001  1.0000
  C   C195      1.0  0.08188  0.55944  0.74112  1.0000
  C   C196      1.0  0.23517  0.35144  0.85769  1.0000
  H   H189      1.0  0.06156  0.55288  0.69519  1.0000
  C   C197      1.0  0.11783  0.59853  0.51485  1.0000
  C   C198      1.0  0.10940  0.41142  0.81888  1.0000
  H   H190      1.0  0.18625  0.40327  0.91859  1.0000
  C   C199      1.0  0.14276  0.45675  0.81184  1.0000
  C   C200      1.0  0.15545  0.39161  0.95545  1.0000
  C   C201      1.0  0.14781  0.40900  0.95960  1.0000
  C   C202      1.0  0.13491  0.41636  0.94027  1.0000
  C   C203      1.0  0.12936  0.40637  0.91648  1.0000
  C   C204      1.0  0.13718  0.38907  0.91210  1.0000
  C   C205      1.0  0.15016  0.38174  0.93136  1.0000
  S   S86       1.0  0.20457  0.67024  0.54243  1.0000
  H   H191      1.0  0.12905  0.42965  0.94408  1.0000
  H   H192      1.0  0.13298  0.38113  0.89390  1.0000
  H   H193      1.0  0.15579  0.36833  0.92783  1.0000
  C   C206      1.0  0.24381  0.65454  0.89415  1.0000
  H   H194      1.0  0.09379  0.55503  0.75401  1.0000
  N   N14       1.0  0.11514  0.45992  0.51966  1.0000
  H   H195      1.0  0.21232  0.61529  0.93214  1.0000
  H   H196      1.0  0.22607  0.66610  0.64721  1.0000
  S   S87       1.0  0.17174  0.38318  0.98073  1.0000
  C   C207      1.0  0.22392  0.62219  0.63428  1.0000
  H   H197      1.0  0.18965  0.61263  0.60192  1.0000
  C   C208      1.0  0.22470  0.62330  0.58321  1.0000
  H   H198      1.0  0.12368  0.46624  0.78000  1.0000
  H   H199      1.0  0.13955  0.41749  0.84848  1.0000
  H   H200      1.0  0.23196  0.38236  0.91915  1.0000
  H   H201      1.0  0.15879  0.44400  0.84510  1.0000
  H   H202      1.0  0.10450  0.43976  0.78457  1.0000
  C   C209      1.0  0.09586  0.50861  0.52876  1.0000
  C   C210      1.0  0.01176  0.45753  0.89769  1.0000
  H   H203      1.0  0.19124  0.63581  0.59099  1.0000
  C   C211      1.0  0.10374  0.50462  0.96842  1.0000
  H   H204      1.0  0.06757  0.55338  0.98601  1.0000
  C   C212      1.0  0.10955  0.51974  0.51927  1.0000
  C   C213      1.0  0.12532  0.47186  0.50478  1.0000
  H   H205      1.0  0.09704  0.47667  0.97111  1.0000
  H   H206      1.0  0.11397  0.45122  0.56322  1.0000
  H   H207      1.0  0.11677  0.52771  0.53469  1.0000
  C   C214      1.0  0.10494  0.51602  0.72805  1.0000
  C   C215      1.0  0.09327  0.50254  0.71959  1.0000
  C   C216      1.0  0.08745  0.48974  0.73975  1.0000
  C   C217      1.0  0.09286  0.49046  0.76874  1.0000
  C   C218      1.0  0.10455  0.50391  0.77724  1.0000
  C   C219      1.0  0.11068  0.51650  0.75693  1.0000
  H   H208      1.0  0.08880  0.50192  0.69747  1.0000
  H   H209      1.0  0.07850  0.47933  0.73285  1.0000
  H   H210      1.0  0.10893  0.50459  0.79941  1.0000
  H   H211      1.0  0.11980  0.52680  0.76367  1.0000
  C   C220      1.0  0.13340  0.60125  0.57969  1.0000
  C   C221      1.0  0.13582  0.61962  0.57360  1.0000
  C   C222      1.0  0.15162  0.62550  0.56003  1.0000
  C   C223      1.0  0.16517  0.61302  0.55215  1.0000
  C   C224      1.0  0.16294  0.59471  0.55883  1.0000
  C   C225      1.0  0.14718  0.58884  0.57253  1.0000
  H   H212      1.0  0.12525  0.62935  0.57903  1.0000
  H   H213      1.0  0.15311  0.63963  0.55513  1.0000
  H   H214      1.0  0.17335  0.58492  0.55293  1.0000
  H   H215      1.0  0.14555  0.57469  0.57703  1.0000
  C   C226      1.0  0.01747  0.55471  0.62829  1.0000
  C   C227      1.0  0.24347  0.62146  0.58340  1.0000
  H   H216      1.0  0.11618  0.39995  0.83025  1.0000
  H   H217      1.0  0.03076  0.55069  0.58754  1.0000
  H   H218      1.0  0.12996  0.62345  0.50229  1.0000
  H   H219      1.0  0.10510  0.40658  0.79741  1.0000
  C   C228      1.0  0.12747  0.45544  0.79471  1.0000
  H   H220      1.0  0.15096  0.46859  0.81048  1.0000
  C   C229      1.0  0.05994  0.54318  0.71235  1.0000
  C   C230      1.0  0.19743  0.60079  0.96420  1.0000
  H   H221      1.0  0.13005  0.48393  0.51513  1.0000
  H   H222      1.0  0.25257  0.35173  0.67727  1.0000
  H   H223      1.0  0.24961  0.61960  0.65584  1.0000
  C   C231      1.0  0.25156  0.35018  0.90294  1.0000
  C   C232      1.0  0.05647  0.49515  0.95792  1.0000
  C   C233      1.0  0.09868  0.48904  0.98286  1.0000
  H   H224      1.0  0.18983  0.63046  0.62845  1.0000
  C   C234      1.0  0.24109  0.65035  0.86491  1.0000
  C   C235      1.0  0.24198  0.34793  0.60566  1.0000
  H   H225      1.0  0.09590  0.46652  0.55195  1.0000
  H   H226      1.0  0.07635  0.48923  0.51597  1.0000
  N   N15       1.0  0.11960  0.58014  0.51558  1.0000
  C   C236      1.0  0.15938  0.64434  0.95857  1.0000
  Fe  Fe45      1.0  0.21892  0.34759  0.53415  1.0000
  N   N16       1.0  0.21520  0.62390  0.60845  1.0000
  S   S88       1.0  0.20153  0.67615  0.98226  1.0000
  H   H227      1.0  0.20744  0.58996  0.96610  1.0000
  H   H228      1.0  0.22870  0.36046  0.64210  1.0000
  Fe  Fe46      1.0  0.19026  0.35792  0.98439  1.0000
  C   C237      1.0  0.10644  0.52042  0.98430  1.0000
  N   N17       1.0  0.12122  0.42681  0.81607  1.0000
  C   C238      1.0  0.13620  0.42799  0.83301  1.0000
  C   C239      1.0  0.11669  0.44037  0.79731  1.0000
  C   C240      1.0  0.14717  0.44296  0.83117  1.0000
  H   H229      1.0  0.22827  0.64524  0.85817  1.0000
  C   C241      1.0  0.10608  0.56939  0.53012  1.0000
  C   C242      1.0  0.23955  0.66583  0.60602  1.0000
  H   H230      1.0  0.14810  0.64301  0.97411  1.0000
  S   S89       1.0  0.18959  0.34671  0.52189  1.0000
  C   C243      1.0  0.06322  0.54011  0.99220  1.0000
  H   H231      1.0  0.07467  0.53368  0.77907  1.0000
  C   C244      1.0  0.13107  0.60885  0.50192  1.0000
  H   H232      1.0  0.03696  0.50538  0.72726  1.0000
  H   H233      1.0  0.04286  0.49540  0.94809  1.0000
  C   C245      1.0  0.06251  0.52626  0.97181  1.0000
  H   H234      1.0  0.15376  0.64543  0.93650  1.0000
  C   C246      1.0  0.20016  0.61496  0.94513  1.0000
  H   H235      1.0  0.22731  0.66797  0.59389  1.0000
  H   H236      1.0  0.21779  0.62448  0.56275  1.0000
  H   H237      1.0  0.08730  0.56390  0.72004  1.0000
  H   H238      1.0  0.21647  0.62271  0.65436  1.0000
  C   C247      1.0  0.04809  0.52910  0.70836  1.0000
  C   C248      1.0  0.24269  0.62022  0.63527  1.0000
  H   H239      1.0  0.10068  0.55914  0.51522  1.0000
  C   C249      1.0  0.04586  0.51656  0.73032  1.0000
  H   H240      1.0  0.04080  0.52794  0.68822  1.0000
  C   C250      1.0  0.01199  0.43946  0.88912  1.0000
  N   N18       1.0  0.06949  0.54460  0.73734  1.0000
  C   C251      1.0  0.18741  0.62913  0.94357  1.0000
  C   C252      1.0  0.21907  0.41135  0.98526  1.0000
  C   C253      1.0  0.05528  0.51837  0.75607  1.0000
  H   H241      1.0  0.05397  0.50848  0.77310  1.0000
  C   C254      1.0  0.24128  0.39397  0.95844  1.0000
  H   H242      1.0  0.09458  0.57787  0.53820  1.0000
  N   N19       1.0  0.21117  0.39772  0.94022  1.0000
  C   C255      1.0  0.01797  0.55137  0.59867  1.0000
  C   C256      1.0  0.11053  0.46324  0.54993  1.0000
  H   H243      1.0  0.11220  0.56253  0.54913  1.0000
  S   S90       1.0  0.22416  0.35407  0.58168  1.0000
  C   C257      1.0  0.23888  0.66480  0.63622  1.0000
  H   H244      1.0  0.25097  0.62175  0.56334  1.0000
  C   C258      1.0  0.24048  0.35285  0.63486  1.0000
  H   H245      1.0  0.19276  0.41307  0.96640  1.0000
  S   S91       1.0  0.25077  0.35402  0.80434  1.0000
  H   H246      1.0  0.10042  0.43567  0.51788  1.0000
  C   C259      1.0  0.08695  0.49787  0.50879  1.0000
  C   C260      1.0  0.25249  0.61995  0.60963  1.0000
  H   H247      1.0  0.19186  0.37987  0.92437  1.0000
  H   H248      1.0  0.22253  0.35143  0.84617  1.0000
  H   H249      1.0  0.05923  0.48159  0.96731  1.0000
  H   H250      1.0  0.20340  0.39239  0.89688  1.0000
  C   C261      1.0  0.20647  0.40793  0.96374  1.0000
  N   N20       1.0  0.05764  0.50933  0.97976  1.0000
  H   H251      1.0  0.06661  0.49693  0.94063  1.0000
  C   C262      1.0  0.25398  0.34789  0.65490  1.0000
  H   H252      1.0  0.06641  0.52895  0.94973  1.0000
  C   C263      1.0  0.23659  0.40430  0.98254  1.0000
  S   S92       1.0  0.22520  0.36524  0.49630  1.0000
  C   C264      1.0  0.25135  0.35264  0.84228  1.0000
  C   C265      1.0  0.25469  0.66195  0.65223  1.0000
  C   C266      1.0  0.25609  0.66426  0.59174  1.0000
  C   C267      1.0  0.25483  0.65261  0.84424  1.0000
  H   H253      1.0  0.25251  0.64922  0.82193  1.0000
  H   H254      1.0  0.22274  0.34900  0.89944  1.0000
  C   C268      1.0  0.23527  0.35007  0.88790  1.0000
  S   S93       1.0  0.22631  0.63928  0.50326  1.0000
  S   S94       1.0  0.25239  0.34861  0.94086  1.0000
  C   C269      1.0  0.10865  0.44504  0.50621  1.0000
  H   H255      1.0  0.15741  0.61507  0.99220  1.0000
  C   C270      1.0  0.13433  0.57159  0.50360  1.0000
  H   H256      1.0  0.25470  0.38795  0.95638  1.0000
  H   H257      1.0  0.13580  0.55703  0.50454  1.0000
  S   S95       1.0  0.24467  0.67270  0.99394  1.0000
  Fe  Fe47      1.0  0.06949  0.95590  0.13283  1.0000
  S   S96       1.0  0.07907  0.98381  0.14177  1.0000
  S   S97       1.0  0.04150  0.95018  0.15016  1.0000
  Fe  Fe48      1.0  0.10814  0.94149  0.11786  1.0000
  S   S98       1.0  0.11989  0.96849  0.12691  1.0000
  S   S99       1.0  0.12764  0.91722  0.11272  1.0000
  Fe  Fe49      1.0  0.10187  0.97050  0.16584  1.0000
  S   S100      1.0  0.11099  0.97547  0.21214  1.0000
  Fe  Fe50      1.0  0.09603  0.97933  0.10197  1.0000
  C   C271      1.0  0.19103  0.80548  0.09904  1.0000
  S   S101      1.0  0.09174  0.94269  0.15856  1.0000
  S   S102      1.0  0.08488  0.95223  0.09094  1.0000
  H   H258      1.0  0.21819  0.89939  0.43603  1.0000
  C   C272      1.0  0.18632  0.86388  0.40591  1.0000
  H   H259      1.0  0.24258  0.72234  0.42755  1.0000
  H   H260      1.0  0.13643  0.97646  0.06772  1.0000
  C   C273      1.0  0.24106  0.80325  0.09067  1.0000
  C   C274      1.0  0.21879  0.70678  0.42137  1.0000
  S   S103      1.0  0.19309  0.83042  0.48482  1.0000
  H   H261      1.0  0.22736  0.78393  0.01960  1.0000
  C   C275      1.0  0.20235  0.86728  0.39135  1.0000
  Fe  Fe51      1.0  0.23343  0.84496  0.02834  1.0000
  H   H262      1.0  0.07578  0.96427  0.27643  1.0000
  Fe  Fe52      1.0  0.22056  0.83647  0.46679  1.0000
  S   S104      1.0  0.22440  0.83166  0.41841  1.0000
  S   S105      1.0  0.20548  0.84258  0.04623  1.0000
  H   H263      1.0  0.19202  0.92025  0.05001  1.0000
  C   C276      1.0  0.24026  0.84048  0.39389  1.0000
  H   H264      1.0  0.23860  0.68749  0.15878  1.0000
  C   C277      1.0  0.19287  0.88611  0.44085  1.0000
  H   H265      1.0  0.05379  0.97430  0.19331  1.0000
  C   C278      1.0  0.16480  0.86967  0.44509  1.0000
  H   H266      1.0  0.25257  0.68372  0.06076  1.0000
  N   N21       1.0  0.21023  0.80558  0.10618  1.0000
  C   C279      1.0  0.23883  0.85124  0.13734  1.0000
  C   C280      1.0  0.24007  0.85098  0.10717  1.0000
  H   H267      1.0  0.22624  0.85521  0.14754  1.0000
  H   H268      1.0  0.22852  0.85486  0.09429  1.0000
  C   C281      1.0  0.05106  0.99618  0.22336  1.0000
  C   C282      1.0  0.19130  0.75689  0.02444  1.0000
  C   C283      1.0  0.20099  0.77288  0.02333  1.0000
  S   S106      1.0  0.17612  0.88420  0.01089  1.0000
  C   C284      1.0  0.21971  0.77180  0.02062  1.0000
  C   C285      1.0  0.24291  0.70844  0.38672  1.0000
  C   C286      1.0  0.20917  0.88961  0.42711  1.0000
  S   S107      1.0  0.10040  0.00244  0.07113  1.0000
  H   H269      1.0  0.10764  0.97498  0.47797  1.0000
  S   S108      1.0  0.25158  0.84719  0.19210  1.0000
  C   C287      1.0  0.22864  0.75490  0.01908  1.0000
  C   C288      1.0  0.09558  0.98396  0.01998  1.0000
  H   H270      1.0  0.16731  0.85900  0.46144  1.0000
  H   H271      1.0  0.09225  0.97240  0.03287  1.0000
  H   H272      1.0  0.08486  0.94830  0.22197  1.0000
  C   C289      1.0  0.10564  0.99354  0.23606  1.0000
  C   C290      1.0  0.23545  0.71348  0.41321  1.0000
  H   H273      1.0  0.13290  0.97248  0.03026  1.0000
  C   C291      1.0  0.11060  0.99193  0.26520  1.0000
  H   H274      1.0  0.25086  0.80241  0.07334  1.0000
  H   H275      1.0  0.11797  0.97999  0.27232  1.0000
  C   C292      1.0  0.13968  0.90688  0.08365  1.0000
  C   C293      1.0  0.15365  0.89431  0.08992  1.0000
  C   C294      1.0  0.16447  0.88664  0.06786  1.0000
  C   C295      1.0  0.16137  0.89140  0.03914  1.0000
  C   C296      1.0  0.14700  0.90349  0.03277  1.0000
  C   C297      1.0  0.13623  0.91123  0.05485  1.0000
  H   H276      1.0  0.15637  0.89076  0.11210  1.0000
  H   H277      1.0  0.17547  0.87741  0.07315  1.0000
  N   N22       1.0  0.20994  0.69519  0.40376  1.0000
  H   H278      1.0  0.12539  0.92066  0.04962  1.0000
  C   C298      1.0  0.02068  0.95145  0.13160  1.0000
  C   C299      1.0  0.01968  0.95171  0.10154  1.0000
  H   H279      1.0  0.17784  0.85331  0.39802  1.0000
  H   H280      1.0  0.03193  0.95151  0.08892  1.0000
  H   H281      1.0  0.18939  0.89339  0.46042  1.0000
  H   H282      1.0  0.21312  0.71074  0.44203  1.0000
  C   C300      1.0  0.20023  0.73994  0.02228  1.0000
  H   H283      1.0  0.19265  0.72771  0.02286  1.0000
  H   H284      1.0  0.25602  0.71314  0.38032  1.0000
  H   H285      1.0  0.23835  0.80803  0.16331  1.0000
  H   H286      1.0  0.20620  0.85941  0.37251  1.0000
  C   C301      1.0  0.24673  0.80439  0.11921  1.0000
  C   C302      1.0  0.25379  0.84650  0.15437  1.0000
  H   H287      1.0  0.22660  0.88248  0.39145  1.0000
  N   N23       1.0  0.18159  0.87353  0.42999  1.0000
  C   C303      1.0  0.15831  0.94750  0.07623  1.0000
  H   H288      1.0  0.22931  0.82600  0.35798  1.0000
  C   C304      1.0  0.21387  0.88016  0.40212  1.0000
  S   S109      1.0  0.18930  0.79392  0.02482  1.0000
  S   S110      1.0  0.10759  0.00323  0.43622  1.0000
  H   H289      1.0  0.25145  0.83697  0.32244  1.0000
  H   H290      1.0  0.15312  0.95316  0.00495  1.0000
  H   H291      1.0  0.17937  0.93190  0.00418  1.0000
  H   H292      1.0  0.18739  0.79190  0.09117  1.0000
  C   C305      1.0  0.15894  0.94862  0.02515  1.0000
  C   C306      1.0  0.23400  0.80641  0.14115  1.0000
  S   S111      1.0  0.23007  0.68174  0.48630  1.0000
  S   S112      1.0  0.22265  0.86227  0.49172  1.0000
  Fe  Fe53      1.0  0.22148  0.68956  0.01116  1.0000
  C   C307      1.0  0.21896  0.73892  0.01958  1.0000
  C   C308      1.0  0.23952  0.83518  0.36484  1.0000
  S   S113      1.0  0.18807  0.71233  0.48866  1.0000
  H   H293      1.0  0.06326  0.94480  0.20552  1.0000
  C   C309      1.0  0.25347  0.85244  0.40239  1.0000
  C   C310      1.0  0.25034  0.69056  0.14594  1.0000
  H   H294      1.0  0.06047  0.96727  0.48860  1.0000
  C   C311      1.0  0.13525  0.96566  0.05127  1.0000
  H   H295      1.0  0.06469  0.99404  0.45775  1.0000
  C   C312      1.0  0.07008  0.94894  0.22570  1.0000
  H   H296      1.0  0.12329  0.95760  0.05645  1.0000
  C   C313      1.0  0.24953  0.69000  0.11585  1.0000
  H   H297      1.0  0.15932  0.88184  0.45644  1.0000
  C   C314      1.0  0.19018  0.74926  0.48783  1.0000
  C   C315      1.0  0.21569  0.80698  0.13422  1.0000
  H   H298      1.0  0.06664  0.99510  0.29203  1.0000
  H   H299      1.0  0.25416  0.85671  0.42462  1.0000
  C   C316      1.0  0.21719  0.69015  0.37780  1.0000
  C   C317      1.0  0.10591  0.00552  0.28532  1.0000
  S   S114      1.0  0.23110  0.71824  0.01622  1.0000
  H   H300      1.0  0.23694  0.68674  0.10555  1.0000
  C   C318      1.0  0.22265  0.80376  0.08455  1.0000
  H   H301      1.0  0.18329  0.74845  0.46740  1.0000
  H   H302      1.0  0.06666  0.93904  0.24257  1.0000
  H   H303      1.0  0.18235  0.80912  0.11776  1.0000
  C   C319      1.0  0.05446  0.00200  0.25136  1.0000
  C   C320      1.0  0.10025  0.00006  0.03338  1.0000
  Fe  Fe54      1.0  0.19715  0.86099  0.00988  1.0000
  N   N24       1.0  0.06453  0.96723  0.23446  1.0000
  C   C321      1.0  0.06832  0.97298  0.26171  1.0000
  C   C322      1.0  0.05625  0.97865  0.21521  1.0000
  C   C323      1.0  0.10941  0.98752  0.48939  1.0000
  H   H304      1.0  0.15428  0.86519  0.42994  1.0000
  H   H305      1.0  0.18788  0.81534  0.08166  1.0000
  C   C324      1.0  0.17324  0.93561  0.07638  1.0000
  H   H306      1.0  0.15182  0.95094  0.09652  1.0000
  C   C325      1.0  0.06316  0.99036  0.27068  1.0000
  H   H307      1.0  0.21048  0.68046  0.36433  1.0000
  H   H308      1.0  0.05922  0.99891  0.00473  1.0000
  C   C326      1.0  0.06465  0.99557  0.48099  1.0000
  H   H309      1.0  0.17680  0.75761  0.02666  1.0000
  C   C327      1.0  0.11030  0.00370  0.47395  1.0000
  H   H310      1.0  0.24314  0.75422  0.01697  1.0000
  N   N25       1.0  0.15144  0.95395  0.05083  1.0000
  S   S115      1.0  0.23181  0.82095  0.99889  1.0000
  C   C328      1.0  0.17389  0.93674  0.02453  1.0000
  H   H311      1.0  0.19040  0.77842  0.48768  1.0000
  C   C329      1.0  0.18103  0.93020  0.05034  1.0000
  C   C330      1.0  0.23367  0.69683  0.36875  1.0000
  H   H312      1.0  0.14441  0.90718  0.01061  1.0000
  H   H313      1.0  0.20592  0.80872  0.15141  1.0000
  Fe  Fe55      1.0  0.20336  0.81991  0.01427  1.0000
  C   C331      1.0  0.09629  0.00913  0.22707  1.0000
  C   C332      1.0  0.25207  0.84137  0.34461  1.0000
  H   H314      1.0  0.21834  0.80288  0.06236  1.0000
  H   H315      1.0  0.17811  0.92994  0.09651  1.0000
  H   H316      1.0  0.10956  0.00395  0.30773  1.0000
  H   H317      1.0  0.25212  0.78591  0.35899  1.0000
  C   C333      1.0  0.25634  0.84610  0.09383  1.0000
  H   H318      1.0  0.04484  0.00528  0.20784  1.0000
  H   H319      1.0  0.23962  0.69241  0.34849  1.0000
  H   H320      1.0  0.18827  0.69298  0.43401  1.0000
  H   H321      1.0  0.18201  0.69202  0.39676  1.0000
  C   C334      1.0  0.19261  0.68798  0.41245  1.0000
  H   H322      1.0  0.25899  0.88925  0.14081  1.0000
  S   S116      1.0  0.25848  0.84594  0.05607  1.0000
  H   H323      1.0  0.09251  0.01063  0.20472  1.0000
  H   H324      1.0  0.25872  0.80221  0.40443  1.0000
  Fe  Fe56      1.0  0.07003  0.96192  0.61143  1.0000
  S   S117      1.0  0.08334  0.98600  0.63024  1.0000
  S   S118      1.0  0.04108  0.97054  0.60133  1.0000
  Fe  Fe57      1.0  0.10608  0.93994  0.61054  1.0000
  S   S119      1.0  0.12147  0.96290  0.62933  1.0000
  S   S120      1.0  0.11942  0.91187  0.60508  1.0000
  Fe  Fe58      1.0  0.09803  0.96703  0.65987  1.0000
  S   S121      1.0  0.09869  0.96876  0.70917  1.0000
  Fe  Fe59      1.0  0.10519  0.97996  0.59803  1.0000
  H   H325      1.0  0.19522  0.87615  0.58257  1.0000
  S   S122      1.0  0.08343  0.94298  0.64300  1.0000
  S   S123      1.0  0.09123  0.95688  0.57744  1.0000
  S   S124      1.0  0.09639  0.99678  0.93505  1.0000
  C   C335      1.0  0.25101  0.81184  0.67836  1.0000
  C   C336      1.0  0.04508  0.95520  0.68448  1.0000
  H   H326      1.0  0.24367  0.70685  0.65245  1.0000
  C   C337      1.0  0.22788  0.78802  0.93806  1.0000
  Fe  Fe60      1.0  0.19608  0.85544  0.51211  1.0000
  Fe  Fe61      1.0  0.20826  0.81548  0.51994  1.0000
  H   H327      1.0  0.04549  0.95517  0.66055  1.0000
  C   C338      1.0  0.09916  0.99839  0.78328  1.0000
  Fe  Fe62      1.0  0.23490  0.84527  0.52698  1.0000
  H   H328      1.0  0.05541  0.94513  0.69190  1.0000
  Fe  Fe63      1.0  0.22176  0.84065  0.96543  1.0000
  S   S125      1.0  0.22640  0.83474  0.91743  1.0000
  S   S126      1.0  0.20872  0.84000  0.54875  1.0000
  C   C339      1.0  0.06560  0.99901  0.54041  1.0000
  C   C340      1.0  0.24372  0.83979  0.89230  1.0000
  H   H329      1.0  0.24766  0.76629  0.93959  1.0000
  C   C341      1.0  0.20234  0.76755  0.52629  1.0000
  C   C342      1.0  0.16613  0.90448  0.64088  1.0000
  C   C343      1.0  0.17901  0.89448  0.62516  1.0000
  C   C344      1.0  0.20972  0.79284  0.94201  1.0000
  H   H330      1.0  0.23743  0.79817  0.93201  1.0000
  C   C345      1.0  0.24022  0.85839  0.63317  1.0000
  C   C346      1.0  0.24133  0.85690  0.60308  1.0000
  H   H331      1.0  0.22722  0.86008  0.64346  1.0000
  H   H332      1.0  0.22925  0.85760  0.59035  1.0000
  S   S127      1.0  0.23529  0.82004  0.50031  1.0000
  S   S128      1.0  0.17700  0.88027  0.51408  1.0000
  C   C347      1.0  0.05511  0.00687  0.71929  1.0000
  C   C348      1.0  0.09876  0.99803  0.97278  1.0000
  C   C349      1.0  0.20341  0.73458  0.52943  1.0000
  C   C350      1.0  0.05658  0.99156  0.73657  1.0000
  H   H333      1.0  0.05651  0.00323  0.92670  1.0000
  H   H334      1.0  0.18632  0.92334  0.57100  1.0000
  C   C351      1.0  0.25584  0.85753  0.65005  1.0000
  C   C352      1.0  0.23357  0.77014  0.94213  1.0000
  C   C353      1.0  0.19421  0.76628  0.49926  1.0000
  C   C354      1.0  0.11067  0.98744  0.51956  1.0000
  H   H335      1.0  0.20539  0.80676  0.93875  1.0000
  H   H336      1.0  0.11007  0.97488  0.53116  1.0000
  H   H337      1.0  0.23055  0.82607  0.85761  1.0000
  C   C355      1.0  0.09979  0.98737  0.73335  1.0000
  N   N26       1.0  0.18604  0.90121  0.60028  1.0000
  S   S129      1.0  0.19283  0.83800  0.97920  1.0000
  C   C356      1.0  0.09940  0.98407  0.76320  1.0000
  C   C357      1.0  0.24218  0.83360  0.86376  1.0000
  H   H338      1.0  0.09917  0.97033  0.77088  1.0000
  C   C358      1.0  0.13494  0.90316  0.57892  1.0000
  C   C359      1.0  0.14241  0.88567  0.58261  1.0000
  C   C360      1.0  0.15526  0.87840  0.56308  1.0000
  C   C361      1.0  0.16069  0.88851  0.53937  1.0000
  C   C362      1.0  0.15311  0.90593  0.53551  1.0000
  C   C363      1.0  0.14037  0.91326  0.55518  1.0000
  H   H339      1.0  0.13824  0.87771  0.60080  1.0000
  H   H340      1.0  0.16080  0.86493  0.56625  1.0000
  C   C364      1.0  0.10012  0.00523  0.72381  1.0000
  H   H341      1.0  0.13474  0.92669  0.55195  1.0000
  C   C365      1.0  0.02078  0.95932  0.60807  1.0000
  H   H342      1.0  0.17131  0.78440  0.93340  1.0000
  C   C366      1.0  0.24142  0.80840  0.58846  1.0000
  H   H343      1.0  0.06085  0.99272  0.75881  1.0000
  C   C367      1.0  0.18094  0.91805  0.59087  1.0000
  H   H344      1.0  0.23890  0.80767  0.56548  1.0000
  H   H345      1.0  0.09881  0.99558  0.80612  1.0000
  C   C368      1.0  0.19943  0.89038  0.58414  1.0000
  H   H346      1.0  0.25400  0.83243  0.82110  1.0000
  S   S130      1.0  0.20573  0.78866  0.54317  1.0000
  H   H347      1.0  0.15713  0.91388  0.51722  1.0000
  H   H348      1.0  0.09123  0.97050  0.97944  1.0000
  C   C369      1.0  0.11303  0.00354  0.53454  1.0000
  H   H349      1.0  0.22535  0.74337  0.95331  1.0000
  N   N27       1.0  0.04877  0.97304  0.69625  1.0000
  N   N28       1.0  0.24770  0.81094  0.64730  1.0000
  H   H350      1.0  0.21370  0.80490  0.60001  1.0000
  H   H351      1.0  0.04295  0.98683  0.65693  1.0000
  C   C370      1.0  0.22724  0.80695  0.60792  1.0000
  C   C371      1.0  0.20299  0.76260  0.95337  1.0000
  S   S131      1.0  0.25383  0.85883  0.68777  1.0000
  H   H352      1.0  0.03153  0.95095  0.69135  1.0000
  C   C372      1.0  0.16816  0.92845  0.60616  1.0000
  C   C373      1.0  0.16067  0.92154  0.63123  1.0000
  C   C374      1.0  0.04682  0.98804  0.67933  1.0000
  H   H353      1.0  0.03257  0.93258  0.61091  1.0000
  C   C375      1.0  0.17865  0.78560  0.95405  1.0000
  H   H354      1.0  0.15019  0.92916  0.64263  1.0000
  H   H355      1.0  0.25402  0.70358  0.57568  1.0000
  H   H356      1.0  0.05851  0.98800  0.95602  1.0000
  C   C376      1.0  0.06260  0.98220  0.52818  1.0000
  S   S132      1.0  0.11434  0.00400  0.57247  1.0000
  H   H357      1.0  0.16006  0.89890  0.66003  1.0000
  H   H358      1.0  0.17731  0.79974  0.96191  1.0000
  C   C377      1.0  0.02023  0.94063  0.61151  1.0000
  H   H359      1.0  0.16358  0.94151  0.59813  1.0000
  C   C378      1.0  0.23064  0.80824  0.63747  1.0000
  H   H360      1.0  0.05546  0.96272  0.73782  1.0000
  C   C379      1.0  0.22105  0.75728  0.94962  1.0000
  H   H361      1.0  0.21316  0.75248  0.56222  1.0000
  N   N29       1.0  0.19762  0.78026  0.95011  1.0000
  C   C380      1.0  0.19466  0.73334  0.50290  1.0000
  C   C381      1.0  0.05351  0.97463  0.72456  1.0000
  C   C382      1.0  0.20699  0.75162  0.54122  1.0000
  H   H362      1.0  0.21955  0.80718  0.65248  1.0000
  H   H363      1.0  0.19341  0.75259  0.95974  1.0000
  H   H364      1.0  0.06068  0.97059  0.54191  1.0000
  C   C383      1.0  0.25809  0.85471  0.58962  1.0000
  H   H365      1.0  0.20083  0.89523  0.56163  1.0000
  H   H366      1.0  0.21274  0.89080  0.59493  1.0000
  H   H367      1.0  0.23659  0.70484  0.60202  1.0000
  C   C384      1.0  0.25548  0.83720  0.84295  1.0000
  H   H368      1.0  0.18307  0.88116  0.63265  1.0000
  H   H369      1.0  0.17224  0.77717  0.97075  1.0000
  H   H370      1.0  0.20678  0.72246  0.54134  1.0000
  H   H371      1.0  0.24794  0.72511  0.59180  1.0000
  H   H372      1.0  0.06639  0.00039  0.56364  1.0000
  H   H373      1.0  0.23983  0.81920  0.68963  1.0000
  C   C385      1.0  0.05123  0.00043  0.94862  1.0000
  H   H374      1.0  0.03661  0.99796  0.94726  1.0000
  C   C386      1.0  0.24978  0.71045  0.59599  1.0000
  H   H375      1.0  0.10041  0.00801  0.70096  1.0000
  Fe  Fe64      1.0  0.20137  0.68542  0.50044  1.0000
  C   C387      1.0  0.09497  0.98293  0.98973  1.0000
  C   C388      1.0  0.25879  0.81095  0.59868  1.0000
  H   H376      1.0  0.25279  0.79807  0.68749  1.0000
  C   C389      1.0  0.25784  0.70632  0.64687  1.0000
  C   C390      1.0  0.05019  0.00514  0.69047  1.0000
  C   C391      1.0  0.06231  0.98038  0.49829  1.0000
  C   C392      1.0  0.25882  0.84959  0.89984  1.0000
  H   H377      1.0  0.25920  0.71336  0.82818  1.0000
  S   S133      1.0  0.25988  0.85199  0.55197  1.0000
  S   S134      1.0  0.22553  0.86501  0.99371  1.0000
  Fe  Fe65      1.0  0.27854  0.15963  0.28635  1.0000
  S   S135      1.0  0.30629  0.16159  0.30492  1.0000
  H   H378      1.0  0.27943  0.19998  0.19198  1.0000
  Fe  Fe66      1.0  0.29149  0.15896  0.22340  1.0000
  S   S136      1.0  0.32037  0.16024  0.23791  1.0000
  S   S137      1.0  0.28818  0.16231  0.17456  1.0000
  Fe  Fe67      1.0  0.31387  0.14010  0.27235  1.0000
  S   S138      1.0  0.32907  0.11311  0.27980  1.0000
  Fe  Fe68      1.0  0.31037  0.18155  0.26899  1.0000
  S   S139      1.0  0.32494  0.20801  0.27132  1.0000
  S   S140      1.0  0.28553  0.13714  0.25542  1.0000
  S   S141      1.0  0.28208  0.18121  0.25296  1.0000
  S   S142      1.0  0.26509  0.32787  0.24641  1.0000
  C   C393      1.0  0.35262  0.05829  0.41302  1.0000
  Fe  Fe69      1.0  0.28934  0.31177  0.26163  1.0000
  S   S143      1.0  0.28117  0.28284  0.26977  1.0000
  H   H379      1.0  0.28901  0.31109  0.35678  1.0000
  Fe  Fe70      1.0  0.41470  0.03350  0.41110  1.0000
  S   S144      1.0  0.43107  0.05721  0.39738  1.0000
  S   S145      1.0  0.40651  0.03183  0.45867  1.0000
  C   C394      1.0  0.28245  0.29809  0.35251  1.0000
  S   S146      1.0  0.42706  0.04369  0.33076  1.0000
  C   C395      1.0  0.28325  0.21380  0.19578  1.0000
  Fe  Fe71      1.0  0.44591  0.03793  0.36761  1.0000
  S   S147      1.0  0.47506  0.02992  0.35735  1.0000
  Fe  Fe72      1.0  0.41062  0.06082  0.36158  1.0000
  S   S148      1.0  0.39912  0.08916  0.35231  1.0000
  H   H380      1.0  0.45999  0.02907  0.29659  1.0000
  S   S149      1.0  0.39356  0.03818  0.37679  1.0000
  H   H381      1.0  0.33430  0.11823  0.21869  1.0000
  N   N30       1.0  0.29452  0.11338  0.16595  1.0000
  H   H382      1.0  0.32665  0.20640  0.20850  1.0000
  C   C396      1.0  0.41095  0.01620  0.26991  1.0000
  H   H383      1.0  0.31989  0.23885  0.20352  1.0000
  H   H384      1.0  0.40959  0.02841  0.28244  1.0000
  C   C397      1.0  0.49470  0.04274  0.36051  1.0000
  C   C398      1.0  0.49405  0.06107  0.36752  1.0000
  H   H385      1.0  0.40113  0.07037  0.44228  1.0000
  H   H386      1.0  0.48119  0.06793  0.37091  1.0000
  H   H387      1.0  0.26161  0.29731  0.39928  1.0000
  C   C399      1.0  0.34846  0.10685  0.30054  1.0000
  C   C400      1.0  0.35884  0.11950  0.31482  1.0000
  C   C401      1.0  0.37434  0.11385  0.33033  1.0000
  C   C402      1.0  0.37963  0.09551  0.33192  1.0000
  C   C403      1.0  0.36909  0.08284  0.31802  1.0000
  C   C404      1.0  0.35366  0.08850  0.30237  1.0000
  H   H388      1.0  0.35509  0.13366  0.31364  1.0000
  H   H389      1.0  0.38235  0.12380  0.34100  1.0000
  H   H390      1.0  0.37290  0.06869  0.31910  1.0000
  H   H391      1.0  0.34576  0.07857  0.29145  1.0000
  C   C405      1.0  0.31286  0.22887  0.27265  1.0000
  C   C406      1.0  0.29417  0.22963  0.27608  1.0000
  C   C407      1.0  0.28483  0.24636  0.27594  1.0000
  C   C408      1.0  0.29400  0.26248  0.27206  1.0000
  C   C409      1.0  0.31272  0.26179  0.26895  1.0000
  C   C410      1.0  0.32211  0.24502  0.26939  1.0000
  H   H392      1.0  0.28691  0.21735  0.27886  1.0000
  C   C411      1.0  0.26772  0.19605  0.35903  1.0000
  H   H393      1.0  0.31993  0.27411  0.26600  1.0000
  H   H394      1.0  0.33659  0.24455  0.26689  1.0000
  H   H395      1.0  0.30857  0.13123  0.13845  1.0000
  C   C412      1.0  0.43118  0.01407  0.01053  1.0000
  H   H396      1.0  0.26536  0.18479  0.44282  1.0000
  C   C413      1.0  0.32316  0.12580  0.17744  1.0000
  C   C414      1.0  0.41444  0.01725  0.24028  1.0000
  C   C415      1.0  0.29449  0.10443  0.19168  1.0000
  H   H397      1.0  0.26650  0.11178  0.15725  1.0000
  C   C416      1.0  0.26863  0.14561  0.39337  1.0000
  H   H398      1.0  0.41619  0.03027  0.23034  1.0000
  H   H399      1.0  0.28074  0.14062  0.40389  1.0000
  H   H400      1.0  0.28101  0.14666  0.35126  1.0000
  H   H401      1.0  0.28111  0.09777  0.13477  1.0000
  C   C417      1.0  0.32323  0.11673  0.20371  1.0000
  H   H402      1.0  0.28717  0.28801  0.36864  1.0000
  C   C418      1.0  0.39416  0.08268  0.43364  1.0000
  H   H403      1.0  0.50662  0.04349  0.42136  1.0000
  H   H404      1.0  0.27035  0.24677  0.27836  1.0000
  H   H405      1.0  0.46357  0.03982  0.24652  1.0000
  H   H406      1.0  0.37534  0.05271  0.44040  1.0000
  C   C419      1.0  0.26881  0.14902  0.36354  1.0000
  H   H407      1.0  0.39205  0.09243  0.45151  1.0000
  H   H408      1.0  0.28688  0.29299  0.33102  1.0000
  C   C420      1.0  0.27454  0.24499  0.20366  1.0000
  S   S150      1.0  0.43087  0.01406  0.38393  1.0000
  H   H409      1.0  0.34660  0.04538  0.41707  1.0000
  C   C421      1.0  0.30582  0.23551  0.20178  1.0000
  N   N31       1.0  0.37688  0.07851  0.42041  1.0000
  C   C422      1.0  0.36891  0.06251  0.42614  1.0000
  C   C423      1.0  0.36862  0.09093  0.40276  1.0000
  S   S151      1.0  0.29528  0.33042  0.29835  1.0000
  C   C424      1.0  0.35237  0.08714  0.38920  1.0000
  C   C425      1.0  0.34440  0.07066  0.39426  1.0000
  H   H410      1.0  0.40331  0.08851  0.41734  1.0000
  H   H411      1.0  0.31959  0.20346  0.17141  1.0000
  H   H412      1.0  0.37500  0.10358  0.39809  1.0000
  C   C426      1.0  0.31501  0.20395  0.19413  1.0000
  H   H413      1.0  0.34630  0.09676  0.37425  1.0000
  H   H414      1.0  0.33411  0.13453  0.17193  1.0000
  N   N32       1.0  0.30100  0.21804  0.19776  1.0000
  H   H415      1.0  0.26153  0.16204  0.07775  1.0000
  H   H416      1.0  0.28474  0.16921  0.11411  1.0000
  H   H417      1.0  0.33195  0.06746  0.38348  1.0000
  H   H418      1.0  0.28328  0.09615  0.19758  1.0000
  H   H419      1.0  0.27921  0.19225  0.34568  1.0000
  C   C427      1.0  0.27963  0.11101  0.14575  1.0000
  H   H420      1.0  0.27913  0.12177  0.12909  1.0000
  C   C428      1.0  0.27044  0.15792  0.14996  1.0000
  H   H421      1.0  0.30871  0.09908  0.23154  1.0000
  H   H422      1.0  0.30992  0.19053  0.20001  1.0000
  C   C429      1.0  0.30884  0.10595  0.21091  1.0000
  Fe  Fe73      1.0  0.41143  0.02079  0.34835  1.0000
  C   C430      1.0  0.27268  0.16254  0.12082  1.0000
  C   C431      1.0  0.26975  0.22716  0.19905  1.0000
  Fe  Fe74      1.0  0.28393  0.34298  0.21827  1.0000
  S   S152      1.0  0.30805  0.32572  0.23116  1.0000
  C   C432      1.0  0.30868  0.12385  0.15859  1.0000
  C   C433      1.0  0.46151  0.02565  0.25068  1.0000
  H   H423      1.0  0.44203  0.02273  0.01654  1.0000
  C   C434      1.0  0.29268  0.24925  0.20465  1.0000
  C   C435      1.0  0.26817  0.19312  0.38876  1.0000
  H   H424      1.0  0.26052  0.30653  0.30881  1.0000
  N   N33       1.0  0.26286  0.30073  0.35368  1.0000
  H   H425      1.0  0.28023  0.18716  0.39828  1.0000
  C   C436      1.0  0.45928  0.01953  0.27891  1.0000
  H   H426      1.0  0.29651  0.26304  0.20865  1.0000
  H   H427      1.0  0.37110  0.02143  0.22782  1.0000
  C   C437      1.0  0.41006  0.01375  0.48353  1.0000
  H   H428      1.0  0.50954  0.08477  0.37549  1.0000
  C   C438      1.0  0.26865  0.34298  0.38954  1.0000
  H   H429      1.0  0.46175  0.01802  0.20580  1.0000
  C   C439      1.0  0.46068  0.01343  0.22790  1.0000
  H   H430      1.0  0.28158  0.34012  0.39942  1.0000
  H   H431      1.0  0.26428  0.25549  0.20683  1.0000
  Fe  Fe75      1.0  0.28538  0.16198  0.78283  1.0000
  S   S153      1.0  0.31383  0.16844  0.79544  1.0000
  C   C440      1.0  0.35760  0.05454  0.77864  1.0000
  Fe  Fe76      1.0  0.29406  0.15647  0.71891  1.0000
  S   S154      1.0  0.32299  0.16226  0.72764  1.0000
  S   S155      1.0  0.28991  0.15117  0.67084  1.0000
  Fe  Fe77      1.0  0.32147  0.14476  0.76690  1.0000
  S   S156      1.0  0.34492  0.12401  0.76940  1.0000
  Fe  Fe78      1.0  0.31303  0.18525  0.75504  1.0000
  S   S157      1.0  0.32626  0.21157  0.74411  1.0000
  S   S158      1.0  0.29296  0.13727  0.75651  1.0000
  C   C441      1.0  0.42474  0.01442  0.98203  1.0000
  C   C442      1.0  0.36096  0.17930  0.76809  1.0000
  H   H432      1.0  0.35835  0.05408  0.75532  1.0000
  Fe  Fe79      1.0  0.30161  0.31453  0.77253  1.0000
  S   S159      1.0  0.30279  0.28787  0.79672  1.0000
  S   S160      1.0  0.27481  0.32110  0.75252  1.0000
  Fe  Fe80      1.0  0.42750  0.03557  0.90992  1.0000
  S   S161      1.0  0.43820  0.06202  0.89419  1.0000
  H   H433      1.0  0.38267  0.14287  0.79530  1.0000
  C   C443      1.0  0.41411  0.01932  0.73935  1.0000
  S   S162      1.0  0.42444  0.05169  0.82932  1.0000
  C   C444      1.0  0.26635  0.19274  0.89561  1.0000
  Fe  Fe81      1.0  0.44917  0.04630  0.85636  1.0000
  S   S163      1.0  0.47692  0.04273  0.83610  1.0000
  Fe  Fe82      1.0  0.41235  0.06494  0.86861  1.0000
  S   S164      1.0  0.39398  0.09020  0.86963  1.0000
  C   C445      1.0  0.27783  0.30580  0.86633  1.0000
  S   S165      1.0  0.40099  0.03951  0.88690  1.0000
  C   C446      1.0  0.40569  0.01645  0.51278  1.0000
  H   H434      1.0  0.27552  0.17775  0.96161  1.0000
  C   C447      1.0  0.37500  0.15399  0.74180  1.0000
  H   H435      1.0  0.46982  0.04809  0.93627  1.0000
  H   H436      1.0  0.41931  0.03098  0.72851  1.0000
  H   H437      1.0  0.41476  0.03167  0.78118  1.0000
  C   C448      1.0  0.49693  0.05180  0.84978  1.0000
  C   C449      1.0  0.49668  0.06685  0.86791  1.0000
  C   C450      1.0  0.47811  0.03814  0.92373  1.0000
  H   H438      1.0  0.48397  0.07320  0.87402  1.0000
  H   H439      1.0  0.37539  0.03142  0.78474  1.0000
  C   C451      1.0  0.35800  0.11456  0.79788  1.0000
  C   C452      1.0  0.35500  0.11908  0.82675  1.0000
  C   C453      1.0  0.36616  0.11151  0.84840  1.0000
  C   C454      1.0  0.38022  0.09915  0.84154  1.0000
  C   C455      1.0  0.38314  0.09456  0.81268  1.0000
  C   C456      1.0  0.37222  0.10240  0.79100  1.0000
  H   H440      1.0  0.34417  0.12847  0.83239  1.0000
  H   H441      1.0  0.36383  0.11519  0.87067  1.0000
  H   H442      1.0  0.39397  0.08518  0.80703  1.0000
  H   H443      1.0  0.37475  0.09889  0.76872  1.0000
  C   C457      1.0  0.31829  0.23263  0.75766  1.0000
  C   C458      1.0  0.32327  0.24853  0.74371  1.0000
  C   C459      1.0  0.31801  0.26556  0.75476  1.0000
  C   C460      1.0  0.30808  0.26681  0.78032  1.0000
  C   C461      1.0  0.30299  0.25090  0.79414  1.0000
  C   C462      1.0  0.30785  0.23387  0.78268  1.0000
  H   H444      1.0  0.33141  0.24771  0.72441  1.0000
  H   H445      1.0  0.32211  0.27771  0.74403  1.0000
  H   H446      1.0  0.29536  0.25175  0.81395  1.0000
  H   H447      1.0  0.30396  0.22174  0.79366  1.0000
  N   N34       1.0  0.26529  0.19192  0.92498  1.0000
  C   C463      1.0  0.28480  0.19631  0.64147  1.0000
  C   C464      1.0  0.28740  0.21064  0.68693  1.0000
  C   C465      1.0  0.37525  0.15565  0.79463  1.0000
  H   H448      1.0  0.34000  0.07816  0.77978  1.0000
  N   N35       1.0  0.35594  0.05590  0.83842  1.0000
  S   S166      1.0  0.43534  0.02847  0.95637  1.0000
  C   C466      1.0  0.35540  0.05692  0.86992  1.0000
  N   N36       1.0  0.37013  0.16307  0.76886  1.0000
  H   H449      1.0  0.28765  0.13986  0.90164  1.0000
  H   H450      1.0  0.28868  0.14835  0.84985  1.0000
  C   C467      1.0  0.27624  0.14985  0.86182  1.0000
  Fe  Fe83      1.0  0.41454  0.02620  0.84865  1.0000
  H   H451      1.0  0.29261  0.30576  0.90631  1.0000
  H   H452      1.0  0.31497  0.17984  0.66080  1.0000
  C   C468      1.0  0.36093  0.18054  0.81999  1.0000
  H   H453      1.0  0.26338  0.22393  0.70361  1.0000
  H   H454      1.0  0.28767  0.17351  0.92929  1.0000
  N   N37       1.0  0.29480  0.20048  0.66512  1.0000
  H   H455      1.0  0.37865  0.13953  0.74535  1.0000
  H   H456      1.0  0.28256  0.32550  0.60944  1.0000
  C   C469      1.0  0.34721  0.06795  0.79234  1.0000
  H   H457      1.0  0.37419  0.15787  0.84092  1.0000
  S   S167      1.0  0.43984  0.01986  0.87329  1.0000
  S   S168      1.0  0.31699  0.32772  0.73680  1.0000
  C   C470      1.0  0.27944  0.30565  0.89633  1.0000
  H   H458      1.0  0.33906  0.07937  0.83291  1.0000
  H   H459      1.0  0.36594  0.06604  0.87771  1.0000
  C   C471      1.0  0.37054  0.16413  0.82056  1.0000
  H   H460      1.0  0.35704  0.18531  0.74768  1.0000
  H   H461      1.0  0.40055  0.02951  0.51976  1.0000
  S   S169      1.0  0.30212  0.33937  0.80050  1.0000
  H   H462      1.0  0.28565  0.14740  0.60987  1.0000
  H   H463      1.0  0.29059  0.18805  0.62437  1.0000
  H   H464      1.0  0.34873  0.20103  0.79283  1.0000
  H   H465      1.0  0.35706  0.18723  0.83991  1.0000
  N   N38       1.0  0.49746  0.04064  0.92746  1.0000
  H   H466      1.0  0.37396  0.03297  0.83771  1.0000
  S   S170      1.0  0.28425  0.18052  0.74426  1.0000
  C   C472      1.0  0.36631  0.04282  0.82515  1.0000
  C   C473      1.0  0.41158  0.01972  0.76930  1.0000
  H   H467      1.0  0.36331  0.15416  0.72689  1.0000
  H   H468      1.0  0.49416  0.06467  0.95240  1.0000
  H   H469      1.0  0.27801  0.18714  0.88436  1.0000
  C   C474      1.0  0.27096  0.15522  0.64816  1.0000
  C   C475      1.0  0.34668  0.06854  0.82244  1.0000
  H   H470      1.0  0.29537  0.21418  0.70555  1.0000
  C   C476      1.0  0.28040  0.18429  0.94162  1.0000
  C   C477      1.0  0.31370  0.19439  0.66643  1.0000
  H   H471      1.0  0.32185  0.20233  0.65127  1.0000
  C   C478      1.0  0.35624  0.18828  0.79360  1.0000
  C   C479      1.0  0.27563  0.14510  0.89114  1.0000
  H   H472      1.0  0.38648  0.16073  0.73151  1.0000
  C   C480      1.0  0.50356  0.05496  0.94288  1.0000
  C   C481      1.0  0.36722  0.04189  0.79511  1.0000
  H   H473      1.0  0.47432  0.02454  0.93114  1.0000
  H   H474      1.0  0.26492  0.30638  0.93660  1.0000
  H   H475      1.0  0.35777  0.04344  0.87983  1.0000
  H   H476      1.0  0.28983  0.19502  0.94741  1.0000
  H   H477      1.0  0.31932  0.19589  0.68840  1.0000
  H   H478      1.0  0.28992  0.30574  0.85312  1.0000
  C   C482      1.0  0.27294  0.15253  0.61830  1.0000
  H   H479      1.0  0.34210  0.06216  0.87763  1.0000
  S   S171      1.0  0.28701  0.33179  0.66991  1.0000
  Fe  Fe84      1.0  0.28983  0.33604  0.71860  1.0000
  C   C483      1.0  0.26675  0.20199  0.63950  1.0000
  C   C484      1.0  0.27078  0.33310  0.61668  1.0000
  C   C485      1.0  0.26931  0.21631  0.68588  1.0000
  H   H480      1.0  0.46670  0.03016  0.77244  1.0000
  N   N39       1.0  0.26123  0.30643  0.85368  1.0000
  H   H481      1.0  0.26998  0.31635  0.81353  1.0000
  C   C486      1.0  0.26393  0.30584  0.91331  1.0000
  H   H482      1.0  0.47446  0.03965  0.90067  1.0000
  S   S172      1.0  0.26119  0.16473  0.81246  1.0000
  C   C487      1.0  0.26923  0.33795  0.64591  1.0000
  H   H483      1.0  0.45396  0.01475  0.81466  1.0000
  H   H484      1.0  0.46605  0.01533  0.72447  1.0000
  C   C488      1.0  0.26078  0.15677  0.84822  1.0000
  C   C489      1.0  0.46108  0.01689  0.76995  1.0000
  H   H485      1.0  0.50452  0.01775  0.90169  1.0000
  C   C490      1.0  0.50937  0.02873  0.91471  1.0000
  H   H486      1.0  0.26282  0.29337  0.81306  1.0000
  H   H487      1.0  0.26047  0.15457  0.57624  1.0000
  H   H488      1.0  0.45858  0.52872  0.21246  1.0000
  H   H489      1.0  0.38347  0.46759  0.01833  1.0000
  C   C491      1.0  0.48193  0.54873  0.07138  1.0000
  H   H490      1.0  0.38717  0.43660  0.46348  1.0000
  C   C492      1.0  0.35490  0.45159  0.41702  1.0000
  H   H491      1.0  0.48905  0.44125  0.41501  1.0000
  S   S173      1.0  0.28898  0.36412  0.25229  1.0000
  Fe  Fe85      1.0  0.39315  0.44139  0.35135  1.0000
  S   S174      1.0  0.38880  0.46973  0.36872  1.0000
  S   S175      1.0  0.36669  0.42751  0.34000  1.0000
  Fe  Fe86      1.0  0.43430  0.44418  0.35779  1.0000
  S   S176      1.0  0.43260  0.47244  0.37425  1.0000
  S   S177      1.0  0.46165  0.42985  0.35757  1.0000
  Fe  Fe87      1.0  0.40999  0.46326  0.40210  1.0000
  S   S178      1.0  0.41095  0.46603  0.45136  1.0000
  Fe  Fe88      1.0  0.41182  0.47653  0.33951  1.0000
  S   S179      1.0  0.41334  0.50202  0.31318  1.0000
  S   S180      1.0  0.41251  0.43434  0.38718  1.0000
  S   S181      1.0  0.41528  0.44883  0.32057  1.0000
  Fe  Fe89      1.0  0.40648  0.52486  0.15151  1.0000
  S   S182      1.0  0.42117  0.54822  0.16991  1.0000
  S   S183      1.0  0.39686  0.50177  0.17896  1.0000
  Fe  Fe90      1.0  0.41213  0.53675  0.08849  1.0000
  S   S184      1.0  0.42740  0.56088  0.10317  1.0000
  S   S185      1.0  0.40837  0.53426  0.03961  1.0000
  Fe  Fe91      1.0  0.44138  0.54233  0.13476  1.0000
  S   S186      1.0  0.47047  0.53327  0.14257  1.0000
  Fe  Fe92      1.0  0.40557  0.56463  0.13694  1.0000
  S   S187      1.0  0.39162  0.59245  0.14126  1.0000
  S   S188      1.0  0.42731  0.51804  0.11791  1.0000
  S   S189      1.0  0.38961  0.54145  0.12048  1.0000
  Fe  Fe93      1.0  0.27908  0.65612  0.21970  1.0000
  H   H492      1.0  0.36404  0.45931  0.99942  1.0000
  C   C493      1.0  0.32014  0.37297  0.19242  1.0000
  H   H493      1.0  0.37281  0.49832  0.02161  1.0000
  H   H494      1.0  0.27562  0.61206  0.16029  1.0000
  C   C494      1.0  0.36787  0.45211  0.43864  1.0000
  Fe  Fe94      1.0  0.31675  0.64560  0.23936  1.0000
  S   S190      1.0  0.33738  0.62218  0.23846  1.0000
  S   S191      1.0  0.28931  0.63983  0.25743  1.0000
  C   C495      1.0  0.37626  0.60024  0.16824  1.0000
  C   C496      1.0  0.36652  0.61656  0.16391  1.0000
  C   C497      1.0  0.35434  0.62336  0.18487  1.0000
  C   C498      1.0  0.35209  0.61409  0.21078  1.0000
  C   C499      1.0  0.36178  0.59778  0.21508  1.0000
  C   C500      1.0  0.37366  0.59079  0.19386  1.0000
  H   H495      1.0  0.36838  0.62394  0.14410  1.0000
  H   H496      1.0  0.34679  0.63577  0.18103  1.0000
  H   H497      1.0  0.36015  0.59046  0.23501  1.0000
  H   H498      1.0  0.38105  0.57825  0.19758  1.0000
  C   C501      1.0  0.49062  0.54538  0.14264  1.0000
  N   N40       1.0  0.33582  0.37328  0.20772  1.0000
  C   C502      1.0  0.49079  0.56419  0.14153  1.0000
  H   H499      1.0  0.27919  0.61317  0.21166  1.0000
  H   H500      1.0  0.47824  0.57191  0.14126  1.0000
  C   C503      1.0  0.50733  0.57306  0.14121  1.0000
  C   C504      1.0  0.27533  0.64783  0.11068  1.0000
  C   C505      1.0  0.37680  0.43622  0.44707  1.0000
  C   C506      1.0  0.41333  0.51604  0.01577  1.0000
  C   C507      1.0  0.47554  0.51641  0.07369  1.0000
  C   C508      1.0  0.40808  0.50251  0.46644  1.0000
  C   C509      1.0  0.48413  0.45493  0.41893  1.0000
  H   H501      1.0  0.30078  0.41241  0.21547  1.0000
  C   C510      1.0  0.44669  0.50471  0.19611  1.0000
  H   H502      1.0  0.40582  0.50531  0.44387  1.0000
  C   C511      1.0  0.40752  0.50193  0.27634  1.0000
  C   C512      1.0  0.40114  0.48653  0.26278  1.0000
  C   C513      1.0  0.39745  0.48677  0.23305  1.0000
  C   C514      1.0  0.40023  0.50235  0.21666  1.0000
  C   C515      1.0  0.40635  0.51778  0.23040  1.0000
  C   C516      1.0  0.40998  0.51756  0.26007  1.0000
  H   H503      1.0  0.39902  0.47445  0.27516  1.0000
  H   H504      1.0  0.39260  0.47480  0.22265  1.0000
  H   H505      1.0  0.40820  0.52995  0.21828  1.0000
  H   H506      1.0  0.41475  0.52958  0.27044  1.0000
  C   C517      1.0  0.45419  0.51526  0.21756  1.0000
  C   C518      1.0  0.48136  0.44203  0.35085  1.0000
  C   C519      1.0  0.48043  0.46008  0.34229  1.0000
  H   H507      1.0  0.35176  0.38780  0.23754  1.0000
  H   H508      1.0  0.46747  0.46672  0.33911  1.0000
  C   C520      1.0  0.34732  0.37575  0.29507  1.0000
  C   C521      1.0  0.36585  0.37859  0.29858  1.0000
  C   C522      1.0  0.37209  0.39436  0.31192  1.0000
  C   C523      1.0  0.35984  0.40758  0.32192  1.0000
  C   C524      1.0  0.34130  0.40477  0.31830  1.0000
  C   C525      1.0  0.33507  0.38901  0.30493  1.0000
  H   H509      1.0  0.37549  0.36848  0.29099  1.0000
  H   H510      1.0  0.38637  0.39624  0.31456  1.0000
  H   H511      1.0  0.33166  0.41487  0.32587  1.0000
  H   H512      1.0  0.32079  0.38713  0.30227  1.0000
  H   H513      1.0  0.32226  0.59989  0.10841  1.0000
  C   C526      1.0  0.49833  0.43361  0.35504  1.0000
  N   N41       1.0  0.35987  0.41956  0.41257  1.0000
  N   N42       1.0  0.46722  0.45809  0.42977  1.0000
  C   C527      1.0  0.45565  0.44287  0.43574  1.0000
  H   H514      1.0  0.28361  0.58920  0.21514  1.0000
  H   H515      1.0  0.28620  0.65026  0.15328  1.0000
  H   H516      1.0  0.46409  0.51079  0.08587  1.0000
  C   C528      1.0  0.27416  0.64876  0.14080  1.0000
  C   C529      1.0  0.26972  0.66502  0.35316  1.0000
  C   C530      1.0  0.33938  0.38758  0.22525  1.0000
  H   H517      1.0  0.35369  0.39174  0.41445  1.0000
  C   C531      1.0  0.48862  0.48692  0.41560  1.0000
  C   C532      1.0  0.36693  0.65904  0.23672  1.0000
  H   H518      1.0  0.34825  0.46394  0.40972  1.0000
  N   N43       1.0  0.29878  0.60188  0.18268  1.0000
  C   C533      1.0  0.31608  0.59527  0.18050  1.0000
  C   C534      1.0  0.49632  0.46955  0.33777  1.0000
  C   C535      1.0  0.32478  0.59445  0.15379  1.0000
  H   H519      1.0  0.47856  0.50778  0.05466  1.0000
  C   C536      1.0  0.35099  0.43509  0.40422  1.0000
  C   C537      1.0  0.28984  0.60234  0.21080  1.0000
  Fe  Fe95      1.0  0.29065  0.66628  0.28088  1.0000
  C   C538      1.0  0.29778  0.60660  0.13154  1.0000
  H   H520      1.0  0.36834  0.52767  0.99749  1.0000
  S   S192      1.0  0.30629  0.66028  0.20056  1.0000
  C   C539      1.0  0.47731  0.56642  0.06342  1.0000
  C   C540      1.0  0.50703  0.53555  0.14299  1.0000
  H   H521      1.0  0.33863  0.58946  0.15226  1.0000
  C   C541      1.0  0.37211  0.49874  0.99829  1.0000
  H   H522      1.0  0.43836  0.55793  0.02825  1.0000
  C   C542      1.0  0.32684  0.40183  0.22839  1.0000
  H   H523      1.0  0.37131  0.46485  0.44843  1.0000
  H   H524      1.0  0.48579  0.57742  0.06971  1.0000
  C   C543      1.0  0.40772  0.51675  0.48669  1.0000
  C   C544      1.0  0.31559  0.60030  0.12921  1.0000
  H   H525      1.0  0.50701  0.52099  0.14378  1.0000
  H   H526      1.0  0.32954  0.41286  0.24299  1.0000
  C   C545      1.0  0.30739  0.38711  0.19474  1.0000
  C   C546      1.0  0.41102  0.48473  0.47557  1.0000
  C   C547      1.0  0.47128  0.49002  0.42640  1.0000
  H   H527      1.0  0.45766  0.58346  0.04176  1.0000
  C   C548      1.0  0.37272  0.41999  0.43356  1.0000
  C   C549      1.0  0.41668  0.49848  0.02563  1.0000
  N   N44       1.0  0.44983  0.49157  0.25192  1.0000
  C   C550      1.0  0.44266  0.48106  0.23088  1.0000
  C   C551      1.0  0.45569  0.50843  0.24556  1.0000
  C   C552      1.0  0.44089  0.48750  0.20271  1.0000
  H   H528      1.0  0.34126  0.43490  0.38684  1.0000
  C   C553      1.0  0.45199  0.48436  0.28113  1.0000
  H   H529      1.0  0.43775  0.46781  0.23598  1.0000
  H   H530      1.0  0.46130  0.51679  0.26225  1.0000
  H   H531      1.0  0.43441  0.47952  0.18633  1.0000
  H   H532      1.0  0.44074  0.47541  0.28668  1.0000
  H   H533      1.0  0.46494  0.47663  0.28297  1.0000
  H   H534      1.0  0.45156  0.49534  0.29743  1.0000
  H   H535      1.0  0.49695  0.49812  0.40968  1.0000
  C   C554      1.0  0.45076  0.55549  0.04014  1.0000
  C   C555      1.0  0.41888  0.48419  0.00579  1.0000
  C   C556      1.0  0.49516  0.46928  0.41200  1.0000
  H   H536      1.0  0.40521  0.53041  0.47936  1.0000
  C   C557      1.0  0.28949  0.60719  0.15861  1.0000
  H   H537      1.0  0.44509  0.50999  0.17450  1.0000
  H   H538      1.0  0.29042  0.61107  0.11253  1.0000
  H   H539      1.0  0.28829  0.64875  0.10023  1.0000
  H   H540      1.0  0.29481  0.38658  0.18293  1.0000
  C   C558      1.0  0.26372  0.34557  0.14523  1.0000
  S   S193      1.0  0.28070  0.35107  0.17079  1.0000
  H   H541      1.0  0.49917  0.41963  0.36158  1.0000
  H   H542      1.0  0.34438  0.40349  0.38387  1.0000
  Fe  Fe96      1.0  0.31193  0.34608  0.26697  1.0000
  C   C559      1.0  0.45565  0.53801  0.04888  1.0000
  C   C560      1.0  0.27068  0.67032  0.38223  1.0000
  H   H543      1.0  0.42105  0.47059  0.01365  1.0000
  H   H544      1.0  0.38008  0.40778  0.43968  1.0000
  C   C561      1.0  0.35626  0.40239  0.39833  1.0000
  H   H545      1.0  0.41707  0.49583  0.04852  1.0000
  H   H546      1.0  0.46365  0.43094  0.44325  1.0000
  H   H547      1.0  0.46595  0.50368  0.42903  1.0000
  H   H548      1.0  0.49420  0.54626  0.08350  1.0000
  H   H549      1.0  0.49547  0.48350  0.33107  1.0000
  H   H550      1.0  0.37112  0.65615  0.28231  1.0000
  H   H551      1.0  0.29964  0.60516  0.22823  1.0000
  C   C562      1.0  0.31074  0.40156  0.21302  1.0000
  H   H552      1.0  0.31726  0.36159  0.17862  1.0000
  C   C563      1.0  0.46158  0.56979  0.04775  1.0000
  N   N45       1.0  0.47097  0.53485  0.06453  1.0000
  H   H553      1.0  0.44696  0.52701  0.04343  1.0000
  H   H554      1.0  0.44713  0.47788  0.44142  1.0000
  H   H555      1.0  0.44844  0.43912  0.41580  1.0000
  H   H556      1.0  0.48731  0.51593  0.08844  1.0000
  C   C564      1.0  0.46070  0.47536  0.43342  1.0000
  S   S194      1.0  0.34031  0.35585  0.27706  1.0000
  H   H557      1.0  0.36800  0.39823  0.38475  1.0000
  H   H558      1.0  0.37072  0.64513  0.23194  1.0000
  H   H559      1.0  0.44555  0.44630  0.45270  1.0000
  H   H560      1.0  0.32333  0.59076  0.19956  1.0000
  H   H561      1.0  0.50742  0.58763  0.14082  1.0000
  H   H562      1.0  0.27658  0.35979  0.11074  1.0000
  C   C565      1.0  0.36725  0.66527  0.26503  1.0000
  C   C566      1.0  0.26774  0.34746  0.36020  1.0000
  C   C567      1.0  0.36129  0.67065  0.21473  1.0000
  H   H563      1.0  0.35421  0.35738  0.18280  1.0000
  S   S195      1.0  0.26193  0.64418  0.05639  1.0000
  S   S196      1.0  0.31900  0.67099  0.26560  1.0000
  C   C568      1.0  0.26519  0.35183  0.11671  1.0000
  H   H564      1.0  0.27997  0.34841  0.34781  1.0000
  Fe  Fe97      1.0  0.27213  0.34719  0.28151  1.0000
  C   C569      1.0  0.37714  0.46592  0.99686  1.0000
  H   H565      1.0  0.50852  0.46672  0.40317  1.0000
  S   S197      1.0  0.28593  0.67307  0.32846  1.0000
  C   C570      1.0  0.34878  0.35813  0.20504  1.0000
  H   H566      1.0  0.36017  0.35930  0.22037  1.0000
  H   H567      1.0  0.36072  0.66583  0.19272  1.0000
  H   H568      1.0  0.34212  0.34533  0.21038  1.0000
  C   C571      1.0  0.27118  0.66030  0.63787  1.0000
  H   H569      1.0  0.37876  0.54893  0.74547  1.0000
  N   N46       1.0  0.31216  0.37556  0.67909  1.0000
  N   N47       1.0  0.45493  0.49698  0.72364  1.0000
  C   C572      1.0  0.50194  0.44612  0.83183  1.0000
  S   S198      1.0  0.33801  0.37345  0.76103  1.0000
  S   S199      1.0  0.28849  0.36223  0.74311  1.0000
  Fe  Fe98      1.0  0.39871  0.44201  0.85753  1.0000
  S   S200      1.0  0.39114  0.46907  0.87703  1.0000
  S   S201      1.0  0.37844  0.41919  0.85764  1.0000
  Fe  Fe99      1.0  0.43849  0.45257  0.85093  1.0000
  S   S202      1.0  0.43372  0.47999  0.87000  1.0000
  S   S203      1.0  0.46503  0.44395  0.83019  1.0000
  Fe  Fe100     1.0  0.41662  0.46635  0.90307  1.0000
  S   S204      1.0  0.41816  0.46837  0.95228  1.0000
  Fe  Fe101     1.0  0.40886  0.48042  0.84236  1.0000
  S   S205      1.0  0.40341  0.50594  0.81690  1.0000
  S   S206      1.0  0.42325  0.43854  0.88569  1.0000
  S   S207      1.0  0.41461  0.45371  0.82115  1.0000
  Fe  Fe102     1.0  0.41166  0.52146  0.65195  1.0000
  S   S208      1.0  0.42793  0.54383  0.66959  1.0000
  S   S209      1.0  0.40126  0.49947  0.68068  1.0000
  Fe  Fe103     1.0  0.41573  0.53374  0.58917  1.0000
  S   S210      1.0  0.43234  0.55730  0.60302  1.0000
  S   S211      1.0  0.40925  0.53199  0.54087  1.0000
  Fe  Fe104     1.0  0.44675  0.53778  0.63268  1.0000
  S   S212      1.0  0.47609  0.52978  0.64112  1.0000
  Fe  Fe105     1.0  0.41187  0.56127  0.63881  1.0000
  S   S213      1.0  0.40121  0.58943  0.65150  1.0000
  S   S214      1.0  0.43129  0.51409  0.61677  1.0000
  S   S215      1.0  0.39439  0.53913  0.62312  1.0000
  Fe  Fe106     1.0  0.27899  0.65953  0.71641  1.0000
  S   S216      1.0  0.30657  0.66106  0.69703  1.0000
  C   C573      1.0  0.26761  0.35272  0.85736  1.0000
  Fe  Fe107     1.0  0.29284  0.65914  0.77880  1.0000
  S   S217      1.0  0.32164  0.66036  0.76332  1.0000
  S   S218      1.0  0.28963  0.66191  0.82782  1.0000
  Fe  Fe108     1.0  0.31460  0.63987  0.72954  1.0000
  S   S219      1.0  0.32909  0.61287  0.71879  1.0000
  S   S220      1.0  0.28639  0.63716  0.74726  1.0000
  C   C574      1.0  0.38061  0.59573  0.66891  1.0000
  C   C575      1.0  0.37701  0.61403  0.67519  1.0000
  C   C576      1.0  0.36101  0.61965  0.68942  1.0000
  C   C577      1.0  0.34842  0.60698  0.69770  1.0000
  C   C578      1.0  0.35191  0.58870  0.69099  1.0000
  C   C579      1.0  0.36784  0.58309  0.67659  1.0000
  H   H570      1.0  0.38674  0.62395  0.66926  1.0000
  H   H571      1.0  0.35862  0.63373  0.69456  1.0000
  H   H572      1.0  0.34232  0.57876  0.69742  1.0000
  H   H573      1.0  0.37032  0.56898  0.67178  1.0000
  C   C580      1.0  0.49584  0.54249  0.63852  1.0000
  C   C581      1.0  0.28228  0.39890  0.67834  1.0000
  C   C582      1.0  0.49540  0.56080  0.63138  1.0000
  C   C583      1.0  0.31096  0.38949  0.69837  1.0000
  H   H574      1.0  0.48263  0.56774  0.62778  1.0000
  H   H575      1.0  0.50833  0.53912  0.57946  1.0000
  H   H576      1.0  0.33786  0.36691  0.66385  1.0000
  C   C584      1.0  0.41368  0.49571  0.52530  1.0000
  C   C585      1.0  0.41048  0.51348  0.51626  1.0000
  H   H577      1.0  0.36982  0.60697  0.61188  1.0000
  H   H578      1.0  0.41256  0.56320  0.73907  1.0000
  C   C586      1.0  0.44853  0.40215  0.84456  1.0000
  H   H579      1.0  0.41579  0.49291  0.54791  1.0000
  H   H580      1.0  0.41041  0.53274  0.97803  1.0000
  C   C587      1.0  0.27158  0.65895  0.85263  1.0000
  C   C588      1.0  0.40267  0.50407  0.77908  1.0000
  C   C589      1.0  0.39742  0.48816  0.76576  1.0000
  C   C590      1.0  0.39666  0.48709  0.73558  1.0000
  C   C591      1.0  0.40138  0.50180  0.71849  1.0000
  C   C592      1.0  0.40663  0.51772  0.73182  1.0000
  C   C593      1.0  0.40712  0.51890  0.76202  1.0000
  H   H581      1.0  0.39358  0.47680  0.77870  1.0000
  H   H582      1.0  0.39247  0.47477  0.72542  1.0000
  H   H583      1.0  0.41028  0.52910  0.71890  1.0000
  H   H584      1.0  0.41117  0.53123  0.77227  1.0000
  C   C594      1.0  0.48627  0.45521  0.87532  1.0000
  C   C595      1.0  0.48571  0.44893  0.84698  1.0000
  H   H585      1.0  0.28714  0.66814  0.88865  1.0000
  H   H586      1.0  0.47389  0.45740  0.88725  1.0000
  C   C596      1.0  0.41291  0.51920  0.98591  1.0000
  C   C597      1.0  0.34869  0.38637  0.78831  1.0000
  C   C598      1.0  0.34515  0.38406  0.81764  1.0000
  C   C599      1.0  0.35427  0.39432  0.83840  1.0000
  C   C600      1.0  0.36690  0.40717  0.83023  1.0000
  C   C601      1.0  0.37036  0.40959  0.80088  1.0000
  C   C602      1.0  0.36137  0.39919  0.78012  1.0000
  H   H587      1.0  0.33550  0.37426  0.82437  1.0000
  H   H588      1.0  0.35147  0.39228  0.86100  1.0000
  H   H589      1.0  0.37995  0.41943  0.79414  1.0000
  H   H590      1.0  0.36423  0.40114  0.75753  1.0000
  H   H591      1.0  0.37152  0.50092  0.91533  1.0000
  C   C603      1.0  0.36921  0.51624  0.95473  1.0000
  H   H592      1.0  0.46135  0.40635  0.83601  1.0000
  H   H593      1.0  0.28340  0.65791  0.64986  1.0000
  C   C604      1.0  0.36665  0.59903  0.75961  1.0000
  H   H594      1.0  0.50165  0.44124  0.80990  1.0000
  H   H595      1.0  0.45800  0.51858  0.69400  1.0000
  H   H596      1.0  0.39450  0.60457  0.57639  1.0000
  H   H597      1.0  0.43298  0.46757  0.76571  1.0000
  C   C605      1.0  0.41598  0.39137  0.86696  1.0000
  H   H598      1.0  0.43324  0.47939  0.71593  1.0000
  C   C606      1.0  0.44294  0.48420  0.73138  1.0000
  H   H599      1.0  0.41613  0.46778  0.51251  1.0000
  N   N48       1.0  0.38683  0.57886  0.56070  1.0000
  C   C607      1.0  0.37548  0.56478  0.56391  1.0000
  C   C608      1.0  0.38502  0.59376  0.57791  1.0000
  C   C609      1.0  0.36161  0.56562  0.58430  1.0000
  C   C610      1.0  0.37109  0.59519  0.59811  1.0000
  C   C611      1.0  0.35941  0.58096  0.60146  1.0000
  C   C612      1.0  0.40160  0.57758  0.53980  1.0000
  H   H600      1.0  0.37725  0.55270  0.55091  1.0000
  Fe  Fe109     1.0  0.27592  0.34640  0.77896  1.0000
  H   H601      1.0  0.35285  0.55431  0.58708  1.0000
  H   H602      1.0  0.27038  0.40769  0.67852  1.0000
  H   H603      1.0  0.34893  0.58172  0.61774  1.0000
  H   H604      1.0  0.29481  0.41193  0.71441  1.0000
  H   H605      1.0  0.41380  0.57164  0.55025  1.0000
  C   C613      1.0  0.27426  0.66325  0.88183  1.0000
  H   H606      1.0  0.40543  0.39730  0.82503  1.0000
  C   C614      1.0  0.43460  0.40867  0.79773  1.0000
  N   N49       1.0  0.43343  0.40273  0.82774  1.0000
  H   H607      1.0  0.40478  0.59102  0.53095  1.0000
  H   H608      1.0  0.34203  0.58972  0.77810  1.0000
  C   C615      1.0  0.44762  0.39654  0.87325  1.0000
  C   C616      1.0  0.29595  0.40127  0.69845  1.0000
  C   C617      1.0  0.29920  0.37363  0.65853  1.0000
  H   H609      1.0  0.50321  0.46295  0.91061  1.0000
  C   C618      1.0  0.38264  0.59394  0.74553  1.0000
  H   H610      1.0  0.27338  0.38295  0.64242  1.0000
  H   H611      1.0  0.36297  0.61318  0.76249  1.0000
  H   H612      1.0  0.37607  0.47178  0.94035  1.0000
  C   C619      1.0  0.46743  0.50274  0.74292  1.0000
  C   C620      1.0  0.37546  0.56305  0.74947  1.0000
  N   N50       1.0  0.38675  0.57614  0.74038  1.0000
  C   C621      1.0  0.37395  0.48397  0.95295  1.0000
  C   C622      1.0  0.45523  0.48342  0.77944  1.0000
  C   C623      1.0  0.44280  0.47737  0.75944  1.0000
  C   C624      1.0  0.45495  0.50401  0.69418  1.0000
  C   C625      1.0  0.46774  0.49609  0.77113  1.0000
  C   C626      1.0  0.28395  0.38507  0.65808  1.0000
  C   C627      1.0  0.35483  0.58582  0.76829  1.0000
  H   H613      1.0  0.45523  0.47826  0.80131  1.0000
  H   H614      1.0  0.35016  0.55731  0.77005  1.0000
  H   H615      1.0  0.32332  0.34896  0.67500  1.0000
  H   H616      1.0  0.39137  0.60437  0.73783  1.0000
  C   C628      1.0  0.40319  0.57086  0.72473  1.0000
  C   C629      1.0  0.37141  0.50043  0.93868  1.0000
  H   H617      1.0  0.30034  0.36282  0.64283  1.0000
  C   C630      1.0  0.43119  0.39121  0.88452  1.0000
  C   C631      1.0  0.41510  0.50489  0.96606  1.0000
  H   H618      1.0  0.44161  0.50265  0.68369  1.0000
  H   H619      1.0  0.41026  0.58271  0.71601  1.0000
  H   H620      1.0  0.43017  0.38718  0.90689  1.0000
  C   C632      1.0  0.50293  0.45836  0.88853  1.0000
  Fe  Fe110     1.0  0.31498  0.35338  0.76310  1.0000
  H   H621      1.0  0.47761  0.50070  0.78648  1.0000
  C   C633      1.0  0.27189  0.66159  0.60776  1.0000
  H   H622      1.0  0.39976  0.56237  0.70593  1.0000
  H   H623      1.0  0.47722  0.51256  0.73652  1.0000
  H   H624      1.0  0.42166  0.41503  0.79053  1.0000
  C   C634      1.0  0.41776  0.48724  0.97592  1.0000
  H   H625      1.0  0.32139  0.39127  0.71434  1.0000
  H   H626      1.0  0.28472  0.66033  0.59683  1.0000
  H   H627      1.0  0.46528  0.49671  0.68099  1.0000
  H   H628      1.0  0.41428  0.50748  0.94318  1.0000
  H   H629      1.0  0.28035  0.35183  0.89901  1.0000
  C   C635      1.0  0.35929  0.56769  0.76345  1.0000
  H   H630      1.0  0.40301  0.38758  0.87550  1.0000
  H   H631      1.0  0.43799  0.39699  0.78363  1.0000
  H   H632      1.0  0.45953  0.39667  0.88672  1.0000
  H   H633      1.0  0.44506  0.41899  0.79516  1.0000
  H   H634      1.0  0.39813  0.56878  0.52133  1.0000
  C   C636      1.0  0.32762  0.36289  0.67981  1.0000
  H   H635      1.0  0.26285  0.66437  0.92479  1.0000
  C   C637      1.0  0.41739  0.39708  0.83840  1.0000
  H   H636      1.0  0.33391  0.36240  0.70153  1.0000
  H   H637      1.0  0.28012  0.35405  0.84586  1.0000
  H   H638      1.0  0.26708  0.61908  0.61014  1.0000
  C   C638      1.0  0.36949  0.51542  0.98474  1.0000
  H   H639      1.0  0.38643  0.45693  0.98424  1.0000
  H   H640      1.0  0.36761  0.52914  0.94394  1.0000
  C   C639      1.0  0.41386  0.48146  0.50510  1.0000
  C   C640      1.0  0.26769  0.35160  0.88755  1.0000
  N   N51       1.0  0.37452  0.48333  0.98237  1.0000
  C   C641      1.0  0.26048  0.66113  0.90244  1.0000
  Fe  Fe111     1.0  0.41714  0.97933  0.15729  1.0000
  S   S221      1.0  0.42070  0.95081  0.17255  1.0000
  N   N52       1.0  0.44139  0.95297  0.02867  1.0000
  Fe  Fe112     1.0  0.40886  0.96869  0.09487  1.0000
  S   S222      1.0  0.41132  0.93917  0.10598  1.0000
  S   S223      1.0  0.40056  0.97570  0.04866  1.0000
  Fe  Fe113     1.0  0.39571  0.94543  0.14666  1.0000
  S   S224      1.0  0.36946  0.93439  0.16529  1.0000
  Fe  Fe114     1.0  0.43598  0.94706  0.13088  1.0000
  S   S225      1.0  0.46244  0.93193  0.12292  1.0000
  S   S226      1.0  0.39148  0.97454  0.13359  1.0000
  S   S227      1.0  0.43426  0.97606  0.11749  1.0000
  C   C642      1.0  0.28266  0.88151  0.16497  1.0000
  S   S228      1.0  0.31475  0.71097  0.20674  1.0000
  H   H641      1.0  0.28163  0.83774  0.15399  1.0000
  Fe  Fe115     1.0  0.27546  0.84252  0.22162  1.0000
  S   S229      1.0  0.30070  0.82687  0.21003  1.0000
  N   N53       1.0  0.35657  0.69448  0.24924  1.0000
  Fe  Fe116     1.0  0.28738  0.84962  0.28351  1.0000
  S   S230      1.0  0.31397  0.83518  0.27581  1.0000
  S   S231      1.0  0.28187  0.86095  0.32862  1.0000
  Fe  Fe117     1.0  0.31470  0.84948  0.23298  1.0000
  S   S232      1.0  0.34104  0.85932  0.21332  1.0000
  Fe  Fe118     1.0  0.29788  0.81402  0.25367  1.0000
  S   S233      1.0  0.29959  0.78545  0.27136  1.0000
  S   S234      1.0  0.28941  0.86576  0.24239  1.0000
  H   H642      1.0  0.47328  0.95744  0.07989  1.0000
  C   C643      1.0  0.30948  0.73171  0.22403  1.0000
  C   C644      1.0  0.31276  0.74802  0.20984  1.0000
  C   C645      1.0  0.30936  0.76468  0.22369  1.0000
  C   C646      1.0  0.30295  0.76509  0.25202  1.0000
  C   C647      1.0  0.29969  0.74876  0.26612  1.0000
  C   C648      1.0  0.30276  0.73216  0.25213  1.0000
  H   H643      1.0  0.31802  0.74779  0.18812  1.0000
  H   H644      1.0  0.31204  0.77717  0.21270  1.0000
  H   H645      1.0  0.29477  0.74896  0.28804  1.0000
  H   H646      1.0  0.30017  0.71971  0.26330  1.0000
  C   C649      1.0  0.36206  0.91337  0.17891  1.0000
  C   C650      1.0  0.34455  0.91250  0.19040  1.0000
  C   C651      1.0  0.33800  0.89625  0.20160  1.0000
  C   C652      1.0  0.34882  0.88053  0.20111  1.0000
  C   C653      1.0  0.36630  0.88140  0.18954  1.0000
  C   C654      1.0  0.37293  0.89770  0.17863  1.0000
  H   H647      1.0  0.33598  0.92450  0.19070  1.0000
  H   H648      1.0  0.32460  0.89592  0.21061  1.0000
  H   H649      1.0  0.37482  0.86935  0.18899  1.0000
  H   H650      1.0  0.38641  0.89809  0.16989  1.0000
  C   C655      1.0  0.48292  0.94057  0.13578  1.0000
  H   H651      1.0  0.30432  0.84166  0.37731  1.0000
  C   C656      1.0  0.48318  0.95322  0.15808  1.0000
  N   N54       1.0  0.45593  0.00181  0.28419  1.0000
  H   H652      1.0  0.47065  0.95813  0.16746  1.0000
  C   C657      1.0  0.41670  0.99676  0.47491  1.0000
  C   C658      1.0  0.37103  0.97738  0.20792  1.0000
  C   C659      1.0  0.40971  0.99132  0.02393  1.0000
  C   C660      1.0  0.45562  0.98964  0.26206  1.0000
  H   H653      1.0  0.42006  0.99440  0.45254  1.0000
  C   C661      1.0  0.26586  0.85887  0.38202  1.0000
  H   H654      1.0  0.27455  0.88677  0.09347  1.0000
  C   C662      1.0  0.41538  0.00162  0.22336  1.0000
  C   C663      1.0  0.41306  0.98484  0.23634  1.0000
  H   H655      1.0  0.37265  0.96904  0.18891  1.0000
  S   S235      1.0  0.27135  0.82793  0.26340  1.0000
  H   H656      1.0  0.46388  0.98862  0.00314  1.0000
  S   S236      1.0  0.27792  0.68216  0.24454  1.0000
  H   H657      1.0  0.42365  0.96958  0.48809  1.0000
  C   C664      1.0  0.45799  0.99526  0.23360  1.0000
  H   H658      1.0  0.28159  0.67861  0.38919  1.0000
  N   N55       1.0  0.36875  0.96965  0.23433  1.0000
  N   N56       1.0  0.26454  0.69299  0.09965  1.0000
  C   C665      1.0  0.40320  0.99175  0.99549  1.0000
  H   H659      1.0  0.45698  0.98574  0.21594  1.0000
  H   H660      1.0  0.27186  0.78990  0.31616  1.0000
  H   H661      1.0  0.28396  0.83758  0.10060  1.0000
  H   H662      1.0  0.49924  0.92444  0.10666  1.0000
  C   C666      1.0  0.32833  0.86920  0.13591  1.0000
  H   H663      1.0  0.36515  0.97414  0.27945  1.0000
  H   H664      1.0  0.48153  0.98272  0.04793  1.0000
  C   C667      1.0  0.47040  0.97425  0.04228  1.0000
  H   H665      1.0  0.40777  0.97079  0.27599  1.0000
  H   H666      1.0  0.45299  0.97559  0.26621  1.0000
  C   C668      1.0  0.42369  0.00265  0.03139  1.0000
  C   C669      1.0  0.40969  0.98378  0.26607  1.0000
  H   H667      1.0  0.36873  0.94524  0.25917  1.0000
  C   C670      1.0  0.36666  0.98019  0.25838  1.0000
  H   H668      1.0  0.31962  0.82220  0.37437  1.0000
  H   H669      1.0  0.41381  0.97271  0.22354  1.0000
  C   C671      1.0  0.26347  0.69254  0.06815  1.0000
  H   H670      1.0  0.41863  0.93804  0.04107  1.0000
  H   H671      1.0  0.38054  0.94384  0.22550  1.0000
  H   H672      1.0  0.27604  0.86811  0.38879  1.0000
  H   H673      1.0  0.29754  0.81008  0.31919  1.0000
  H   H674      1.0  0.28466  0.82231  0.40649  1.0000
  H   H675      1.0  0.44506  0.00607  0.32598  1.0000
  C   C672      1.0  0.30078  0.87598  0.16323  1.0000
  H   H676      1.0  0.33161  0.85874  0.15239  1.0000
  H   H677      1.0  0.30800  0.87261  0.18285  1.0000
  C   C673      1.0  0.45319  0.99584  0.31388  1.0000
  C   C674      1.0  0.26365  0.79450  0.36026  1.0000
  H   H678      1.0  0.35634  0.94484  0.22579  1.0000
  H   H679      1.0  0.33212  0.86337  0.11466  1.0000
  Fe  Fe119     1.0  0.30598  0.68524  0.22809  1.0000
  C   C675      1.0  0.36854  0.94996  0.23650  1.0000
  H   H680      1.0  0.44758  0.93855  0.06726  1.0000
  H   H681      1.0  0.31173  0.83428  0.34283  1.0000
  H   H682      1.0  0.29433  0.70090  0.15310  1.0000
  C   C676      1.0  0.40851  0.99947  0.28289  1.0000
  H   H683      1.0  0.26742  0.69458  0.18271  1.0000
  S   S237      1.0  0.40297  0.99788  0.31964  1.0000
  C   C677      1.0  0.49971  0.95899  0.16905  1.0000
  C   C678      1.0  0.36990  0.00693  0.22955  1.0000
  S   S238      1.0  0.41966  0.00362  0.18624  1.0000
  C   C679      1.0  0.35604  0.68842  0.22142  1.0000
  C   C680      1.0  0.28169  0.69781  0.14272  1.0000
  N   N57       1.0  0.30921  0.87452  0.13711  1.0000
  C   C681      1.0  0.36201  0.68315  0.27095  1.0000
  C   C682      1.0  0.42630  0.94153  0.02137  1.0000
  C   C683      1.0  0.45115  0.94949  0.05306  1.0000
  H   H684      1.0  0.36183  0.68777  0.29311  1.0000
  C   C684      1.0  0.46060  0.97748  0.01713  1.0000
  H   H685      1.0  0.33641  0.71237  0.26569  1.0000
  H   H686      1.0  0.35128  0.69723  0.20427  1.0000
  C   C685      1.0  0.28042  0.69709  0.11267  1.0000
  N   N58       1.0  0.29255  0.81743  0.36294  1.0000
  H   H687      1.0  0.30672  0.87755  0.09157  1.0000
  C   C686      1.0  0.35015  0.71281  0.25631  1.0000
  C   C687      1.0  0.30009  0.87870  0.11231  1.0000
  H   H688      1.0  0.33671  0.88109  0.14017  1.0000
  C   C688      1.0  0.30788  0.82939  0.36455  1.0000
  H   H689      1.0  0.29225  0.69970  0.09981  1.0000
  H   H690      1.0  0.49979  0.96834  0.18691  1.0000
  C   C689      1.0  0.28208  0.81498  0.38679  1.0000
  C   C690      1.0  0.46574  0.96011  0.06029  1.0000
  C   C691      1.0  0.27461  0.79683  0.33622  1.0000
  C   C692      1.0  0.36720  0.99897  0.25635  1.0000
  C   C693      1.0  0.49932  0.93427  0.12386  1.0000
  C   C694      1.0  0.44613  0.96655  0.01051  1.0000
  C   C695      1.0  0.28914  0.80833  0.33801  1.0000
  C   C696      1.0  0.27005  0.84145  0.14106  1.0000
  H   H691      1.0  0.35927  0.71925  0.27194  1.0000
  C   C697      1.0  0.28194  0.88418  0.11325  1.0000
  C   C698      1.0  0.27321  0.88559  0.13979  1.0000
  H   H692      1.0  0.42883  0.00251  0.05316  1.0000
  H   H693      1.0  0.34937  0.72157  0.23691  1.0000
  C   C699      1.0  0.37177  0.99610  0.20513  1.0000
  C   C700      1.0  0.27134  0.84138  0.11084  1.0000
  C   C701      1.0  0.26744  0.80353  0.38581  1.0000
  H   H694      1.0  0.43130  0.92900  0.01070  1.0000
  H   H695      1.0  0.41650  0.94872  0.00706  1.0000
  C   C702      1.0  0.26537  0.85322  0.35309  1.0000
  H   H696      1.0  0.44556  0.98319  0.31481  1.0000
  H   H697      1.0  0.37440  0.00209  0.18428  1.0000
  H   H698      1.0  0.27580  0.88209  0.18561  1.0000
  H   H699      1.0  0.27607  0.68679  0.05856  1.0000
  H   H700      1.0  0.36635  0.00723  0.27564  1.0000
  H   H701      1.0  0.46635  0.99395  0.32491  1.0000
  C   C703      1.0  0.26655  0.69440  0.15940  1.0000
  H   H702      1.0  0.26073  0.70630  0.05952  1.0000
  H   H703      1.0  0.26097  0.80429  0.12424  1.0000
  Fe  Fe120     1.0  0.41321  0.97810  0.66011  1.0000
  S   S239      1.0  0.41588  0.95056  0.67973  1.0000
  C   C704      1.0  0.33702  0.86259  0.80093  1.0000
  Fe  Fe121     1.0  0.41399  0.96424  0.59770  1.0000
  S   S240      1.0  0.41642  0.93547  0.61319  1.0000
  S   S241      1.0  0.41654  0.96682  0.54864  1.0000
  Fe  Fe122     1.0  0.39540  0.94264  0.64660  1.0000
  S   S242      1.0  0.36884  0.92820  0.65439  1.0000
  Fe  Fe123     1.0  0.43661  0.94576  0.64487  1.0000
  S   S243      1.0  0.46357  0.93127  0.65139  1.0000
  S   S244      1.0  0.39147  0.97088  0.62877  1.0000
  S   S245      1.0  0.43537  0.97384  0.62758  1.0000
  H   H704      1.0  0.30713  0.88256  0.81121  1.0000
  S   S246      1.0  0.32562  0.70745  0.72419  1.0000
  H   H705      1.0  0.28476  0.85512  0.64944  1.0000
  Fe  Fe124     1.0  0.27707  0.84832  0.71485  1.0000
  S   S247      1.0  0.29946  0.83084  0.69685  1.0000
  H   H706      1.0  0.40443  0.00477  0.55547  1.0000
  Fe  Fe125     1.0  0.28970  0.84382  0.77756  1.0000
  S   S248      1.0  0.31305  0.82584  0.76369  1.0000
  S   S249      1.0  0.28765  0.85221  0.82497  1.0000
  Fe  Fe126     1.0  0.31694  0.84605  0.72777  1.0000
  S   S250      1.0  0.34531  0.85604  0.71864  1.0000
  Fe  Fe127     1.0  0.29354  0.81240  0.73399  1.0000
  S   S251      1.0  0.28410  0.78357  0.72890  1.0000
  S   S252      1.0  0.29476  0.86474  0.74340  1.0000
  H   H707      1.0  0.50413  0.93736  0.59049  1.0000
  C   C705      1.0  0.31400  0.72860  0.72428  1.0000
  C   C706      1.0  0.29527  0.72984  0.72683  1.0000
  C   C707      1.0  0.28642  0.74680  0.72778  1.0000
  C   C708      1.0  0.29617  0.76274  0.72671  1.0000
  C   C709      1.0  0.31491  0.76156  0.72411  1.0000
  C   C710      1.0  0.32376  0.74453  0.72263  1.0000
  H   H708      1.0  0.28759  0.71777  0.72826  1.0000
  H   H709      1.0  0.27009  0.74109  0.81286  1.0000
  H   H710      1.0  0.32255  0.77374  0.72311  1.0000
  H   H711      1.0  0.33826  0.74371  0.72061  1.0000
  C   C711      1.0  0.36276  0.90801  0.67240  1.0000
  C   C712      1.0  0.34446  0.90363  0.67372  1.0000
  C   C713      1.0  0.33888  0.88777  0.68752  1.0000
  C   C714      1.0  0.35159  0.87598  0.70012  1.0000
  C   C715      1.0  0.36989  0.88040  0.69889  1.0000
  C   C716      1.0  0.37546  0.89630  0.68518  1.0000
  H   H712      1.0  0.33447  0.91255  0.66397  1.0000
  H   H713      1.0  0.32476  0.88464  0.68834  1.0000
  H   H714      1.0  0.37986  0.87142  0.70856  1.0000
  H   H715      1.0  0.38958  0.89941  0.68437  1.0000
  C   C717      1.0  0.48359  0.94359  0.65286  1.0000
  C   C718      1.0  0.48307  0.96242  0.65308  1.0000
  C   C719      1.0  0.31684  0.71951  0.79720  1.0000
  H   H716      1.0  0.47031  0.96967  0.65315  1.0000
  Fe  Fe128     1.0  0.31117  0.68134  0.73213  1.0000
  C   C720      1.0  0.27053  0.70397  0.66885  1.0000
  C   C721      1.0  0.35662  0.97512  0.57285  1.0000
  C   C722      1.0  0.41434  0.98539  0.52440  1.0000
  H   H717      1.0  0.33661  0.97117  0.60575  1.0000
  H   H718      1.0  0.44121  0.97481  0.70912  1.0000
  H   H719      1.0  0.34312  0.85348  0.78431  1.0000
  H   H720      1.0  0.31844  0.92550  0.75276  1.0000
  C   C723      1.0  0.28324  0.73493  0.80882  1.0000
  C   C724      1.0  0.30280  0.70910  0.80738  1.0000
  H   H721      1.0  0.30515  0.69473  0.81040  1.0000
  C   C725      1.0  0.40052  0.98944  0.76755  1.0000
  C   C726      1.0  0.40330  0.98893  0.73756  1.0000
  H   H722      1.0  0.39516  0.97785  0.77838  1.0000
  H   H723      1.0  0.40000  0.97704  0.72542  1.0000
  H   H724      1.0  0.30834  0.70346  0.62779  1.0000
  C   C727      1.0  0.46067  0.00844  0.74302  1.0000
  C   C728      1.0  0.28109  0.70652  0.61179  1.0000
  S   S253      1.0  0.28306  0.68132  0.74930  1.0000
  C   C729      1.0  0.45344  0.98291  0.71187  1.0000
  H   H725      1.0  0.26906  0.69470  0.80852  1.0000
  N   N59       1.0  0.36440  0.93845  0.57877  1.0000
  H   H726      1.0  0.28676  0.85269  0.59620  1.0000
  S   S254      1.0  0.27004  0.82927  0.75029  1.0000
  N   N60       1.0  0.49645  0.96414  0.57790  1.0000
  S   S255      1.0  0.40156  0.00486  0.82131  1.0000
  H   H727      1.0  0.32510  0.85566  0.80963  1.0000
  C   C730      1.0  0.27263  0.85549  0.63664  1.0000
  H   H728      1.0  0.35380  0.98948  0.57080  1.0000
  C   C731      1.0  0.29702  0.74576  0.79879  1.0000
  H   H729      1.0  0.39235  0.98309  0.98948  1.0000
  H   H730      1.0  0.37797  0.97476  0.54139  1.0000
  C   C732      1.0  0.41010  0.00391  0.72338  1.0000
  H   H731      1.0  0.44055  0.97006  0.76104  1.0000
  C   C733      1.0  0.31395  0.73798  0.79317  1.0000
  C   C734      1.0  0.40480  0.00478  0.78358  1.0000
  H   H732      1.0  0.46555  0.97391  0.70967  1.0000
  H   H733      1.0  0.47341  0.92578  0.58621  1.0000
  C   C735      1.0  0.35102  0.94643  0.59501  1.0000
  C   C736      1.0  0.49914  0.97194  0.65323  1.0000
  C   C737      1.0  0.46190  0.95118  0.57199  1.0000
  H   H734      1.0  0.38503  0.94229  0.54753  1.0000
  C   C738      1.0  0.27212  0.85322  0.87900  1.0000
  C   C739      1.0  0.40789  0.00242  0.53313  1.0000
  C   C740      1.0  0.37019  0.96688  0.55636  1.0000
  C   C741      1.0  0.50037  0.93438  0.65282  1.0000
  H   H735      1.0  0.37070  0.91251  0.56119  1.0000
  H   H736      1.0  0.27525  0.81432  0.63614  1.0000
  H   H737      1.0  0.29450  0.76002  0.79468  1.0000
  H   H738      1.0  0.38169  0.91770  0.59489  1.0000
  S   S256      1.0  0.41415  0.00389  0.68595  1.0000
  H   H739      1.0  0.34365  0.93863  0.61062  1.0000
  C   C742      1.0  0.45399  0.00821  0.79382  1.0000
  H   H740      1.0  0.44837  0.94618  0.57008  1.0000
  H   H741      1.0  0.45426  0.97821  0.55944  1.0000
  C   C743      1.0  0.36901  0.91925  0.58240  1.0000
  C   C744      1.0  0.46523  0.96920  0.56613  1.0000
  H   H742      1.0  0.32464  0.74615  0.78479  1.0000
  H   H743      1.0  0.43835  0.96941  0.99123  1.0000
  H   H744      1.0  0.28368  0.86088  0.88508  1.0000
  H   H745      1.0  0.50089  0.91980  0.65272  1.0000
  H   H746      1.0  0.27617  0.69912  0.84476  1.0000
  C   C745      1.0  0.44654  0.98314  0.76345  1.0000
  H   H747      1.0  0.35843  0.91213  0.59454  1.0000
  C   C746      1.0  0.47600  0.93968  0.58069  1.0000
  C   C747      1.0  0.26174  0.81207  0.62837  1.0000
  N   N61       1.0  0.26319  0.70741  0.61873  1.0000
  H   H748      1.0  0.45317  0.99290  0.69404  1.0000
  H   H749      1.0  0.34678  0.86446  0.81864  1.0000
  H   H750      1.0  0.27192  0.74761  0.72977  1.0000
  C   C748      1.0  0.34697  0.96487  0.59237  1.0000
  H   H751      1.0  0.32976  0.71321  0.79174  1.0000
  H   H752      1.0  0.44063  0.98466  0.80901  1.0000
  C   C749      1.0  0.28879  0.70303  0.66196  1.0000
  C   C750      1.0  0.37407  0.94845  0.55983  1.0000
  N   N62       1.0  0.28629  0.71686  0.81321  1.0000
  C   C751      1.0  0.27374  0.85423  0.60647  1.0000
  C   C752      1.0  0.44668  0.99123  0.79065  1.0000
  C   C753      1.0  0.48269  0.97552  0.56932  1.0000
  N   N63       1.0  0.33195  0.88006  0.78820  1.0000
  C   C754      1.0  0.31611  0.88861  0.79580  1.0000
  C   C755      1.0  0.34344  0.88795  0.76929  1.0000
  C   C756      1.0  0.31099  0.90506  0.78317  1.0000
  C   C757      1.0  0.33878  0.90440  0.75630  1.0000
  C   C758      1.0  0.32236  0.91291  0.76312  1.0000
  H   H753      1.0  0.26330  0.81944  0.68312  1.0000
  H   H754      1.0  0.29814  0.91148  0.78864  1.0000
  H   H755      1.0  0.35606  0.88122  0.76344  1.0000
  N   N64       1.0  0.45333  0.99183  0.74003  1.0000
  H   H756      1.0  0.34769  0.91026  0.74053  1.0000
  H   H757      1.0  0.49857  0.98652  0.65338  1.0000
  H   H758      1.0  0.26620  0.70253  0.69103  1.0000
  C   C759      1.0  0.27192  0.70558  0.82418  1.0000
  H   H759      1.0  0.28533  0.70732  0.58949  1.0000
  H   H760      1.0  0.29879  0.70121  0.67879  1.0000
  C   C760      1.0  0.41064  0.00321  0.97465  1.0000
  H   H761      1.0  0.26979  0.81262  0.58362  1.0000
  C   C761      1.0  0.29415  0.70429  0.63328  1.0000
  C   C762      1.0  0.27053  0.84708  0.85042  1.0000
  C   C763      1.0  0.41872  0.98269  0.49519  1.0000
  H   H762      1.0  0.40553  0.00330  0.95287  1.0000
  C   C764      1.0  0.49332  0.94638  0.58332  1.0000
  H   H763      1.0  0.48514  0.98959  0.56502  1.0000
  H   H764      1.0  0.26023  0.85445  0.92164  1.0000
  Fe  Fe129     1.0  0.72066  0.15646  0.22230  1.0000
  S   S257      1.0  0.69683  0.17473  0.23248  1.0000
  S   S258      1.0  0.72471  0.14725  0.17559  1.0000
  Fe  Fe130     1.0  0.73266  0.15646  0.28562  1.0000
  S   S259      1.0  0.71026  0.17528  0.29960  1.0000
  H   H765      1.0  0.72807  0.22080  0.31778  1.0000
  Fe  Fe131     1.0  0.69303  0.15745  0.27206  1.0000
  S   S260      1.0  0.66538  0.14941  0.28897  1.0000
  Fe  Fe132     1.0  0.71608  0.19059  0.25909  1.0000
  S   S261      1.0  0.72403  0.21958  0.25164  1.0000
  S   S262      1.0  0.71536  0.13793  0.25995  1.0000
  S   S263      1.0  0.74000  0.17293  0.24713  1.0000
  Fe  Fe133     1.0  0.70256  0.32250  0.27158  1.0000
  S   S264      1.0  0.73065  0.32354  0.25450  1.0000
  S   S265      1.0  0.69106  0.29641  0.28840  1.0000
  H   H766      1.0  0.75108  0.20311  0.29083  1.0000
  Fe  Fe134     1.0  0.57418  0.05934  0.37098  1.0000
  S   S266      1.0  0.57659  0.03113  0.38775  1.0000
  S   S267      1.0  0.54691  0.07390  0.37137  1.0000
  Fe  Fe135     1.0  0.61507  0.06237  0.36024  1.0000
  S   S268      1.0  0.62005  0.03413  0.37723  1.0000
  S   S269      1.0  0.64110  0.07446  0.34262  1.0000
  Fe  Fe136     1.0  0.59596  0.02703  0.35082  1.0000
  C   C765      1.0  0.73897  0.21395  0.32927  1.0000
  Fe  Fe137     1.0  0.60033  0.04073  0.41278  1.0000
  S   S270      1.0  0.60331  0.03785  0.46176  1.0000
  S   S271      1.0  0.59185  0.05462  0.33207  1.0000
  S   S272      1.0  0.59701  0.06959  0.39783  1.0000
  C   C766      1.0  0.59761  0.01953  0.27154  1.0000
  C   C767      1.0  0.73212  0.31408  0.34336  1.0000
  H   H767      1.0  0.73678  0.20145  0.19569  1.0000
  H   H768      1.0  0.72641  0.30055  0.34013  1.0000
  C   C768      1.0  0.70960  0.11031  0.35297  1.0000
  H   H769      1.0  0.72225  0.32279  0.35526  1.0000
  H   H770      1.0  0.72993  0.22264  0.37129  1.0000
  H   H771      1.0  0.59581  0.03190  0.28347  1.0000
  H   H772      1.0  0.56660  0.03326  0.46487  1.0000
  C   C769      1.0  0.52696  0.06184  0.36590  1.0000
  C   C770      1.0  0.52757  0.04352  0.35884  1.0000
  C   C771      1.0  0.60867  0.01642  0.01458  1.0000
  H   H773      1.0  0.54041  0.03662  0.35563  1.0000
  C   C772      1.0  0.65826  0.12790  0.30094  1.0000
  C   C773      1.0  0.66992  0.11278  0.30160  1.0000
  C   C774      1.0  0.66423  0.09649  0.31381  1.0000
  C   C775      1.0  0.64682  0.09499  0.32543  1.0000
  C   C776      1.0  0.63497  0.10992  0.32395  1.0000
  C   C777      1.0  0.64068  0.12625  0.31178  1.0000
  H   H774      1.0  0.68344  0.11375  0.29321  1.0000
  H   H775      1.0  0.67352  0.08503  0.31470  1.0000
  H   H776      1.0  0.62152  0.10902  0.33265  1.0000
  H   H777      1.0  0.63149  0.13780  0.31126  1.0000
  C   C778      1.0  0.71420  0.24059  0.26205  1.0000
  C   C779      1.0  0.69924  0.24205  0.28028  1.0000
  C   C780      1.0  0.69224  0.25923  0.28817  1.0000
  C   C781      1.0  0.70004  0.27502  0.27776  1.0000
  C   C782      1.0  0.71489  0.27346  0.25936  1.0000
  C   C783      1.0  0.72195  0.25636  0.25167  1.0000
  H   H778      1.0  0.69310  0.23003  0.28838  1.0000
  H   H779      1.0  0.68071  0.26032  0.30236  1.0000
  H   H780      1.0  0.72097  0.28543  0.25101  1.0000
  H   H781      1.0  0.73353  0.25539  0.23756  1.0000
  S   S273      1.0  0.72409  0.33543  0.17223  1.0000
  C   C784      1.0  0.69191  0.13798  0.35032  1.0000
  H   H782      1.0  0.66196  0.19185  0.17182  1.0000
  C   C785      1.0  0.74092  0.15412  0.14972  1.0000
  H   H783      1.0  0.55936  0.07686  0.43214  1.0000
  H   H784      1.0  0.68570  0.17348  0.14649  1.0000
  H   H785      1.0  0.63372  0.06323  0.24868  1.0000
  H   H786      1.0  0.73046  0.13705  0.11647  1.0000
  N   N65       1.0  0.63936  0.03913  0.27287  1.0000
  H   H787      1.0  0.65880  0.15080  0.35471  1.0000
  C   C786      1.0  0.63713  0.05877  0.27087  1.0000
  C   C787      1.0  0.73944  0.16722  0.39357  1.0000
  C   C788      1.0  0.73913  0.16181  0.36461  1.0000
  H   H788      1.0  0.72797  0.17447  0.40269  1.0000
  H   H789      1.0  0.72744  0.16491  0.35169  1.0000
  C   C789      1.0  0.74031  0.14702  0.12163  1.0000
  N   N66       1.0  0.71170  0.20558  0.17509  1.0000
  C   C790      1.0  0.70705  0.19074  0.15962  1.0000
  C   C791      1.0  0.69881  0.21572  0.18922  1.0000
  C   C792      1.0  0.68913  0.18562  0.15808  1.0000
  C   C793      1.0  0.68071  0.21108  0.18798  1.0000
  C   C794      1.0  0.67588  0.19588  0.17237  1.0000
  C   C795      1.0  0.73075  0.20980  0.17816  1.0000
  H   H790      1.0  0.71726  0.18256  0.14875  1.0000
  H   H791      1.0  0.70250  0.22730  0.20198  1.0000
  C   C796      1.0  0.63923  0.03112  0.29937  1.0000
  S   S274      1.0  0.75498  0.17204  0.44613  1.0000
  H   H792      1.0  0.57404  0.06335  0.45413  1.0000
  H   H793      1.0  0.51683  0.01245  0.43445  1.0000
  C   C797      1.0  0.75396  0.15255  0.35262  1.0000
  H   H794      1.0  0.55229  0.02656  0.24736  1.0000
  H   H795      1.0  0.64971  0.06527  0.27773  1.0000
  H   H796      1.0  0.66359  0.14796  0.39269  1.0000
  H   H797      1.0  0.55422  0.01704  0.29835  1.0000
  C   C798      1.0  0.66187  0.14078  0.37195  1.0000
  C   C799      1.0  0.59948  0.02008  0.24145  1.0000
  C   C800      1.0  0.55977  0.06784  0.45125  1.0000
  H   H798      1.0  0.55544  0.07558  0.47060  1.0000
  N   N67       1.0  0.67823  0.13016  0.36507  1.0000
  H   H799      1.0  0.63732  0.03920  0.31864  1.0000
  S   S275      1.0  0.75435  0.14620  0.31600  1.0000
  H   H800      1.0  0.71840  0.13423  0.33163  1.0000
  H   H801      1.0  0.66909  0.10642  0.38576  1.0000
  H   H802      1.0  0.65000  0.13203  0.37341  1.0000
  C   C801      1.0  0.75430  0.20630  0.37353  1.0000
  H   H803      1.0  0.62603  0.06367  0.28522  1.0000
  H   H804      1.0  0.69686  0.08856  0.37521  1.0000
  H   H805      1.0  0.75901  0.25341  0.99928  1.0000
  C   C802      1.0  0.74957  0.31299  0.38819  1.0000
  H   H806      1.0  0.52689  0.06894  0.42897  1.0000
  C   C803      1.0  0.55352  0.03558  0.45513  1.0000
  H   H807      1.0  0.64186  0.03520  0.22744  1.0000
  H   H808      1.0  0.73394  0.32042  0.32194  1.0000
  H   H809      1.0  0.67060  0.21898  0.19965  1.0000
  H   H810      1.0  0.69044  0.15177  0.34284  1.0000
  H   H811      1.0  0.59923  0.03292  0.23044  1.0000
  C   C804      1.0  0.60159  0.01928  0.48591  1.0000
  C   C805      1.0  0.55309  0.01231  0.25243  1.0000
  C   C806      1.0  0.70772  0.12814  0.34385  1.0000
  H   H812      1.0  0.61824  0.02636  0.02105  1.0000
  N   N68       1.0  0.54802  0.05254  0.44689  1.0000
  H   H813      1.0  0.75445  0.17256  0.17745  1.0000
  C   C807      1.0  0.53126  0.05548  0.43547  1.0000
  C   C808      1.0  0.68000  0.11271  0.37432  1.0000
  C   C809      1.0  0.54247  0.02088  0.45070  1.0000
  C   C810      1.0  0.69567  0.10250  0.36832  1.0000
  H   H814      1.0  0.72181  0.10258  0.34797  1.0000
  C   C811      1.0  0.75231  0.15269  0.10005  1.0000
  C   C812      1.0  0.75469  0.16372  0.41063  1.0000
  H   H815      1.0  0.73248  0.22420  0.18380  1.0000
  C   C813      1.0  0.64191  0.02895  0.24854  1.0000
  C   C814      1.0  0.74008  0.21506  0.35921  1.0000
  Fe  Fe138     1.0  0.71930  0.34181  0.22005  1.0000
  S   S276      1.0  0.69065  0.33933  0.23569  1.0000
  H   H816      1.0  0.73722  0.31519  0.40029  1.0000
  H   H817      1.0  0.75165  0.14706  0.07860  1.0000
  H   H818      1.0  0.73827  0.20694  0.15789  1.0000
  H   H819      1.0  0.73179  0.32281  0.11515  1.0000
  N   N69       1.0  0.74931  0.31255  0.35874  1.0000
  C   C815      1.0  0.52551  0.02371  0.43840  1.0000
  C   C816      1.0  0.75203  0.20386  0.31410  1.0000
  C   C817      1.0  0.74079  0.33371  0.11936  1.0000
  C   C818      1.0  0.51976  0.04113  0.43106  1.0000
  H   H820      1.0  0.54579  0.01866  0.19820  1.0000
  C   C819      1.0  0.75370  0.16706  0.15596  1.0000
  C   C820      1.0  0.75289  0.33899  0.09770  1.0000
  H   H821      1.0  0.75309  0.33220  0.07710  1.0000
  C   C821      1.0  0.51151  0.03406  0.35604  1.0000
  H   H822      1.0  0.51213  0.01989  0.35061  1.0000
  C   C822      1.0  0.64113  0.01240  0.30198  1.0000
  H   H823      1.0  0.65794  0.33685  0.16824  1.0000
  C   C823      1.0  0.74020  0.34238  0.14633  1.0000
  H   H824      1.0  0.75520  0.20679  0.39687  1.0000
  H   H825      1.0  0.68851  0.34224  0.14882  1.0000
  C   C824      1.0  0.51014  0.07059  0.37005  1.0000
  Fe  Fe139     1.0  0.71887  0.15804  0.72165  1.0000
  S   S277      1.0  0.69612  0.17672  0.73626  1.0000
  S   S278      1.0  0.72138  0.15024  0.67406  1.0000
  Fe  Fe140     1.0  0.73167  0.15234  0.78375  1.0000
  S   S279      1.0  0.71007  0.17039  0.80232  1.0000
  S   S280      1.0  0.70805  0.33715  0.79457  1.0000
  Fe  Fe141     1.0  0.69181  0.15627  0.77163  1.0000
  S   S281      1.0  0.66379  0.14779  0.78590  1.0000
  Fe  Fe142     1.0  0.71650  0.18902  0.76582  1.0000
  S   S282      1.0  0.72595  0.21707  0.77716  1.0000
  S   S283      1.0  0.71314  0.13687  0.75523  1.0000
  S   S284      1.0  0.73937  0.17154  0.74891  1.0000
  Fe  Fe143     1.0  0.70412  0.31928  0.75582  1.0000
  S   S285      1.0  0.73275  0.31964  0.74046  1.0000
  S   S286      1.0  0.68809  0.29370  0.75397  1.0000
  H   H826      1.0  0.56699  0.02882  0.71695  1.0000
  Fe  Fe144     1.0  0.57627  0.05972  0.87733  1.0000
  S   S287      1.0  0.57803  0.03086  0.89136  1.0000
  S   S288      1.0  0.54972  0.07520  0.88242  1.0000
  Fe  Fe145     1.0  0.61653  0.06133  0.86242  1.0000
  S   S289      1.0  0.62100  0.03232  0.87583  1.0000
  S   S290      1.0  0.64258  0.07417  0.84664  1.0000
  Fe  Fe146     1.0  0.59544  0.02730  0.85191  1.0000
  H   H827      1.0  0.62913  0.10054  0.75311  1.0000
  Fe  Fe147     1.0  0.60333  0.03836  0.91429  1.0000
  S   S291      1.0  0.61157  0.03172  0.96076  1.0000
  S   S292      1.0  0.59183  0.05571  0.83601  1.0000
  S   S293      1.0  0.60064  0.06783  0.90266  1.0000
  C   C825      1.0  0.64506  0.06924  0.76836  1.0000
  C   C826      1.0  0.60945  0.01956  0.74536  1.0000
  C   C827      1.0  0.74773  0.14701  0.90963  1.0000
  H   H828      1.0  0.54254  0.04453  0.84546  1.0000
  H   H829      1.0  0.60210  0.03635  0.52346  1.0000
  C   C828      1.0  0.52204  0.05751  0.94605  1.0000
  H   H830      1.0  0.63250  0.07325  0.78005  1.0000
  C   C829      1.0  0.51355  0.04385  0.84166  1.0000
  H   H831      1.0  0.60736  0.03099  0.78812  1.0000
  C   C830      1.0  0.52958  0.06603  0.86944  1.0000
  H   H832      1.0  0.69441  0.09839  0.73267  1.0000
  H   H833      1.0  0.61424  0.03177  0.73568  1.0000
  C   C831      1.0  0.74456  0.28649  0.67836  1.0000
  C   C832      1.0  0.65811  0.12721  0.80264  1.0000
  C   C833      1.0  0.67106  0.11374  0.80868  1.0000
  C   C834      1.0  0.66597  0.09760  0.82199  1.0000
  C   C835      1.0  0.64791  0.09467  0.82932  1.0000
  C   C836      1.0  0.63492  0.10807  0.82308  1.0000
  C   C837      1.0  0.64004  0.12428  0.80990  1.0000
  H   H834      1.0  0.68500  0.11576  0.80313  1.0000
  H   H835      1.0  0.67613  0.08732  0.82677  1.0000
  H   H836      1.0  0.62099  0.10603  0.82865  1.0000
  H   H837      1.0  0.62990  0.13461  0.80527  1.0000
  C   C838      1.0  0.71494  0.23813  0.77069  1.0000
  C   C839      1.0  0.72431  0.25396  0.77624  1.0000
  C   C840      1.0  0.71619  0.27104  0.77147  1.0000
  C   C841      1.0  0.69850  0.27247  0.76140  1.0000
  C   C842      1.0  0.68909  0.25665  0.75590  1.0000
  C   C843      1.0  0.69731  0.23953  0.76034  1.0000
  H   H838      1.0  0.73795  0.25301  0.78428  1.0000
  H   H839      1.0  0.72360  0.28310  0.77572  1.0000
  H   H840      1.0  0.67541  0.25763  0.74807  1.0000
  H   H841      1.0  0.68995  0.22745  0.75604  1.0000
  C   C844      1.0  0.74119  0.33054  0.88575  1.0000
  H   H842      1.0  0.73322  0.19046  0.85768  1.0000
  C   C845      1.0  0.70995  0.27702  0.69315  1.0000
  C   C846      1.0  0.73915  0.15550  0.64991  1.0000
  C   C847      1.0  0.73718  0.15191  0.62031  1.0000
  C   C848      1.0  0.75540  0.33540  0.90375  1.0000
  C   C849      1.0  0.72976  0.29788  0.67228  1.0000
  H   H843      1.0  0.72474  0.14641  0.61261  1.0000
  H   H844      1.0  0.75708  0.16542  0.68217  1.0000
  C   C850      1.0  0.75907  0.18964  0.81746  1.0000
  C   C851      1.0  0.60556  0.01914  0.77503  1.0000
  C   C852      1.0  0.73250  0.14849  0.89192  1.0000
  C   C853      1.0  0.73415  0.14650  0.86193  1.0000
  H   H845      1.0  0.71947  0.15144  0.90144  1.0000
  H   H846      1.0  0.72240  0.14759  0.84844  1.0000
  C   C854      1.0  0.68003  0.09883  0.73685  1.0000
  H   H847      1.0  0.69646  0.27328  0.69922  1.0000
  C   C855      1.0  0.66982  0.11429  0.73015  1.0000
  C   C856      1.0  0.75103  0.14285  0.84955  1.0000
  S   S294      1.0  0.75367  0.14061  0.81206  1.0000
  H   H848      1.0  0.60040  0.01126  0.55867  1.0000
  C   C857      1.0  0.69741  0.30541  0.67413  1.0000
  H   H849      1.0  0.52691  0.06911  0.95758  1.0000
  C   C858      1.0  0.52793  0.03080  0.91764  1.0000
  C   C859      1.0  0.60134  0.02264  0.51575  1.0000
  C   C860      1.0  0.74184  0.27012  0.69224  1.0000
  H   H850      1.0  0.65404  0.06278  0.78474  1.0000
  H   H851      1.0  0.72876  0.32603  0.89510  1.0000
  H   H852      1.0  0.72212  0.25258  0.71036  1.0000
  H   H853      1.0  0.70170  0.31952  0.67103  1.0000
  C   C861      1.0  0.67163  0.08411  0.74938  1.0000
  C   C862      1.0  0.75111  0.15546  0.60053  1.0000
  H   H854      1.0  0.73195  0.31053  0.66143  1.0000
  N   N70       1.0  0.65358  0.08486  0.75532  1.0000
  C   C863      1.0  0.53427  0.04530  0.93343  1.0000
  C   C864      1.0  0.74886  0.19102  0.89649  1.0000
  H   H855      1.0  0.67966  0.07217  0.75474  1.0000
  C   C865      1.0  0.52981  0.05080  0.85169  1.0000
  C   C866      1.0  0.75530  0.16263  0.65951  1.0000
  H   H856      1.0  0.69048  0.30095  0.65435  1.0000
  S   S295      1.0  0.75198  0.33554  0.94131  1.0000
  C   C867      1.0  0.72442  0.26525  0.69945  1.0000
  H   H857      1.0  0.68775  0.30560  0.69246  1.0000
  H   H858      1.0  0.75318  0.26121  0.69745  1.0000
  S   S296      1.0  0.74538  0.15060  0.94696  1.0000
  C   C868      1.0  0.65138  0.11481  0.73573  1.0000
  C   C869      1.0  0.64341  0.09985  0.74828  1.0000
  H   H859      1.0  0.51384  0.03223  0.82759  1.0000
  H   H860      1.0  0.57324  0.04141  0.76402  1.0000
  Fe  Fe148     1.0  0.73617  0.33919  0.77724  1.0000
  H   H861      1.0  0.51271  0.08587  0.89106  1.0000
  N   N71       1.0  0.67452  0.13142  0.87417  1.0000
  C   C870      1.0  0.65681  0.12831  0.87996  1.0000
  C   C871      1.0  0.68762  0.11900  0.88168  1.0000
  C   C872      1.0  0.65180  0.11221  0.89299  1.0000
  C   C873      1.0  0.68307  0.10273  0.89464  1.0000
  C   C874      1.0  0.66502  0.09929  0.90010  1.0000
  C   C875      1.0  0.67968  0.14811  0.85990  1.0000
  H   H862      1.0  0.64638  0.13801  0.87369  1.0000
  H   H863      1.0  0.70166  0.12151  0.87723  1.0000
  H   H864      1.0  0.63771  0.10940  0.89650  1.0000
  H   H865      1.0  0.69342  0.09272  0.90003  1.0000
  H   H866      1.0  0.66119  0.08648  0.90921  1.0000
  H   H867      1.0  0.68850  0.14495  0.84112  1.0000
  H   H868      1.0  0.66782  0.15579  0.85124  1.0000
  H   H869      1.0  0.68692  0.15684  0.87518  1.0000
  N   N72       1.0  0.71279  0.29327  0.68032  1.0000
  H   H870      1.0  0.56704  0.02988  0.79599  1.0000
  C   C876      1.0  0.51296  0.07404  0.87743  1.0000
  N   N73       1.0  0.55981  0.01675  0.75692  1.0000
  H   H871      1.0  0.74934  0.15266  0.57788  1.0000
  H   H872      1.0  0.73182  0.32784  0.84211  1.0000
  C   C877      1.0  0.74284  0.33171  0.85569  1.0000
  H   H873      1.0  0.67622  0.12600  0.72108  1.0000
  H   H874      1.0  0.54863  0.04743  0.93507  1.0000
  C   C878      1.0  0.60269  0.01609  0.98582  1.0000
  C   C879      1.0  0.56255  0.03318  0.77372  1.0000
  H   H875      1.0  0.64184  0.05918  0.75155  1.0000
  S   S297      1.0  0.69476  0.34242  0.72772  1.0000
  C   C880      1.0  0.74670  0.19057  0.86657  1.0000
  H   H876      1.0  0.54982  0.04132  0.77495  1.0000
  H   H877      1.0  0.64346  0.12699  0.73130  1.0000
  H   H878      1.0  0.73725  0.19092  0.91065  1.0000
  C   C881      1.0  0.75873  0.33773  0.84336  1.0000
  H   H879      1.0  0.53738  0.02157  0.90707  1.0000
  H   H880      1.0  0.75802  0.29047  0.67250  1.0000
  C   C882      1.0  0.74553  0.34345  0.64157  1.0000
  C   C883      1.0  0.56211  0.01694  0.72768  1.0000
  H   H881      1.0  0.74503  0.18677  0.81131  1.0000
  C   C884      1.0  0.75712  0.34408  0.59204  1.0000
  Fe  Fe149     1.0  0.72387  0.34378  0.71436  1.0000
  Fe  Fe150     1.0  0.69555  0.36342  0.26402  1.0000
  S   S298      1.0  0.72352  0.36700  0.24584  1.0000
  S   S299      1.0  0.67814  0.38953  0.26523  1.0000
  H   H882      1.0  0.64535  0.56966  0.20119  1.0000
  H   H883      1.0  0.55602  0.51438  0.17958  1.0000
  C   C885      1.0  0.64469  0.53054  0.27816  1.0000
  C   C886      1.0  0.57129  0.48018  0.01295  1.0000
  H   H884      1.0  0.56449  0.48509  0.26785  1.0000
  Fe  Fe151     1.0  0.59669  0.48566  0.33644  1.0000
  S   S300      1.0  0.58302  0.46247  0.31568  1.0000
  S   S301      1.0  0.60593  0.50929  0.31002  1.0000
  Fe  Fe152     1.0  0.58991  0.47240  0.39794  1.0000
  S   S302      1.0  0.57545  0.44823  0.38100  1.0000
  S   S303      1.0  0.59191  0.47339  0.44722  1.0000
  Fe  Fe153     1.0  0.59810  0.44558  0.34847  1.0000
  S   S304      1.0  0.61106  0.41747  0.34175  1.0000
  Fe  Fe154     1.0  0.56175  0.46716  0.34964  1.0000
  S   S305      1.0  0.53274  0.47403  0.33685  1.0000
  S   S306      1.0  0.61330  0.46863  0.36724  1.0000
  S   S307      1.0  0.57477  0.49140  0.36870  1.0000
  Fe  Fe155     1.0  0.73452  0.65404  0.20600  1.0000
  H   H885      1.0  0.72883  0.35932  0.34769  1.0000
  H   H886      1.0  0.63942  0.51337  0.18295  1.0000
  H   H887      1.0  0.57348  0.48591  0.03411  1.0000
  H   H888      1.0  0.60439  0.56705  0.01040  1.0000
  S   S308      1.0  0.72496  0.65337  0.31720  1.0000
  Fe  Fe156     1.0  0.69454  0.65480  0.21985  1.0000
  S   S309      1.0  0.66621  0.64429  0.21156  1.0000
  S   S310      1.0  0.71767  0.63730  0.23568  1.0000
  Fe  Fe157     1.0  0.61218  0.56418  0.13016  1.0000
  S   S311      1.0  0.61600  0.53568  0.11358  1.0000
  S   S312      1.0  0.63902  0.57843  0.13481  1.0000
  Fe  Fe158     1.0  0.57099  0.56030  0.13245  1.0000
  S   S313      1.0  0.57220  0.53179  0.11682  1.0000
  S   S314      1.0  0.54430  0.57475  0.14176  1.0000
  Fe  Fe159     1.0  0.59555  0.52883  0.14727  1.0000
  S   S315      1.0  0.59871  0.50377  0.17449  1.0000
  Fe  Fe160     1.0  0.59237  0.54121  0.08443  1.0000
  S   S316      1.0  0.58796  0.53645  0.03623  1.0000
  S   S317      1.0  0.59303  0.55676  0.16547  1.0000
  S   S318      1.0  0.58990  0.57028  0.09844  1.0000
  C   C887      1.0  0.52351  0.54438  0.14220  1.0000
  C   C888      1.0  0.52376  0.56320  0.14149  1.0000
  C   C889      1.0  0.64647  0.43442  0.39120  1.0000
  H   H889      1.0  0.53600  0.53662  0.14250  1.0000
  C   C890      1.0  0.55754  0.49770  0.27531  1.0000
  C   C891      1.0  0.65905  0.62567  0.19048  1.0000
  C   C892      1.0  0.64077  0.62110  0.19098  1.0000
  C   C893      1.0  0.63438  0.60667  0.17432  1.0000
  C   C894      1.0  0.64622  0.59667  0.15669  1.0000
  C   C895      1.0  0.66450  0.60116  0.15627  1.0000
  C   C896      1.0  0.67090  0.61550  0.17309  1.0000
  H   H890      1.0  0.63146  0.62887  0.20429  1.0000
  H   H891      1.0  0.62029  0.60346  0.17493  1.0000
  H   H892      1.0  0.67384  0.59353  0.14282  1.0000
  H   H893      1.0  0.68498  0.61880  0.17242  1.0000
  H   H894      1.0  0.62511  0.48360  0.00489  1.0000
  H   H895      1.0  0.64260  0.43638  0.36827  1.0000
  C   C897      1.0  0.75778  0.64760  0.14095  1.0000
  C   C898      1.0  0.59625  0.51988  0.01155  1.0000
  C   C899      1.0  0.60909  0.50664  0.01926  1.0000
  H   H896      1.0  0.61298  0.38468  0.41058  1.0000
  S   S319      1.0  0.71124  0.67027  0.18816  1.0000
  C   C900      1.0  0.64255  0.54194  0.18864  1.0000
  H   H897      1.0  0.61432  0.50625  0.04097  1.0000
  C   C901      1.0  0.60562  0.42703  0.43657  1.0000
  C   C902      1.0  0.60316  0.50757  0.27255  1.0000
  C   C903      1.0  0.60074  0.52329  0.25618  1.0000
  C   C904      1.0  0.59914  0.52230  0.22611  1.0000
  C   C905      1.0  0.60013  0.50558  0.21221  1.0000
  C   C906      1.0  0.60242  0.48986  0.22864  1.0000
  C   C907      1.0  0.60392  0.49084  0.25872  1.0000
  H   H898      1.0  0.60011  0.53628  0.26678  1.0000
  H   H899      1.0  0.59735  0.53449  0.21379  1.0000
  H   H900      1.0  0.60323  0.47687  0.21804  1.0000
  H   H901      1.0  0.60611  0.47866  0.27111  1.0000
  N   N74       1.0  0.62618  0.56810  0.04019  1.0000
  S   S320      1.0  0.75806  0.64405  0.17857  1.0000
  H   H902      1.0  0.65912  0.38748  0.21267  1.0000
  H   H903      1.0  0.52723  0.43661  0.35440  1.0000
  H   H904      1.0  0.60742  0.61556  0.06030  1.0000
  C   C908      1.0  0.65994  0.39709  0.28769  1.0000
  C   C909      1.0  0.65376  0.41516  0.28564  1.0000
  C   C910      1.0  0.63901  0.42170  0.30219  1.0000
  C   C911      1.0  0.63004  0.41016  0.32078  1.0000
  C   C912      1.0  0.63624  0.39211  0.32293  1.0000
  C   C913      1.0  0.65114  0.38562  0.30664  1.0000
  H   H905      1.0  0.66042  0.42418  0.27106  1.0000
  H   H906      1.0  0.63442  0.43560  0.30020  1.0000
  H   H907      1.0  0.62937  0.38299  0.33706  1.0000
  H   H908      1.0  0.65562  0.37168  0.30840  1.0000
  C   C914      1.0  0.58106  0.46482  0.00415  1.0000
  H   H909      1.0  0.63351  0.53796  0.28936  1.0000
  C   C915      1.0  0.60438  0.59221  0.03322  1.0000
  H   H910      1.0  0.64329  0.35968  0.20061  1.0000
  C   C916      1.0  0.69196  0.39680  0.19541  1.0000
  C   C917      1.0  0.64522  0.55175  0.23793  1.0000
  S   S321      1.0  0.70505  0.34639  0.30136  1.0000
  C   C918      1.0  0.64450  0.55582  0.20854  1.0000
  C   C919      1.0  0.60304  0.40870  0.43213  1.0000
  C   C920      1.0  0.64238  0.52060  0.22776  1.0000
  H   H911      1.0  0.55216  0.50083  0.00050  1.0000
  C   C921      1.0  0.74060  0.65439  0.37090  1.0000
  H   H912      1.0  0.70411  0.36996  0.16197  1.0000
  C   C922      1.0  0.61510  0.39882  0.41488  1.0000
  H   H913      1.0  0.60612  0.53600  0.47423  1.0000
  C   C923      1.0  0.74136  0.36000  0.38958  1.0000
  C   C924      1.0  0.64144  0.52421  0.19823  1.0000
  C   C925      1.0  0.55414  0.52902  0.25924  1.0000
  H   H914      1.0  0.64110  0.50680  0.23502  1.0000
  C   C926      1.0  0.74213  0.65350  0.12684  1.0000
  C   C927      1.0  0.74251  0.65729  0.09723  1.0000
  C   C928      1.0  0.60261  0.52280  0.48191  1.0000
  H   H915      1.0  0.64775  0.54891  0.03415  1.0000
  Fe  Fe161     1.0  0.72209  0.65902  0.26884  1.0000
  C   C929      1.0  0.66546  0.37779  0.19809  1.0000
  H   H916      1.0  0.54389  0.49436  0.28311  1.0000
  H   H917      1.0  0.59236  0.59747  0.02261  1.0000
  N   N75       1.0  0.64411  0.53432  0.24719  1.0000
  H   H918      1.0  0.55197  0.54690  0.19182  1.0000
  H   H919      1.0  0.59093  0.45854  0.01837  1.0000
  C   C930      1.0  0.62960  0.40747  0.40224  1.0000
  C   C931      1.0  0.55306  0.53685  0.20880  1.0000
  C   C932      1.0  0.59952  0.50892  0.46184  1.0000
  H   H920      1.0  0.69943  0.40226  0.17679  1.0000
  H   H921      1.0  0.72879  0.36231  0.40095  1.0000
  H   H922      1.0  0.73033  0.66196  0.08658  1.0000
  C   C933      1.0  0.66461  0.34929  0.17320  1.0000
  S   S322      1.0  0.74094  0.67403  0.24061  1.0000
  C   C934      1.0  0.63439  0.57786  0.06117  1.0000
  C   C935      1.0  0.69050  0.36808  0.16973  1.0000
  C   C936      1.0  0.51329  0.46121  0.34225  1.0000
  H   H923      1.0  0.63848  0.39989  0.38784  1.0000
  C   C937      1.0  0.75753  0.35523  0.34458  1.0000
  H   H924      1.0  0.64927  0.44780  0.40070  1.0000
  C   C938      1.0  0.68173  0.35232  0.16223  1.0000
  C   C939      1.0  0.75859  0.65547  0.08152  1.0000
  H   H925      1.0  0.59156  0.40226  0.44168  1.0000
  C   C940      1.0  0.65640  0.36207  0.19131  1.0000
  H   H926      1.0  0.65910  0.42609  0.39201  1.0000
  H   H927      1.0  0.72968  0.65508  0.13867  1.0000
  C   C941      1.0  0.61518  0.49381  0.99876  1.0000
  H   H928      1.0  0.70162  0.39340  0.21292  1.0000
  C   C942      1.0  0.55663  0.50587  0.22406  1.0000
  N   N76       1.0  0.63194  0.42549  0.40649  1.0000
  C   C943      1.0  0.61127  0.57500  0.02640  1.0000
  C   C944      1.0  0.62016  0.43529  0.42339  1.0000
  H   H929      1.0  0.55098  0.55628  0.24316  1.0000
  H   H930      1.0  0.62839  0.54524  0.01211  1.0000
  H   H931      1.0  0.62744  0.54026  0.04989  1.0000
  C   C945      1.0  0.63282  0.54975  0.03376  1.0000
  N   N77       1.0  0.68226  0.38066  0.18719  1.0000
  H   H932      1.0  0.60071  0.51149  0.43902  1.0000
  H   H933      1.0  0.62175  0.44965  0.42647  1.0000
  H   H934      1.0  0.55855  0.49176  0.21845  1.0000
  C   C946      1.0  0.55515  0.51862  0.20192  1.0000
  N   N78       1.0  0.55631  0.51118  0.25228  1.0000
  C   C947      1.0  0.59521  0.49170  0.47140  1.0000
  H   H935      1.0  0.56547  0.50272  0.29382  1.0000
  C   C948      1.0  0.55254  0.54212  0.23763  1.0000
  H   H936      1.0  0.55384  0.53320  0.28163  1.0000
  H   H937      1.0  0.64182  0.54494  0.16582  1.0000
  H   H938      1.0  0.68265  0.40760  0.20366  1.0000
  H   H939      1.0  0.64298  0.51600  0.28291  1.0000
  C   C949      1.0  0.75432  0.65800  0.39093  1.0000
  H   H940      1.0  0.64661  0.56265  0.25329  1.0000
  H   H941      1.0  0.59620  0.43493  0.44964  1.0000
  H   H942      1.0  0.65774  0.53464  0.28736  1.0000
  C   C950      1.0  0.74134  0.35827  0.35941  1.0000
  C   C951      1.0  0.74279  0.65808  0.34139  1.0000
  C   C952      1.0  0.75889  0.66549  0.33211  1.0000
  S   S323      1.0  0.69790  0.67580  0.25488  1.0000
  C   C953      1.0  0.62792  0.59516  0.06840  1.0000
  H   H943      1.0  0.64582  0.57219  0.07289  1.0000
  S   S324      1.0  0.75707  0.36008  0.44302  1.0000
  C   C954      1.0  0.51425  0.44320  0.35102  1.0000
  H   H944      1.0  0.63433  0.60270  0.08543  1.0000
  Fe  Fe162     1.0  0.73248  0.34848  0.28168  1.0000
  C   C955      1.0  0.61280  0.60234  0.05435  1.0000
  C   C956      1.0  0.75751  0.35852  0.40509  1.0000
  S   S325      1.0  0.75816  0.35162  0.30706  1.0000
  C   C957      1.0  0.75187  0.35651  0.15135  1.0000
  H   H945      1.0  0.75161  0.36334  0.17193  1.0000
  H   H946      1.0  0.72820  0.64866  0.37832  1.0000
  H   H947      1.0  0.75245  0.65503  0.41351  1.0000
  S   S326      1.0  0.75858  0.66210  0.04505  1.0000
  H   H948      1.0  0.75334  0.63912  0.99418  1.0000
  S   S327      1.0  0.70850  0.67361  0.68849  1.0000
  S   S328      1.0  0.72969  0.36343  0.74977  1.0000
  S   S329      1.0  0.68801  0.38764  0.77792  1.0000
  C   C958      1.0  0.73056  0.38028  0.82540  1.0000
  C   C959      1.0  0.59554  0.50717  0.96281  1.0000
  H   H949      1.0  0.62081  0.58042  0.75245  1.0000
  Fe  Fe163     1.0  0.70115  0.36040  0.76512  1.0000
  C   C960      1.0  0.74461  0.66785  0.84135  1.0000
  Fe  Fe164     1.0  0.59556  0.48130  0.83929  1.0000
  S   S330      1.0  0.58077  0.45593  0.82975  1.0000
  S   S331      1.0  0.59714  0.50547  0.80966  1.0000
  Fe  Fe165     1.0  0.60384  0.47076  0.90169  1.0000
  S   S332      1.0  0.59017  0.44435  0.89620  1.0000
  S   S333      1.0  0.61579  0.47684  0.94597  1.0000
  Fe  Fe166     1.0  0.60409  0.44215  0.85313  1.0000
  S   S334      1.0  0.61485  0.41419  0.83913  1.0000
  Fe  Fe167     1.0  0.56817  0.46012  0.87350  1.0000
  S   S335      1.0  0.53969  0.45911  0.89176  1.0000
  S   S336      1.0  0.61958  0.46745  0.86018  1.0000
  S   S337      1.0  0.58128  0.48658  0.88132  1.0000
  Fe  Fe168     1.0  0.73274  0.65973  0.70745  1.0000
  H   H950      1.0  0.67629  0.58669  0.61497  1.0000
  H   H951      1.0  0.73399  0.36757  0.81386  1.0000
  H   H952      1.0  0.65455  0.38445  0.73811  1.0000
  C   C961      1.0  0.59379  0.48868  0.50125  1.0000
  C   C962      1.0  0.67675  0.64825  0.64056  1.0000
  Fe  Fe169     1.0  0.69339  0.66033  0.72429  1.0000
  S   S338      1.0  0.66552  0.64883  0.71532  1.0000
  S   S339      1.0  0.71755  0.64518  0.74234  1.0000
  Fe  Fe170     1.0  0.61656  0.56298  0.63665  1.0000
  S   S340      1.0  0.62218  0.53494  0.61940  1.0000
  S   S341      1.0  0.64262  0.57673  0.65055  1.0000
  Fe  Fe171     1.0  0.57569  0.55842  0.62798  1.0000
  S   S342      1.0  0.57874  0.53020  0.61100  1.0000
  S   S343      1.0  0.54842  0.57307  0.62768  1.0000
  Fe  Fe172     1.0  0.59890  0.52679  0.64702  1.0000
  S   S344      1.0  0.60218  0.50123  0.67356  1.0000
  Fe  Fe173     1.0  0.60166  0.54068  0.58485  1.0000
  S   S345      1.0  0.60528  0.53790  0.53595  1.0000
  S   S346      1.0  0.59425  0.55437  0.66606  1.0000
  S   S347      1.0  0.59764  0.56941  0.59999  1.0000
  C   C963      1.0  0.52872  0.54296  0.64047  1.0000
  C   C964      1.0  0.52833  0.56124  0.63326  1.0000
  C   C965      1.0  0.72648  0.66413  0.94968  1.0000
  H   H953      1.0  0.54148  0.53595  0.64389  1.0000
  C   C966      1.0  0.62983  0.55848  0.72503  1.0000
  C   C967      1.0  0.65928  0.62792  0.69968  1.0000
  C   C968      1.0  0.64099  0.62501  0.69377  1.0000
  C   C969      1.0  0.63551  0.60923  0.67954  1.0000
  C   C970      1.0  0.64830  0.59609  0.67110  1.0000
  C   C971      1.0  0.66652  0.59874  0.67779  1.0000
  C   C972      1.0  0.67199  0.61455  0.69188  1.0000
  H   H954      1.0  0.63101  0.63522  0.69975  1.0000
  H   H955      1.0  0.62146  0.60746  0.67460  1.0000
  H   H956      1.0  0.67655  0.58864  0.67164  1.0000
  H   H957      1.0  0.68608  0.61649  0.69639  1.0000
  C   C973      1.0  0.60832  0.49387  0.97051  1.0000
  H   H958      1.0  0.73146  0.35554  0.60560  1.0000
  C   C974      1.0  0.59671  0.50261  0.52130  1.0000
  C   C975      1.0  0.60131  0.51975  0.51175  1.0000
  Fe  Fe174     1.0  0.72207  0.67000  0.76968  1.0000
  H   H959      1.0  0.64471  0.62109  0.61438  1.0000
  H   H960      1.0  0.59025  0.50748  0.94114  1.0000
  H   H961      1.0  0.59570  0.50000  0.54414  1.0000
  C   C976      1.0  0.62382  0.55539  0.77580  1.0000
  C   C977      1.0  0.57859  0.45799  0.97652  1.0000
  C   C978      1.0  0.59650  0.50324  0.77187  1.0000
  C   C979      1.0  0.60227  0.48733  0.75815  1.0000
  C   C980      1.0  0.60360  0.48674  0.72791  1.0000
  C   C981      1.0  0.59912  0.50200  0.71127  1.0000
  C   C982      1.0  0.59285  0.51771  0.72503  1.0000
  C   C983      1.0  0.59156  0.51831  0.75519  1.0000
  H   H962      1.0  0.60606  0.47570  0.77093  1.0000
  H   H963      1.0  0.60831  0.47450  0.71735  1.0000
  H   H964      1.0  0.58903  0.52942  0.71252  1.0000
  H   H965      1.0  0.58696  0.53062  0.76568  1.0000
  C   C984      1.0  0.51160  0.57014  0.62892  1.0000
  H   H966      1.0  0.51118  0.58429  0.62336  1.0000
  C   C985      1.0  0.54501  0.51784  0.55005  1.0000
  H   H967      1.0  0.70155  0.61224  0.61672  1.0000
  H   H968      1.0  0.53103  0.44723  0.83314  1.0000
  C   C986      1.0  0.66818  0.39445  0.79703  1.0000
  C   C987      1.0  0.66507  0.41291  0.80266  1.0000
  C   C988      1.0  0.64911  0.41916  0.81631  1.0000
  C   C989      1.0  0.63600  0.40700  0.82442  1.0000
  C   C990      1.0  0.63923  0.38850  0.81912  1.0000
  C   C991      1.0  0.65522  0.38223  0.80556  1.0000
  H   H969      1.0  0.67499  0.42249  0.79616  1.0000
  H   H970      1.0  0.64683  0.43342  0.82017  1.0000
  H   H971      1.0  0.62915  0.37897  0.82523  1.0000
  H   H972      1.0  0.65736  0.36800  0.80132  1.0000
  N   N79       1.0  0.54905  0.54981  0.55283  1.0000
  N   N80       1.0  0.73757  0.63726  0.92593  1.0000
  N   N81       1.0  0.67298  0.61514  0.61354  1.0000
  C   C992      1.0  0.68974  0.62077  0.62088  1.0000
  C   C993      1.0  0.52148  0.53727  0.56955  1.0000
  C   C994      1.0  0.62844  0.53710  0.77381  1.0000
  H   H973      1.0  0.69582  0.37400  0.83323  1.0000
  C   C995      1.0  0.73156  0.37432  0.87731  1.0000
  H   H974      1.0  0.51997  0.50839  0.56716  1.0000
  C   C996      1.0  0.74597  0.64304  0.97494  1.0000
  H   H975      1.0  0.51303  0.51953  0.64874  1.0000
  C   C997      1.0  0.58967  0.52016  0.98317  1.0000
  H   H976      1.0  0.70516  0.64156  0.64105  1.0000
  H   H977      1.0  0.62734  0.52844  0.79254  1.0000
  H   H978      1.0  0.55928  0.57487  0.56657  1.0000
  H   H979      1.0  0.63088  0.45390  0.75363  1.0000
  H   H980      1.0  0.63634  0.51542  0.74555  1.0000
  C   C998      1.0  0.62454  0.56620  0.75129  1.0000
  C   C999      1.0  0.75622  0.66159  0.58186  1.0000
  C   C1000     1.0  0.74028  0.66190  0.62776  1.0000
  H   H981      1.0  0.53246  0.48266  0.94376  1.0000
  H   H982      1.0  0.67873  0.59666  0.57957  1.0000
  H   H983      1.0  0.72861  0.66584  0.64013  1.0000
  H   H984      1.0  0.65685  0.59434  0.59563  1.0000
  H   H985      1.0  0.57983  0.53042  0.97689  1.0000
  H   H986      1.0  0.73443  0.63285  0.88070  1.0000
  C   C1001     1.0  0.69491  0.36840  0.87847  1.0000
  H   H987      1.0  0.56469  0.46143  0.93646  1.0000
  C   C1002     1.0  0.73583  0.65911  0.97456  1.0000
  C   C1003     1.0  0.72331  0.36977  0.90329  1.0000
  H   H988      1.0  0.59053  0.47541  0.50894  1.0000
  C   C1004     1.0  0.51255  0.53368  0.64320  1.0000
  H   H989      1.0  0.61939  0.56106  0.79623  1.0000
  C   C1005     1.0  0.53225  0.55210  0.56449  1.0000
  H   H990      1.0  0.72018  0.65693  0.90613  1.0000
  C   C1006     1.0  0.65974  0.64249  0.63280  1.0000
  H   H991      1.0  0.67808  0.66086  0.65210  1.0000
  H   H992      1.0  0.56841  0.53120  0.53512  1.0000
  C   C1007     1.0  0.51918  0.45552  0.87346  1.0000
  C   C1008     1.0  0.63920  0.53263  0.69532  1.0000
  H   H993      1.0  0.75517  0.62007  0.95041  1.0000
  H   H994      1.0  0.55526  0.57285  0.52823  1.0000
  C   C1009     1.0  0.51862  0.44952  0.84493  1.0000
  C   C1010     1.0  0.69189  0.63737  0.63454  1.0000
  H   H995      1.0  0.55103  0.49213  0.92480  1.0000
  C   C1011     1.0  0.55530  0.53301  0.54498  1.0000
  H   H996      1.0  0.66732  0.40352  0.72917  1.0000
  C   C1012     1.0  0.62910  0.43945  0.75341  1.0000
  C   C1013     1.0  0.70488  0.36674  0.90380  1.0000
  H   H997      1.0  0.74319  0.38763  0.82886  1.0000
  H   H998      1.0  0.58650  0.44640  0.96907  1.0000
  H   H999      1.0  0.64753  0.52007  0.69767  1.0000
  N   N82       1.0  0.64007  0.40966  0.74109  1.0000
  C   C1014     1.0  0.62511  0.40243  0.75319  1.0000
  C   C1015     1.0  0.61188  0.41356  0.76600  1.0000
  C   C1016     1.0  0.65368  0.39783  0.72734  1.0000
  H   H1000     1.0  0.62360  0.38795  0.75380  1.0000
  H   H1001     1.0  0.60045  0.40777  0.77681  1.0000
  H   H1002     1.0  0.73128  0.36799  0.92270  1.0000
  C   C1017     1.0  0.70359  0.37304  0.85291  1.0000
  H   H1003     1.0  0.65040  0.39593  0.70426  1.0000
  S   S348      1.0  0.75443  0.64764  0.67820  1.0000
  C   C1018     1.0  0.74099  0.66622  0.59838  1.0000
  H   H1004     1.0  0.52729  0.56544  0.57067  1.0000
  C   C1019     1.0  0.65806  0.62577  0.61928  1.0000
  H   H1005     1.0  0.65386  0.43367  0.73097  1.0000
  N   N83       1.0  0.72165  0.37614  0.85265  1.0000
  S   S349      1.0  0.72737  0.67570  0.81750  1.0000
  C   C1020     1.0  0.52803  0.52002  0.56263  1.0000
  N   N84       1.0  0.55717  0.48197  0.96649  1.0000
  C   C1021     1.0  0.73811  0.62538  0.90070  1.0000
  H   H1006     1.0  0.60404  0.44084  0.77693  1.0000
  H   H1007     1.0  0.68059  0.36594  0.87848  1.0000
  C   C1022     1.0  0.61398  0.43216  0.76627  1.0000
  C   C1023     1.0  0.64206  0.42793  0.74071  1.0000
  H   H1008     1.0  0.71877  0.67673  0.94903  1.0000
  H   H1009     1.0  0.63003  0.56689  0.70597  1.0000
  H   H1010     1.0  0.55030  0.50452  0.54446  1.0000
  C   C1024     1.0  0.75468  0.65265  0.64093  1.0000
  C   C1025     1.0  0.63361  0.52982  0.74716  1.0000
  H   H1011     1.0  0.62674  0.52927  0.68364  1.0000
  H   H1012     1.0  0.64787  0.65058  0.63843  1.0000
  C   C1026     1.0  0.56643  0.46672  0.95795  1.0000
  H   H1013     1.0  0.75197  0.61974  0.89728  1.0000
  S   S350      1.0  0.75663  0.66819  0.54537  1.0000
  H   H1014     1.0  0.64693  0.54216  0.68200  1.0000
  C   C1027     1.0  0.56003  0.56560  0.54775  1.0000
  C   C1028     1.0  0.67114  0.59739  0.60015  1.0000
  H   H1015     1.0  0.54059  0.50465  0.95352  1.0000
  N   N85       1.0  0.63447  0.54055  0.72330  1.0000
  C   C1029     1.0  0.72734  0.65286  0.92551  1.0000
  C   C1030     1.0  0.54465  0.49086  0.94635  1.0000
  C   C1031     1.0  0.74679  0.63226  0.95024  1.0000
  H   H1016     1.0  0.57447  0.56173  0.54476  1.0000
  H   H1017     1.0  0.74602  0.37591  0.87688  1.0000
  H   H1018     1.0  0.72169  0.38879  0.81140  1.0000
  H   H1019     1.0  0.72871  0.61419  0.90367  1.0000
  H   H1020     1.0  0.69843  0.36284  0.92372  1.0000
  H   H1021     1.0  0.72976  0.67341  0.58848  1.0000
  H   H1022     1.0  0.75404  0.64567  0.81507  1.0000
  C   C1032     1.0  0.75547  0.65262  0.83539  1.0000
  C   C1033     1.0  0.74669  0.67666  0.86796  1.0000
  S   S351      1.0  0.72759  0.34863  0.66602  1.0000
  C   C1034     1.0  0.74356  0.34835  0.61245  1.0000
  H   H1023     1.0  0.75538  0.34799  0.56978  1.0000
  C   C1035     1.0  0.55930  0.48862  0.99373  1.0000
  C   C1036     1.0  0.75923  0.67020  0.88855  1.0000
  H   H1024     1.0  0.73544  0.66773  0.99348  1.0000
  H   H1025     1.0  0.54715  0.00742  0.45662  1.0000
  S   S352      1.0  0.72401  0.71858  0.21517  1.0000
  H   H1026     1.0  0.72575  0.85032  0.16096  1.0000
  Fe  Fe175     1.0  0.72992  0.84351  0.22827  1.0000
  S   S353      1.0  0.70181  0.83822  0.21282  1.0000
  H   H1027     1.0  0.64595  0.84787  0.28308  1.0000
  Fe  Fe176     1.0  0.71947  0.84631  0.29191  1.0000
  S   S354      1.0  0.69058  0.84126  0.28096  1.0000
  S   S355      1.0  0.72535  0.85318  0.33917  1.0000
  Fe  Fe177     1.0  0.70116  0.81959  0.25113  1.0000
  S   S356      1.0  0.68621  0.79322  0.25149  1.0000
  Fe  Fe178     1.0  0.69329  0.86036  0.24368  1.0000
  S   S357      1.0  0.67155  0.88284  0.24041  1.0000
  S   S358      1.0  0.72985  0.82326  0.26456  1.0000
  S   S359      1.0  0.72157  0.86691  0.25654  1.0000
  Fe  Fe179     1.0  0.58672  0.97017  0.09973  1.0000
  S   S360      1.0  0.57747  0.94327  0.11598  1.0000
  S   S361      1.0  0.58241  0.97434  0.05131  1.0000
  Fe  Fe180     1.0  0.59672  0.98174  0.16108  1.0000
  S   S362      1.0  0.58843  0.95576  0.18095  1.0000
  C   C1037     1.0  0.59818  0.00300  0.28597  1.0000
  Fe  Fe181     1.0  0.60268  0.94266  0.14325  1.0000
  S   S363      1.0  0.62174  0.91780  0.14144  1.0000
  Fe  Fe182     1.0  0.56412  0.95878  0.15211  1.0000
  S   S364      1.0  0.53650  0.95920  0.17347  1.0000
  S   S365      1.0  0.61261  0.96871  0.12488  1.0000
  S   S366      1.0  0.57180  0.98557  0.13430  1.0000
  Fe  Fe183     1.0  0.71662  0.68955  0.22440  1.0000
  C   C1038     1.0  0.75805  0.69820  0.10404  1.0000
  H   H1028     1.0  0.75957  0.83249  0.33372  1.0000
  C   C1039     1.0  0.75303  0.80775  0.12657  1.0000
  H   H1029     1.0  0.61039  0.95507  0.01912  1.0000
  C   C1040     1.0  0.63597  0.90870  0.16904  1.0000
  C   C1041     1.0  0.63517  0.91497  0.19742  1.0000
  C   C1042     1.0  0.64635  0.90705  0.21873  1.0000
  C   C1043     1.0  0.65862  0.89286  0.21203  1.0000
  C   C1044     1.0  0.65953  0.88664  0.18359  1.0000
  C   C1045     1.0  0.64820  0.89446  0.16231  1.0000
  H   H1030     1.0  0.62583  0.92585  0.20303  1.0000
  H   H1031     1.0  0.64548  0.91196  0.24064  1.0000
  H   H1032     1.0  0.66885  0.87575  0.17804  1.0000
  H   H1033     1.0  0.64898  0.88948  0.14045  1.0000
  C   C1046     1.0  0.71287  0.73907  0.22493  1.0000
  C   C1047     1.0  0.72196  0.75524  0.22096  1.0000
  C   C1048     1.0  0.71402  0.77187  0.22927  1.0000
  C   C1049     1.0  0.69676  0.77252  0.24123  1.0000
  C   C1050     1.0  0.68758  0.75636  0.24499  1.0000
  C   C1051     1.0  0.69563  0.73967  0.23704  1.0000
  H   H1034     1.0  0.73530  0.75489  0.21164  1.0000
  H   H1035     1.0  0.72121  0.78421  0.22624  1.0000
  H   H1036     1.0  0.67418  0.75676  0.25414  1.0000
  H   H1037     1.0  0.68849  0.72731  0.24015  1.0000
  H   H1038     1.0  0.62999  0.87183  0.25498  1.0000
  C   C1052     1.0  0.60188  0.00412  0.22558  1.0000
  C   C1053     1.0  0.59003  0.99107  0.02700  1.0000
  C   C1054     1.0  0.60064  0.00145  0.47635  1.0000
  H   H1039     1.0  0.64906  0.81015  0.18150  1.0000
  C   C1055     1.0  0.74356  0.80891  0.07610  1.0000
  H   H1040     1.0  0.60088  0.99859  0.45352  1.0000
  C   C1056     1.0  0.72723  0.73465  0.29055  1.0000
  C   C1057     1.0  0.55300  0.00547  0.20074  1.0000
  C   C1058     1.0  0.73832  0.85051  0.14923  1.0000
  H   H1041     1.0  0.75413  0.85501  0.43432  1.0000
  H   H1042     1.0  0.74655  0.71402  0.27769  1.0000
  H   H1043     1.0  0.55746  0.98457  0.31027  1.0000
  C   C1059     1.0  0.74276  0.84707  0.36393  1.0000
  C   C1060     1.0  0.55410  0.00703  0.28130  1.0000
  C   C1061     1.0  0.65013  0.83054  0.24613  1.0000
  H   H1044     1.0  0.73293  0.81888  0.08279  1.0000
  H   H1045     1.0  0.63812  0.93482  0.09296  1.0000
  H   H1046     1.0  0.67017  0.81400  0.19953  1.0000
  H   H1047     1.0  0.60445  0.97522  0.22804  1.0000
  H   H1048     1.0  0.72559  0.85384  0.10776  1.0000
  C   C1062     1.0  0.73825  0.85247  0.11908  1.0000
  C   C1063     1.0  0.60232  0.00407  0.03511  1.0000
  H   H1049     1.0  0.72945  0.86082  0.39922  1.0000
  C   C1064     1.0  0.74137  0.85323  0.39255  1.0000
  H   H1050     1.0  0.69026  0.72730  0.33114  1.0000
  H   H1051     1.0  0.73912  0.80994  0.13302  1.0000
  C   C1065     1.0  0.55591  0.98876  0.28801  1.0000
  C   C1066     1.0  0.63685  0.94448  0.07551  1.0000
  C   C1067     1.0  0.51586  0.94041  0.13433  1.0000
  H   H1052     1.0  0.55652  0.97184  0.22021  1.0000
  H   H1053     1.0  0.69000  0.69766  0.34876  1.0000
  C   C1068     1.0  0.58412  0.99068  0.99823  1.0000
  C   C1069     1.0  0.55553  0.98178  0.23729  1.0000
  H   H1054     1.0  0.63213  0.97943  0.01436  1.0000
  H   H1055     1.0  0.75774  0.77573  0.45865  1.0000
  H   H1056     1.0  0.71127  0.68560  0.34975  1.0000
  C   C1070     1.0  0.71124  0.73832  0.30541  1.0000
  C   C1071     1.0  0.60222  0.98758  0.23995  1.0000
  S   S367      1.0  0.60550  0.00534  0.18815  1.0000
  H   H1057     1.0  0.73145  0.68995  0.30445  1.0000
  C   C1072     1.0  0.63230  0.85733  0.21492  1.0000
  C   C1073     1.0  0.75446  0.85241  0.10348  1.0000
  H   H1058     1.0  0.61242  0.91863  0.04385  1.0000
  H   H1059     1.0  0.63805  0.84061  0.17825  1.0000
  H   H1060     1.0  0.64514  0.00210  0.23092  1.0000
  C   C1074     1.0  0.64944  0.95810  0.07330  1.0000
  C   C1075     1.0  0.63929  0.84181  0.20141  1.0000
  H   H1061     1.0  0.60704  0.00455  0.05709  1.0000
  C   C1076     1.0  0.64353  0.84600  0.26026  1.0000
  C   C1077     1.0  0.64775  0.97078  0.05123  1.0000
  C   C1078     1.0  0.74109  0.70330  0.11460  1.0000
  H   H1062     1.0  0.66022  0.95893  0.08890  1.0000
  H   H1063     1.0  0.70523  0.75182  0.30505  1.0000
  C   C1079     1.0  0.51612  0.95258  0.15732  1.0000
  C   C1080     1.0  0.60040  0.98704  0.27004  1.0000
  H   H1064     1.0  0.59571  0.93540  0.05528  1.0000
  H   H1065     1.0  0.65350  0.80026  0.21604  1.0000
  C   C1081     1.0  0.73448  0.71713  0.29008  1.0000
  C   C1082     1.0  0.72578  0.70355  0.30503  1.0000
  H   H1066     1.0  0.60089  0.97419  0.28104  1.0000
  C   C1083     1.0  0.60947  0.92968  0.05938  1.0000
  N   N86       1.0  0.62284  0.94372  0.05652  1.0000
  C   C1084     1.0  0.75534  0.84990  0.41257  1.0000
  H   H1067     1.0  0.73061  0.70795  0.09996  1.0000
  H   H1068     1.0  0.52839  0.93527  0.12527  1.0000
  C   C1085     1.0  0.64342  0.00189  0.27727  1.0000
  C   C1086     1.0  0.75463  0.84870  0.16404  1.0000
  H   H1069     1.0  0.59960  0.97345  0.48876  1.0000
  H   H1070     1.0  0.65741  0.82028  0.25844  1.0000
  H   H1071     1.0  0.65718  0.98163  0.04956  1.0000
  C   C1087     1.0  0.63450  0.85942  0.24452  1.0000
  C   C1088     1.0  0.63376  0.96953  0.03143  1.0000
  C   C1089     1.0  0.55662  0.97603  0.26590  1.0000
  C   C1090     1.0  0.65547  0.81249  0.20270  1.0000
  H   H1072     1.0  0.73370  0.74526  0.27867  1.0000
  C   C1091     1.0  0.75109  0.69555  0.16247  1.0000
  H   H1073     1.0  0.74317  0.88446  0.30071  1.0000
  N   N87       1.0  0.71025  0.70728  0.31994  1.0000
  N   N88       1.0  0.64783  0.82854  0.21711  1.0000
  H   H1074     1.0  0.72447  0.70602  0.15263  1.0000
  H   H1075     1.0  0.74821  0.69449  0.18525  1.0000
  S   S368      1.0  0.59600  0.00168  0.32373  1.0000
  H   H1076     1.0  0.62589  0.86804  0.20239  1.0000
  C   C1092     1.0  0.70281  0.72437  0.31998  1.0000
  S   S369      1.0  0.75375  0.85346  0.06544  1.0000
  C   C1093     1.0  0.73759  0.70210  0.14403  1.0000
  C   C1094     1.0  0.70146  0.69270  0.33533  1.0000
  H   H1077     1.0  0.55847  0.96182  0.27079  1.0000
  C   C1095     1.0  0.75631  0.87939  0.30747  1.0000
  H   H1078     1.0  0.69637  0.68269  0.31972  1.0000
  H   H1079     1.0  0.73757  0.79561  0.07226  1.0000
  H   H1080     1.0  0.60934  0.92397  0.08151  1.0000
  C   C1096     1.0  0.64391  0.01019  0.25036  1.0000
  S   S370      1.0  0.75540  0.84454  0.20150  1.0000
  H   H1081     1.0  0.64431  0.98732  0.27892  1.0000
  N   N89       1.0  0.75765  0.80734  0.09806  1.0000
  N   N90       1.0  0.55354  0.99971  0.23089  1.0000
  H   H1082     1.0  0.75352  0.89020  0.35007  1.0000
  C   C1097     1.0  0.62146  0.95572  0.03426  1.0000
  H   H1083     1.0  0.64022  0.00607  0.32296  1.0000
  H   H1084     1.0  0.74903  0.81405  0.05547  1.0000
  C   C1098     1.0  0.75828  0.83730  0.35563  1.0000
  H   H1085     1.0  0.56691  0.00663  0.19237  1.0000
  H   H1086     1.0  0.54585  0.99557  0.18722  1.0000
  Fe  Fe184     1.0  0.71418  0.69600  0.71945  1.0000
  S   S371      1.0  0.71925  0.72424  0.70285  1.0000
  C   C1099     1.0  0.59686  0.98814  0.77035  1.0000
  Fe  Fe185     1.0  0.73377  0.84366  0.72494  1.0000
  S   S372      1.0  0.70567  0.83972  0.70883  1.0000
  S   S373      1.0  0.59128  0.00310  0.82339  1.0000
  Fe  Fe186     1.0  0.72214  0.85159  0.78735  1.0000
  S   S374      1.0  0.69301  0.84844  0.77543  1.0000
  S   S375      1.0  0.72759  0.86101  0.83368  1.0000
  Fe  Fe187     1.0  0.70263  0.82408  0.75012  1.0000
  S   S376      1.0  0.68832  0.79769  0.75618  1.0000
  Fe  Fe188     1.0  0.69836  0.86443  0.73527  1.0000
  S   S377      1.0  0.68349  0.89075  0.72214  1.0000
  S   S378      1.0  0.73128  0.82626  0.76448  1.0000
  S   S379      1.0  0.72700  0.86924  0.74884  1.0000
  Fe  Fe189     1.0  0.59521  0.97102  0.59944  1.0000
  S   S380      1.0  0.57867  0.94761  0.61374  1.0000
  S   S381      1.0  0.59985  0.97192  0.55061  1.0000
  Fe  Fe190     1.0  0.60003  0.98324  0.66231  1.0000
  S   S382      1.0  0.58398  0.96071  0.68028  1.0000
  H   H1087     1.0  0.63632  0.90523  0.61326  1.0000
  Fe  Fe191     1.0  0.59961  0.94339  0.64863  1.0000
  S   S383      1.0  0.61047  0.91477  0.65773  1.0000
  Fe  Fe192     1.0  0.56475  0.96700  0.64417  1.0000
  S   S384      1.0  0.53549  0.97571  0.65139  1.0000
  S   S385      1.0  0.61693  0.96561  0.63261  1.0000
  S   S386      1.0  0.58005  0.99061  0.62775  1.0000
  H   H1088     1.0  0.66214  0.86094  0.83860  1.0000
  H   H1089     1.0  0.58567  0.00263  0.95576  1.0000
  C   C1100     1.0  0.59887  0.00351  0.78744  1.0000
  H   H1090     1.0  0.73196  0.85974  0.66210  1.0000
  H   H1091     1.0  0.52936  0.93674  0.65216  1.0000
  C   C1101     1.0  0.63053  0.90834  0.67657  1.0000
  C   C1102     1.0  0.64221  0.92104  0.68776  1.0000
  C   C1103     1.0  0.65829  0.91534  0.70155  1.0000
  C   C1104     1.0  0.66295  0.89691  0.70445  1.0000
  C   C1105     1.0  0.65124  0.88420  0.69338  1.0000
  C   C1106     1.0  0.63518  0.88991  0.67948  1.0000
  H   H1092     1.0  0.63889  0.93526  0.68569  1.0000
  H   H1093     1.0  0.66721  0.92532  0.71003  1.0000
  H   H1094     1.0  0.65458  0.86999  0.69543  1.0000
  H   H1095     1.0  0.62627  0.87994  0.67092  1.0000
  C   C1107     1.0  0.71017  0.74447  0.71760  1.0000
  C   C1108     1.0  0.71814  0.76082  0.71041  1.0000
  C   C1109     1.0  0.71142  0.77726  0.72173  1.0000
  C   C1110     1.0  0.69649  0.77748  0.74008  1.0000
  C   C1111     1.0  0.68831  0.76117  0.74683  1.0000
  C   C1112     1.0  0.69524  0.74469  0.73592  1.0000
  H   H1096     1.0  0.72964  0.76076  0.69612  1.0000
  H   H1097     1.0  0.71779  0.78975  0.71636  1.0000
  H   H1098     1.0  0.67667  0.76127  0.76085  1.0000
  H   H1099     1.0  0.68889  0.73220  0.74136  1.0000
  H   H1100     1.0  0.65152  0.89734  0.76830  1.0000
  H   H1101     1.0  0.59936  0.97656  0.72807  1.0000
  C   C1113     1.0  0.59986  0.99055  0.52631  1.0000
  S   S387      1.0  0.73946  0.68278  0.73641  1.0000
  C   C1114     1.0  0.71074  0.72266  0.80432  1.0000
  H   H1102     1.0  0.74004  0.77332  0.76446  1.0000
  C   C1115     1.0  0.74288  0.86033  0.88785  1.0000
  S   S388      1.0  0.69676  0.68436  0.75383  1.0000
  C   C1116     1.0  0.74474  0.86314  0.62061  1.0000
  C   C1117     1.0  0.60087  0.98853  0.74084  1.0000
  C   C1118     1.0  0.72698  0.72353  0.78945  1.0000
  H   H1103     1.0  0.71531  0.89389  0.79891  1.0000
  C   C1119     1.0  0.74415  0.85766  0.64964  1.0000
  C   C1120     1.0  0.74359  0.85313  0.85977  1.0000
  C   C1121     1.0  0.73799  0.82238  0.58586  1.0000
  H   H1104     1.0  0.66491  0.91502  0.63439  1.0000
  H   H1105     1.0  0.74660  0.74086  0.77126  1.0000
  H   H1106     1.0  0.67756  0.94429  0.61954  1.0000
  H   H1107     1.0  0.60752  0.93424  0.56637  1.0000
  H   H1108     1.0  0.59191  0.97594  0.77989  1.0000
  H   H1109     1.0  0.75617  0.80348  0.65775  1.0000
  H   H1110     1.0  0.70598  0.91560  0.80983  1.0000
  H   H1111     1.0  0.73254  0.87030  0.89323  1.0000
  H   H1112     1.0  0.70218  0.76751  0.81266  1.0000
  C   C1122     1.0  0.73336  0.81524  0.63593  1.0000
  C   C1123     1.0  0.75916  0.84899  0.66211  1.0000
  H   H1113     1.0  0.74312  0.77645  0.80283  1.0000
  H   H1114     1.0  0.52411  0.96116  0.59087  1.0000
  H   H1115     1.0  0.61806  0.91264  0.55811  1.0000
  H   H1116     1.0  0.63279  0.95293  0.56250  1.0000
  C   C1124     1.0  0.60681  0.00433  0.72807  1.0000
  H   H1117     1.0  0.60731  0.91670  0.59266  1.0000
  C   C1125     1.0  0.51591  0.96278  0.65270  1.0000
  C   C1126     1.0  0.73323  0.77335  0.78577  1.0000
  H   H1118     1.0  0.70514  0.70965  0.80920  1.0000
  C   C1127     1.0  0.63985  0.94451  0.57813  1.0000
  C   C1128     1.0  0.55268  0.98616  0.72473  1.0000
  H   H1119     1.0  0.73332  0.82846  0.56590  1.0000
  H   H1120     1.0  0.54635  0.97389  0.76537  1.0000
  C   C1129     1.0  0.66601  0.87215  0.82523  1.0000
  C   C1130     1.0  0.55409  0.00156  0.77042  1.0000
  H   H1121     1.0  0.69188  0.87442  0.84517  1.0000
  C   C1131     1.0  0.73405  0.74034  0.78310  1.0000
  C   C1132     1.0  0.70178  0.73857  0.81277  1.0000
  C   C1133     1.0  0.72686  0.82239  0.61008  1.0000
  H   H1122     1.0  0.73402  0.71119  0.78291  1.0000
  C   C1134     1.0  0.65458  0.87854  0.80349  1.0000
  H   H1123     1.0  0.71156  0.89877  0.83636  1.0000
  C   C1135     1.0  0.65808  0.92336  0.61835  1.0000
  H   H1124     1.0  0.64172  0.87238  0.79984  1.0000
  H   H1125     1.0  0.73297  0.86946  0.61085  1.0000
  N   N91       1.0  0.68800  0.89371  0.81156  1.0000
  C   C1136     1.0  0.67685  0.90007  0.79028  1.0000
  C   C1137     1.0  0.68282  0.87987  0.82888  1.0000
  C   C1138     1.0  0.66000  0.89261  0.78592  1.0000
  C   C1139     1.0  0.70607  0.90091  0.81433  1.0000
  H   H1126     1.0  0.68120  0.91058  0.77582  1.0000
  H   H1127     1.0  0.66135  0.96322  0.58305  1.0000
  C   C1140     1.0  0.70931  0.75517  0.80633  1.0000
  H   H1128     1.0  0.72504  0.81567  0.65516  1.0000
  H   H1129     1.0  0.73387  0.71672  0.64149  1.0000
  H   H1130     1.0  0.74957  0.71661  0.59423  1.0000
  N   N92       1.0  0.63276  0.92864  0.58709  1.0000
  N   N93       1.0  0.72518  0.75589  0.79145  1.0000
  H   H1131     1.0  0.73843  0.68851  0.87279  1.0000
  C   C1141     1.0  0.65606  0.95039  0.58964  1.0000
  H   H1132     1.0  0.72281  0.78441  0.78512  1.0000
  C   C1142     1.0  0.51651  0.94394  0.65247  1.0000
  H   H1133     1.0  0.71341  0.82839  0.60906  1.0000
  S   S389      1.0  0.61030  0.00568  0.69053  1.0000
  C   C1143     1.0  0.64186  0.91790  0.60638  1.0000
  C   C1144     1.0  0.66513  0.93978  0.61005  1.0000
  C   C1145     1.0  0.61560  0.92274  0.57538  1.0000
  C   C1146     1.0  0.60037  0.00841  0.53583  1.0000
  C   C1147     1.0  0.59031  0.00316  0.97779  1.0000
  C   C1148     1.0  0.75538  0.85469  0.90915  1.0000
  C   C1149     1.0  0.55052  0.98602  0.75456  1.0000
  H   H1134     1.0  0.74759  0.70028  0.68255  1.0000
  H   H1135     1.0  0.68903  0.73805  0.82405  1.0000
  H   H1136     1.0  0.55271  0.00127  0.79368  1.0000
  H   H1137     1.0  0.52006  0.97467  0.55926  1.0000
  C   C1150     1.0  0.75454  0.70056  0.66207  1.0000
  C   C1151     1.0  0.75575  0.70964  0.61232  1.0000
  C   C1152     1.0  0.59993  0.98720  0.49644  1.0000
  C   C1153     1.0  0.75105  0.80836  0.63726  1.0000
  H   H1138     1.0  0.57469  0.98064  0.99165  1.0000
  H   H1139     1.0  0.56068  0.00173  0.68802  1.0000
  C   C1154     1.0  0.55861  0.00166  0.71117  1.0000
  H   H1140     1.0  0.54994  0.97423  0.71209  1.0000
  C   C1155     1.0  0.74681  0.70975  0.63885  1.0000
  H   H1141     1.0  0.75460  0.86035  0.93060  1.0000
  C   C1156     1.0  0.75554  0.81524  0.58789  1.0000
  S   S390      1.0  0.75847  0.83960  0.69693  1.0000
  H   H1142     1.0  0.75789  0.83462  0.83176  1.0000
  C   C1157     1.0  0.75707  0.84025  0.85323  1.0000
  C   C1158     1.0  0.51463  0.97112  0.58072  1.0000
  H   H1143     1.0  0.51445  0.98325  0.59481  1.0000
  S   S391      1.0  0.76005  0.86493  0.56667  1.0000
  H   H1144     1.0  0.87028  0.06800  0.99813  1.0000
  S   S392      1.0  0.93073  0.04832  0.42352  1.0000
  H   H1145     1.0  0.94107  0.03081  0.23991  1.0000
  Fe  Fe193     1.0  0.90890  0.03624  0.34911  1.0000
  S   S393      1.0  0.92346  0.06180  0.35747  1.0000
  S   S394      1.0  0.89830  0.03342  0.30319  1.0000
  Fe  Fe194     1.0  0.94417  0.04447  0.38021  1.0000
  S   S395      1.0  0.97274  0.04292  0.36252  1.0000
  Fe  Fe195     1.0  0.90847  0.06351  0.39970  1.0000
  S   S396      1.0  0.89637  0.09130  0.41154  1.0000
  C   C1159     1.0  0.78955  0.26515  0.08323  1.0000
  S   S397      1.0  0.89220  0.03921  0.38959  1.0000
  S   S398      1.0  0.93006  0.01886  0.37007  1.0000
  H   H1146     1.0  0.77799  0.18939  0.36904  1.0000
  C   C1160     1.0  0.76506  0.16566  0.10625  1.0000
  C   C1161     1.0  0.76904  0.14865  0.36987  1.0000
  H   H1147     1.0  0.77154  0.27404  0.03538  1.0000
  C   C1162     1.0  0.82352  0.26484  0.48369  1.0000
  Fe  Fe196     1.0  0.78534  0.16495  0.03292  1.0000
  C   C1163     1.0  0.76495  0.31005  0.34352  1.0000
  Fe  Fe197     1.0  0.77957  0.16762  0.47426  1.0000
  H   H1148     1.0  0.79040  0.22922  0.08514  1.0000
  H   H1149     1.0  0.86498  0.03244  0.07026  1.0000
  S   S399      1.0  0.80813  0.16747  0.45811  1.0000
  N   N94       1.0  0.86716  0.08430  0.35359  1.0000
  C   C1164     1.0  0.78309  0.23463  0.06676  1.0000
  C   C1165     1.0  0.86729  0.05482  0.00677  1.0000
  C   C1166     1.0  0.90510  0.02222  0.02147  1.0000
  H   H1150     1.0  0.79385  0.30654  0.34566  1.0000
  H   H1151     1.0  0.90292  0.10407  0.30306  1.0000
  H   H1152     1.0  0.86563  0.11036  0.37303  1.0000
  H   H1153     1.0  0.87108  0.06274  0.05095  1.0000
  H   H1154     1.0  0.77339  0.17848  0.29257  1.0000
  C   C1167     1.0  0.76537  0.24801  0.01853  1.0000
  C   C1168     1.0  0.87156  0.10201  0.35616  1.0000
  H   H1155     1.0  0.78802  0.26038  0.10572  1.0000
  S   S400      1.0  0.77266  0.32243  0.01496  1.0000
  H   H1156     1.0  0.89451  0.07199  0.29831  1.0000
  H   H1157     1.0  0.78503  0.17330  0.32500  1.0000
  H   H1158     1.0  0.78124  0.15146  0.41183  1.0000
  H   H1159     1.0  0.79456  0.30728  0.39918  1.0000
  H   H1160     1.0  0.77547  0.18277  0.13946  1.0000
  H   H1161     1.0  0.78054  0.14140  0.36080  1.0000
  C   C1169     1.0  0.76584  0.31108  0.40316  1.0000
  C   C1170     1.0  0.88803  0.08061  0.31436  1.0000
  H   H1162     1.0  0.95798  0.04886  0.30248  1.0000
  S   S401      1.0  0.77711  0.32280  0.49308  1.0000
  H   H1163     1.0  0.82002  0.24752  0.03609  1.0000
  H   H1164     1.0  0.84274  0.08212  0.47281  1.0000
  C   C1171     1.0  0.77608  0.22265  0.04670  1.0000
  C   C1172     1.0  0.87709  0.09809  0.43221  1.0000
  C   C1173     1.0  0.86631  0.08574  0.44639  1.0000
  C   C1174     1.0  0.85092  0.09180  0.46185  1.0000
  C   C1175     1.0  0.84604  0.11026  0.46331  1.0000
  C   C1176     1.0  0.85679  0.12260  0.44906  1.0000
  C   C1177     1.0  0.87223  0.11654  0.43371  1.0000
  H   H1165     1.0  0.86988  0.07153  0.44561  1.0000
  S   S402      1.0  0.81022  0.28377  0.02132  1.0000
  H   H1166     1.0  0.85332  0.13684  0.45006  1.0000
  H   H1167     1.0  0.88050  0.12627  0.42301  1.0000
  C   C1178     1.0  0.99288  0.05835  0.40618  1.0000
  C   C1179     1.0  0.99288  0.04923  0.37980  1.0000
  H   H1168     1.0  0.80410  0.26612  0.07803  1.0000
  H   H1169     1.0  0.98026  0.06164  0.41682  1.0000
  H   H1170     1.0  0.00953  0.03818  0.34574  1.0000
  C   C1180     1.0  0.94962  0.02139  0.25178  1.0000
  C   C1181     1.0  0.82117  0.23207  0.48559  1.0000
  S   S403      1.0  0.78027  0.17376  0.07977  1.0000
  H   H1171     1.0  0.79901  0.22122  0.46213  1.0000
  H   H1172     1.0  0.88831  0.12327  0.34087  1.0000
  H   H1173     1.0  0.79038  0.19359  0.30543  1.0000
  C   C1182     1.0  0.76724  0.22942  0.02239  1.0000
  C   C1183     1.0  0.88446  0.10939  0.33805  1.0000
  C   C1184     1.0  0.85452  0.07639  0.37391  1.0000
  H   H1174     1.0  0.91536  0.03019  0.47921  1.0000
  H   H1175     1.0  0.76477  0.31006  0.32015  1.0000
  C   C1185     1.0  0.89272  0.09860  0.31700  1.0000
  C   C1186     1.0  0.86776  0.05188  0.03642  1.0000
  H   H1176     1.0  0.93851  0.03669  0.31362  1.0000
  C   C1187     1.0  0.76947  0.15431  0.39877  1.0000
  S   S404      1.0  0.80587  0.33895  0.44571  1.0000
  C   C1188     1.0  0.96383  0.01217  0.29531  1.0000
  Fe  Fe198     1.0  0.91503  0.02395  0.41143  1.0000
  H   H1177     1.0  0.86216  0.06848  0.39033  1.0000
  C   C1189     1.0  0.81417  0.24729  0.01480  1.0000
  H   H1178     1.0  0.87215  0.05942  0.33146  1.0000
  N   N95       1.0  0.76570  0.19499  0.32837  1.0000
  S   S405      1.0  0.81393  0.33485  0.02675  1.0000
  H   H1179     1.0  0.84515  0.06742  0.36257  1.0000
  C   C1190     1.0  0.00938  0.04517  0.36617  1.0000
  C   C1191     1.0  0.89987  0.01840  0.24885  1.0000
  C   C1192     1.0  0.87529  0.07358  0.33313  1.0000
  H   H1180     1.0  0.90768  0.03497  0.03176  1.0000
  C   C1193     1.0  0.85959  0.02373  0.99984  1.0000
  C   C1194     1.0  0.80586  0.23332  0.46820  1.0000
  H   H1181     1.0  0.89196  0.03014  0.24233  1.0000
  C   C1195     1.0  0.86418  0.03475  0.04721  1.0000
  C   C1196     1.0  0.79967  0.25022  0.45804  1.0000
  S   S406      1.0  0.80062  0.28682  0.45134  1.0000
  S   S407      1.0  0.81333  0.16873  0.01469  1.0000
  N   N96       1.0  0.95359  0.02442  0.28011  1.0000
  C   C1197     1.0  0.78185  0.30863  0.38780  1.0000
  N   N97       1.0  0.78112  0.25286  0.06288  1.0000
  H   H1182     1.0  0.76611  0.31174  0.42650  1.0000
  S   S408      1.0  0.78162  0.13874  0.00940  1.0000
  H   H1183     1.0  0.84633  0.08692  0.38538  1.0000
  H   H1184     1.0  0.77787  0.20820  0.04971  1.0000
  C   C1198     1.0  0.80844  0.26603  0.46577  1.0000
  H   H1185     1.0  0.78807  0.25103  0.44403  1.0000
  C   C1199     1.0  0.78145  0.30813  0.35780  1.0000
  C   C1200     1.0  0.76714  0.19638  0.35765  1.0000
  H   H1186     1.0  0.81650  0.21829  0.01109  1.0000
  C   C1201     1.0  0.77936  0.18469  0.31203  1.0000
  Fe  Fe199     1.0  0.80330  0.31404  0.47291  1.0000
  S   S409      1.0  0.82658  0.11706  0.48353  1.0000
  C   C1202     1.0  0.94666  0.04064  0.29477  1.0000
  C   C1203     1.0  0.77242  0.25961  0.03913  1.0000
  H   H1187     1.0  0.78344  0.27897  0.08195  1.0000
  C   C1204     1.0  0.90485  0.01638  0.27793  1.0000
  C   C1205     1.0  0.91539  0.01787  0.49163  1.0000
  H   H1188     1.0  0.94783  0.01941  0.05226  1.0000
  H   H1189     1.0  0.93778  0.04906  0.28071  1.0000
  C   C1206     1.0  0.76562  0.17282  0.13434  1.0000
  Fe  Fe200     1.0  0.80054  0.31140  0.00608  1.0000
  Fe  Fe201     1.0  0.81272  0.14486  0.48997  1.0000
  C   C1207     1.0  0.81215  0.23070  0.00071  1.0000
  H   H1190     1.0  0.96691  0.01464  0.31783  1.0000
  S   S410      1.0  0.77174  0.18122  0.99802  1.0000
  C   C1208     1.0  0.80855  0.26351  0.00166  1.0000
  H   H1191     1.0  0.83053  0.27691  0.48943  1.0000
  N   N98       1.0  0.86030  0.02092  0.02894  1.0000
  H   H1192     1.0  0.76221  0.22029  0.00625  1.0000
  H   H1193     1.0  0.00916  0.07079  0.43874  1.0000
  C   C1209     1.0  0.00928  0.06354  0.41854  1.0000
  C   C1210     1.0  0.94847  0.01418  0.00640  1.0000
  H   H1194     1.0  0.94829  0.02837  0.00086  1.0000
  C   C1211     1.0  0.82998  0.24788  0.49326  1.0000
  Fe  Fe202     1.0  0.90579  0.02596  0.91216  1.0000
  S   S411      1.0  0.92323  0.04769  0.92909  1.0000
  H   H1195     1.0  0.77430  0.26236  0.51837  1.0000
  Fe  Fe203     1.0  0.90878  0.03825  0.84928  1.0000
  S   S412      1.0  0.92629  0.06120  0.86214  1.0000
  S   S413      1.0  0.90278  0.03628  0.80108  1.0000
  Fe  Fe204     1.0  0.94097  0.04134  0.89084  1.0000
  S   S414      1.0  0.97011  0.03090  0.89078  1.0000
  Fe  Fe205     1.0  0.90677  0.06559  0.89921  1.0000
  S   S415      1.0  0.89611  0.09390  0.91100  1.0000
  H   H1196     1.0  0.87537  0.02521  0.54764  1.0000
  S   S416      1.0  0.88830  0.04404  0.88435  1.0000
  C   C1212     1.0  0.81109  0.12364  0.59537  1.0000
  H   H1197     1.0  0.79000  0.18980  0.84585  1.0000
  H   H1198     1.0  0.80395  0.28835  0.89046  1.0000
  C   C1213     1.0  0.84470  0.09339  0.87876  1.0000
  H   H1199     1.0  0.85681  0.01273  0.98526  1.0000
  C   C1214     1.0  0.90543  0.01740  0.77765  1.0000
  Fe  Fe206     1.0  0.79011  0.16442  0.53807  1.0000
  S   S417      1.0  0.78597  0.16589  0.58693  1.0000
  Fe  Fe207     1.0  0.77052  0.15551  0.97293  1.0000
  C   C1215     1.0  0.82815  0.09273  0.89309  1.0000
  S   S418      1.0  0.81949  0.16364  0.52615  1.0000
  S   S419      1.0  0.79707  0.15879  0.95128  1.0000
  Fe  Fe208     1.0  0.79909  0.18364  0.97863  1.0000
  H   H1200     1.0  0.79870  0.28969  0.51699  1.0000
  C   C1216     1.0  0.81446  0.29662  0.89916  1.0000
  H   H1201     1.0  0.82167  0.12921  0.60841  1.0000
  H   H1202     1.0  0.80654  0.29335  0.55307  1.0000
  H   H1203     1.0  0.77921  0.13791  0.85786  1.0000
  S   S420      1.0  0.82000  0.32511  0.50881  1.0000
  H   H1204     1.0  0.94421  0.02045  0.74474  1.0000
  H   H1205     1.0  0.80586  0.32022  0.87575  1.0000
  C   C1217     1.0  0.77959  0.11778  0.58898  1.0000
  S   S421      1.0  0.78376  0.18804  0.50936  1.0000
  C   C1218     1.0  0.78103  0.19073  0.88981  1.0000
  H   H1206     1.0  0.86318  0.04267  0.96518  1.0000
  H   H1207     1.0  0.84189  0.24698  0.50658  1.0000
  H   H1208     1.0  0.80398  0.10633  0.52967  1.0000
  H   H1209     1.0  0.77623  0.14145  0.91069  1.0000
  H   H1210     1.0  0.93380  0.04945  0.76301  1.0000
  H   H1211     1.0  0.00948  0.08221  0.91045  1.0000
  C   C1219     1.0  0.83326  0.11683  0.55739  1.0000
  H   H1212     1.0  0.77259  0.10712  0.54744  1.0000
  H   H1213     1.0  0.78178  0.17129  0.64762  1.0000
  H   H1214     1.0  0.90072  0.03340  0.73954  1.0000
  C   C1220     1.0  0.77475  0.32974  0.62960  1.0000
  H   H1215     1.0  0.76582  0.11859  0.59678  1.0000
  S   S422      1.0  0.76096  0.34005  0.80572  1.0000
  H   H1216     1.0  0.95371  0.02043  0.95181  1.0000
  C   C1221     1.0  0.87693  0.09997  0.93225  1.0000
  C   C1222     1.0  0.86515  0.08713  0.94266  1.0000
  C   C1223     1.0  0.84956  0.09262  0.95808  1.0000
  C   C1224     1.0  0.84544  0.11100  0.96304  1.0000
  C   C1225     1.0  0.85730  0.12383  0.95285  1.0000
  C   C1226     1.0  0.87298  0.11832  0.93767  1.0000
  H   H1217     1.0  0.86794  0.07300  0.93844  1.0000
  C   C1227     1.0  0.80252  0.10712  0.91810  1.0000
  H   H1218     1.0  0.95642  0.05621  0.77211  1.0000
  H   H1219     1.0  0.88203  0.12838  0.92979  1.0000
  C   C1228     1.0  0.76930  0.16595  0.63982  1.0000
  C   C1229     1.0  0.99083  0.04212  0.89334  1.0000
  C   C1230     1.0  0.99185  0.06025  0.90125  1.0000
  C   C1231     1.0  0.77839  0.19013  0.86000  1.0000
  H   H1220     1.0  0.97966  0.06806  0.90559  1.0000
  C   C1232     1.0  0.90380  0.02129  0.99135  1.0000
  H   H1221     1.0  0.91777  0.03141  0.53253  1.0000
  C   C1233     1.0  0.81169  0.25886  0.55865  1.0000
  H   H1222     1.0  0.95623  0.03654  0.83049  1.0000
  N   N99       1.0  0.79768  0.26665  0.54368  1.0000
  H   H1223     1.0  0.84998  0.13865  0.88117  1.0000
  H   H1224     1.0  0.82225  0.07976  0.89683  1.0000
  C   C1234     1.0  0.80497  0.23025  0.97297  1.0000
  S   S423      1.0  0.78358  0.14394  0.50407  1.0000
  H   H1225     1.0  0.83590  0.10504  0.54305  1.0000
  C   C1235     1.0  0.77282  0.33472  0.60048  1.0000
  C   C1236     1.0  0.77145  0.34114  0.89149  1.0000
  C   C1237     1.0  0.86318  0.04068  0.98831  1.0000
  S   S424      1.0  0.79020  0.32853  0.57561  1.0000
  H   H1226     1.0  0.84899  0.29511  0.94701  1.0000
  C   C1238     1.0  0.79352  0.12387  0.60619  1.0000
  H   H1227     1.0  0.78298  0.29160  0.54665  1.0000
  H   H1228     1.0  0.85442  0.13799  0.95669  1.0000
  H   H1229     1.0  0.79449  0.19094  0.89879  1.0000
  C   C1239     1.0  0.83978  0.30041  0.93080  1.0000
  N   N100      1.0  0.82866  0.32529  0.90220  1.0000
  C   C1240     1.0  0.81310  0.24011  0.56169  1.0000
  C   C1241     1.0  0.94448  0.04896  0.77978  1.0000
  S   S425      1.0  0.92437  0.01824  0.87588  1.0000
  C   C1242     1.0  0.91671  0.01853  0.52181  1.0000
  H   H1230     1.0  0.83537  0.12920  0.54456  1.0000
  C   C1243     1.0  0.84375  0.12572  0.88391  1.0000
  H   H1231     1.0  0.82205  0.26708  0.56784  1.0000
  C   C1244     1.0  0.78339  0.11137  0.56134  1.0000
  H   H1232     1.0  0.82564  0.27559  0.92634  1.0000
  S   S426      1.0  0.80234  0.32316  0.96180  1.0000
  N   N101      1.0  0.81980  0.10818  0.90303  1.0000
  H   H1233     1.0  0.93861  0.05611  0.79879  1.0000
  N   N102      1.0  0.94953  0.03029  0.78699  1.0000
  C   C1245     1.0  0.00879  0.06824  0.90402  1.0000
  C   C1246     1.0  0.78592  0.23742  0.53397  1.0000
  H   H1234     1.0  0.90517  0.03334  0.97865  1.0000
  S   S427      1.0  0.80308  0.20969  0.95418  1.0000
  H   H1235     1.0  0.77608  0.22912  0.52353  1.0000
  H   H1236     1.0  0.78687  0.32258  0.63642  1.0000
  Fe  Fe209     1.0  0.79360  0.33532  0.52779  1.0000
  H   H1237     1.0  0.96013  0.01831  0.54845  1.0000
  C   C1247     1.0  0.78500  0.25619  0.53115  1.0000
  H   H1238     1.0  0.79661  0.27549  0.96384  1.0000
  N   N103      1.0  0.81478  0.11690  0.56851  1.0000
  H   H1239     1.0  0.86576  0.11059  0.86434  1.0000
  H   H1240     1.0  0.80258  0.09536  0.93290  1.0000
  C   C1248     1.0  0.80118  0.11102  0.55139  1.0000
  C   C1249     1.0  0.80007  0.22937  0.54938  1.0000
  C   C1250     1.0  0.79962  0.24650  0.95956  1.0000
  C   C1251     1.0  0.87149  0.01188  0.50694  1.0000
  H   H1241     1.0  0.82447  0.23387  0.57280  1.0000
  H   H1242     1.0  0.79993  0.11912  0.93199  1.0000
  H   H1243     1.0  0.79405  0.24622  0.93807  1.0000
  C   C1252     1.0  0.95543  0.02615  0.81413  1.0000
  C   C1253     1.0  0.82725  0.12457  0.89827  1.0000
  S   S428      1.0  0.82512  0.11699  0.98147  1.0000
  C   C1254     1.0  0.76617  0.14094  0.86732  1.0000
  Fe  Fe210     1.0  0.80875  0.14337  0.98875  1.0000
  H   H1244     1.0  0.80131  0.21479  0.55096  1.0000
  H   H1245     1.0  0.79136  0.10611  0.90237  1.0000
  C   C1255     1.0  0.90394  0.02006  0.74772  1.0000
  H   H1246     1.0  0.85169  0.08109  0.87187  1.0000
  Fe  Fe211     1.0  0.77553  0.33620  0.97199  1.0000
  C   C1256     1.0  0.79645  0.28624  0.53993  1.0000
  C   C1257     1.0  0.85257  0.11000  0.87433  1.0000
  C   C1258     1.0  0.80116  0.26308  0.97401  1.0000
  H   H1247     1.0  0.84331  0.11616  0.57503  1.0000
  Fe  Fe212     1.0  0.81257  0.18622  0.49560  1.0000
  C   C1259     1.0  0.82662  0.28947  0.91928  1.0000
  H   H1248     1.0  0.82073  0.13679  0.90637  1.0000
  H   H1249     1.0  0.85055  0.32695  0.93169  1.0000
  C   C1260     1.0  0.00685  0.03219  0.88790  1.0000
  C   C1261     1.0  0.84060  0.31840  0.92200  1.0000
  H   H1250     1.0  0.84047  0.08259  0.96588  1.0000
  C   C1262     1.0  0.76732  0.16241  0.61024  1.0000
  C   C1263     1.0  0.81564  0.31468  0.89088  1.0000
  S   S429      1.0  0.82958  0.21106  0.49830  1.0000
  C   C1264     1.0  0.76453  0.14306  0.89724  1.0000
  H   H1251     1.0  0.76803  0.19129  0.93128  1.0000
  H   H1252     1.0  0.79054  0.12967  0.62718  1.0000
  H   H1253     1.0  0.00622  0.01817  0.88169  1.0000
  C   C1265     1.0  0.94896  0.01722  0.76624  1.0000
  C   C1266     1.0  0.76615  0.19108  0.90811  1.0000
  C   C1267     1.0  0.77309  0.34230  0.86135  1.0000
  H   H1254     1.0  0.76774  0.17885  0.80760  1.0000
  N   N104      1.0  0.76139  0.18995  0.84878  1.0000
  H   H1255     1.0  0.76304  0.33034  0.67237  1.0000
  C   C1268     1.0  0.76125  0.33412  0.65006  1.0000
  C   C1269     1.0  0.87297  0.01253  0.53686  1.0000
  H   H1256     1.0  0.76231  0.20292  0.80807  1.0000
  H   H1257     1.0  0.87263  0.02407  0.49428  1.0000
  H   H1258     1.0  0.95760  0.01982  0.49507  1.0000
  N   N105      1.0  0.99895  0.54376  0.15759  1.0000
  H   H1259     1.0  0.89617  0.37639  0.38964  1.0000
  H   H1260     1.0  0.95240  0.48466  0.45542  1.0000
  Fe  Fe213     1.0  0.79289  0.66669  0.45412  1.0000
  C   C1270     1.0  0.77371  0.35431  0.36002  1.0000
  Fe  Fe214     1.0  0.78351  0.66226  0.01696  1.0000
  S   S430      1.0  0.77946  0.36090  0.07551  1.0000
  C   C1271     1.0  0.95847  0.49263  0.47227  1.0000
  H   H1261     1.0  0.95208  0.52460  0.02468  1.0000
  Fe  Fe215     1.0  0.92461  0.53662  0.14708  1.0000
  S   S431      1.0  0.93409  0.56347  0.13102  1.0000
  S   S432      1.0  0.93234  0.53039  0.19397  1.0000
  Fe  Fe216     1.0  0.91238  0.52627  0.08568  1.0000
  S   S433      1.0  0.92113  0.55209  0.06608  1.0000
  S   S434      1.0  0.90065  0.50432  0.05805  1.0000
  Fe  Fe217     1.0  0.94595  0.54798  0.09347  1.0000
  S   S435      1.0  0.97387  0.54358  0.07425  1.0000
  Fe  Fe218     1.0  0.90828  0.56510  0.10500  1.0000
  S   S436      1.0  0.88713  0.58820  0.10543  1.0000
  S   S437      1.0  0.93771  0.52126  0.11079  1.0000
  S   S438      1.0  0.89814  0.53918  0.12361  1.0000
  Fe  Fe219     1.0  0.91203  0.46563  0.33122  1.0000
  S   S439      1.0  0.91848  0.43639  0.33999  1.0000
  S   S440      1.0  0.90292  0.47450  0.28613  1.0000
  Fe  Fe220     1.0  0.91536  0.47467  0.39537  1.0000
  S   S441      1.0  0.92201  0.44610  0.40869  1.0000
  S   S442      1.0  0.91542  0.49941  0.42385  1.0000
  Fe  Fe221     1.0  0.94003  0.44622  0.36962  1.0000
  S   S443      1.0  0.96750  0.43206  0.36950  1.0000
  Fe  Fe222     1.0  0.89981  0.43857  0.37822  1.0000
  S   S444      1.0  0.87855  0.41670  0.38119  1.0000
  S   S445      1.0  0.93490  0.47525  0.35822  1.0000
  S   S446      1.0  0.89191  0.46735  0.36756  1.0000
  H   H1262     1.0  0.78629  0.35208  0.34866  1.0000
  N   N106      1.0  0.91906  0.38930  0.37235  1.0000
  H   H1263     1.0  0.86671  0.55840  0.08413  1.0000
  C   C1272     1.0  0.77377  0.64519  0.12503  1.0000
  S   S447      1.0  0.82208  0.66769  0.46677  1.0000
  C   C1273     1.0  0.80854  0.39151  0.03855  1.0000
  C   C1274     1.0  0.91444  0.38416  0.42286  1.0000
  H   H1264     1.0  0.97318  0.53614  0.17260  1.0000
  C   C1275     1.0  0.77370  0.35586  0.39014  1.0000
  C   C1276     1.0  0.94461  0.48104  0.01294  1.0000
  H   H1265     1.0  0.97874  0.52868  0.13643  1.0000
  C   C1277     1.0  0.86946  0.40368  0.40961  1.0000
  C   C1278     1.0  0.85642  0.39091  0.40299  1.0000
  C   C1279     1.0  0.84866  0.38032  0.42471  1.0000
  C   C1280     1.0  0.85404  0.38220  0.45336  1.0000
  C   C1281     1.0  0.86742  0.39466  0.45986  1.0000
  C   C1282     1.0  0.87495  0.40548  0.43821  1.0000
  H   H1266     1.0  0.85213  0.38931  0.38091  1.0000
  H   H1267     1.0  0.83845  0.37077  0.41931  1.0000
  H   H1268     1.0  0.90616  0.37906  0.44013  1.0000
  H   H1269     1.0  0.88501  0.41517  0.44367  1.0000
  C   C1283     1.0  0.86194  0.54713  0.07055  1.0000
  C   C1284     1.0  0.98711  0.44472  0.37442  1.0000
  C   C1285     1.0  0.98598  0.46327  0.37958  1.0000
  H   H1270     1.0  0.00071  0.48745  0.38692  1.0000
  H   H1271     1.0  0.97297  0.47007  0.38079  1.0000
  C   C1286     1.0  0.90433  0.50422  0.02044  1.0000
  H   H1272     1.0  0.80460  0.41325  0.00834  1.0000
  H   H1273     1.0  0.79457  0.39148  0.04543  1.0000
  C   C1287     1.0  0.91003  0.49865  0.46087  1.0000
  C   C1288     1.0  0.78124  0.61669  0.40593  1.0000
  H   H1274     1.0  0.84827  0.36914  0.04964  1.0000
  H   H1275     1.0  0.89376  0.47771  0.01473  1.0000
  H   H1276     1.0  0.90322  0.47066  0.46177  1.0000
  H   H1277     1.0  0.91581  0.52665  0.46713  1.0000
  H   H1278     1.0  0.91504  0.53081  0.01846  1.0000
  C   C1289     1.0  0.92527  0.51317  0.21781  1.0000
  C   C1290     1.0  0.91060  0.50240  0.21173  1.0000
  C   C1291     1.0  0.90442  0.49015  0.23251  1.0000
  C   C1292     1.0  0.91283  0.48841  0.25954  1.0000
  C   C1293     1.0  0.92787  0.49875  0.26528  1.0000
  C   C1294     1.0  0.93399  0.51108  0.24456  1.0000
  H   H1279     1.0  0.90375  0.50380  0.19130  1.0000
  H   H1280     1.0  0.89280  0.48220  0.22780  1.0000
  H   H1281     1.0  0.93454  0.49754  0.28588  1.0000
  H   H1282     1.0  0.94538  0.51930  0.24949  1.0000
  C   C1295     1.0  0.81211  0.40971  0.40232  1.0000
  C   C1296     1.0  0.99389  0.55401  0.08484  1.0000
  C   C1297     1.0  0.99386  0.57166  0.09538  1.0000
  H   H1283     1.0  0.85217  0.58666  0.99545  1.0000
  H   H1284     1.0  0.98128  0.57920  0.09770  1.0000
  Fe  Fe223     1.0  0.78603  0.34671  0.03285  1.0000
  H   H1285     1.0  0.93956  0.47750  0.03407  1.0000
  C   C1298     1.0  0.94071  0.39959  0.40660  1.0000
  H   H1286     1.0  0.83883  0.62755  0.06588  1.0000
  C   C1299     1.0  0.90890  0.38259  0.39423  1.0000
  H   H1287     1.0  0.78667  0.64768  0.08345  1.0000
  C   C1300     1.0  0.81417  0.40371  0.01779  1.0000
  C   C1301     1.0  0.85853  0.62100  0.03330  1.0000
  C   C1302     1.0  0.87481  0.61149  0.02763  1.0000
  C   C1303     1.0  0.88365  0.60123  0.04924  1.0000
  C   C1304     1.0  0.87648  0.60063  0.07707  1.0000
  C   C1305     1.0  0.86030  0.61032  0.08282  1.0000
  C   C1306     1.0  0.85130  0.62031  0.06107  1.0000
  Fe  Fe224     1.0  0.82148  0.65003  0.00042  1.0000
  H   H1288     1.0  0.89613  0.59400  0.04447  1.0000
  H   H1289     1.0  0.85466  0.61003  0.10430  1.0000
  H   H1290     1.0  0.78965  0.67245  0.16165  1.0000
  N   N107      1.0  0.89613  0.52235  0.30476  1.0000
  C   C1307     1.0  0.88273  0.51670  0.28701  1.0000
  C   C1308     1.0  0.90760  0.53533  0.29579  1.0000
  C   C1309     1.0  0.88035  0.52432  0.25970  1.0000
  C   C1310     1.0  0.90565  0.54317  0.26854  1.0000
  C   C1311     1.0  0.89195  0.53758  0.25041  1.0000
  C   C1312     1.0  0.89924  0.51345  0.33254  1.0000
  H   H1291     1.0  0.87433  0.50566  0.29340  1.0000
  H   H1292     1.0  0.91867  0.53926  0.30936  1.0000
  H   H1293     1.0  0.87013  0.51934  0.24532  1.0000
  H   H1294     1.0  0.91515  0.55295  0.26096  1.0000
  H   H1295     1.0  0.89082  0.54300  0.22876  1.0000
  H   H1296     1.0  0.88692  0.50692  0.34053  1.0000
  H   H1297     1.0  0.90994  0.50283  0.33008  1.0000
  H   H1298     1.0  0.90342  0.52319  0.34926  1.0000
  H   H1299     1.0  0.90772  0.37433  0.33811  1.0000
  H   H1300     1.0  0.78589  0.64040  0.13574  1.0000
  H   H1301     1.0  0.81660  0.36950  0.06624  1.0000
  C   C1313     1.0  0.83224  0.40345  0.00922  1.0000
  N   N108      1.0  0.95149  0.49769  0.00820  1.0000
  C   C1314     1.0  0.77044  0.66536  0.38161  1.0000
  H   H1302     1.0  0.82329  0.43207  0.48514  1.0000
  H   H1303     1.0  0.81405  0.41323  0.37990  1.0000
  H   H1304     1.0  0.87067  0.53512  0.07552  1.0000
  C   C1315     1.0  0.77423  0.64926  0.09543  1.0000
  C   C1316     1.0  0.91253  0.38807  0.34266  1.0000
  H   H1305     1.0  0.85088  0.57807  0.04680  1.0000
  H   H1306     1.0  0.82728  0.61591  0.44408  1.0000
  H   H1307     1.0  0.82284  0.63403  0.39992  1.0000
  H   H1308     1.0  0.94190  0.50876  0.04797  1.0000
  S   S448      1.0  0.81072  0.67342  0.02738  1.0000
  H   H1309     1.0  0.84380  0.42680  0.46549  1.0000
  C   C1317     1.0  0.82260  0.41748  0.42377  1.0000
  C   C1318     1.0  0.79544  0.62611  0.39418  1.0000
  H   H1310     1.0  0.00516  0.42172  0.36913  1.0000
  Fe  Fe225     1.0  0.82009  0.35115  0.48336  1.0000
  S   S449      1.0  0.84793  0.63339  0.00483  1.0000
  C   C1319     1.0  0.80793  0.40051  0.45969  1.0000
  C   C1320     1.0  0.90460  0.48283  0.47430  1.0000
  C   C1321     1.0  0.93043  0.39278  0.42904  1.0000
  H   H1311     1.0  0.93477  0.39433  0.45116  1.0000
  H   H1312     1.0  0.80635  0.39672  0.48207  1.0000
  S   S450      1.0  0.84409  0.37002  0.48199  1.0000
  H   H1313     1.0  0.87173  0.39620  0.48195  1.0000
  C   C1322     1.0  0.76445  0.35323  0.10259  1.0000
  H   H1314     1.0  0.96606  0.50824  0.04342  1.0000
  C   C1323     1.0  0.82093  0.37913  0.05023  1.0000
  H   H1315     1.0  0.92323  0.39105  0.32676  1.0000
  C   C1324     1.0  0.00417  0.43608  0.37302  1.0000
  C   C1325     1.0  0.98001  0.53984  0.15222  1.0000
  C   C1326     1.0  0.00173  0.47308  0.38316  1.0000
  S   S451      1.0  0.78868  0.66935  0.40537  1.0000
  C   C1327     1.0  0.76384  0.36195  0.12954  1.0000
  C   C1328     1.0  0.85705  0.57339  0.00220  1.0000
  H   H1316     1.0  0.95309  0.40651  0.41108  1.0000
  N   N109      1.0  0.82053  0.41269  0.45200  1.0000
  C   C1329     1.0  0.89963  0.48913  0.00417  1.0000
  C   C1330     1.0  0.85638  0.56847  0.03125  1.0000
  C   C1331     1.0  0.00369  0.56091  0.16450  1.0000
  H   H1317     1.0  0.79341  0.63415  0.37488  1.0000
  C   C1332     1.0  0.95300  0.51039  0.03220  1.0000
  H   H1318     1.0  0.78508  0.67463  0.34463  1.0000
  H   H1319     1.0  0.78625  0.35512  0.40162  1.0000
  C   C1333     1.0  0.81437  0.61580  0.43324  1.0000
  H   H1320     1.0  0.79098  0.39106  0.39364  1.0000
  C   C1334     1.0  0.81203  0.62595  0.40813  1.0000
  H   H1321     1.0  0.94275  0.40334  0.36099  1.0000
  C   C1335     1.0  0.91163  0.51900  0.00644  1.0000
  H   H1322     1.0  0.99362  0.57175  0.16507  1.0000
  N   N110      1.0  0.86282  0.55194  0.04001  1.0000
  H   H1323     1.0  0.87174  0.39517  0.03047  1.0000
  N   N111      1.0  0.84427  0.39116  0.02071  1.0000
  H   H1324     1.0  0.88063  0.61199  0.00629  1.0000
  Fe  Fe226     1.0  0.78064  0.34829  0.46814  1.0000
  H   H1325     1.0  0.98002  0.50181  0.44543  1.0000
  C   C1336     1.0  0.83130  0.42113  0.47446  1.0000
  C   C1337     1.0  0.86944  0.53974  0.02034  1.0000
  H   H1326     1.0  0.77270  0.37298  0.13360  1.0000
  H   H1327     1.0  0.97278  0.55167  0.14264  1.0000
  H   H1328     1.0  0.86183  0.66473  0.03564  1.0000
  H   H1329     1.0  0.86757  0.37737  0.00476  1.0000
  C   C1338     1.0  0.93477  0.39776  0.37822  1.0000
  C   C1339     1.0  0.91170  0.51435  0.47737  1.0000
  C   C1340     1.0  0.79927  0.39720  0.40999  1.0000
  H   H1330     1.0  0.87404  0.52644  0.02717  1.0000
  H   H1331     1.0  0.90119  0.39794  0.33939  1.0000
  H   H1332     1.0  0.99301  0.52078  0.48408  1.0000
  H   H1333     1.0  0.84789  0.54418  0.07666  1.0000
  C   C1341     1.0  0.97384  0.50241  0.46661  1.0000
  H   H1334     1.0  0.83273  0.42700  0.41757  1.0000
  C   C1342     1.0  0.79713  0.39258  0.43885  1.0000
  C   C1343     1.0  0.98111  0.51305  0.48827  1.0000
  C   C1344     1.0  0.83881  0.37904  0.04085  1.0000
  H   H1335     1.0  0.78718  0.38289  0.44504  1.0000
  N   N112      1.0  0.80054  0.60610  0.44416  1.0000
  C   C1345     1.0  0.86325  0.39109  0.01208  1.0000
  C   C1346     1.0  0.77261  0.66905  0.35211  1.0000
  C   C1347     1.0  0.78400  0.60677  0.43122  1.0000
  H   H1336     1.0  0.83556  0.41097  0.49088  1.0000
  S   S452      1.0  0.78773  0.64417  0.48537  1.0000
  H   H1337     1.0  0.79972  0.60450  0.48969  1.0000
  H   H1338     1.0  0.76088  0.66828  0.30950  1.0000
  H   H1339     1.0  0.77281  0.59974  0.44054  1.0000
  H   H1340     1.0  0.00794  0.51652  0.15129  1.0000
  H   H1341     1.0  0.81734  0.59103  0.47324  1.0000
  H   H1342     1.0  0.76809  0.61743  0.39577  1.0000
  C   C1348     1.0  0.80310  0.59581  0.47084  1.0000
  H   H1343     1.0  0.79459  0.58376  0.47128  1.0000
  Fe  Fe227     1.0  0.81650  0.64679  0.50043  1.0000
  H   H1344     1.0  0.94120  0.46683  0.78233  1.0000
  C   C1349     1.0  0.98100  0.47701  0.81291  1.0000
  Fe  Fe228     1.0  0.79209  0.65578  0.95323  1.0000
  S   S453      1.0  0.78331  0.64409  0.90998  1.0000
  H   H1345     1.0  0.00234  0.54705  0.56032  1.0000
  H   H1346     1.0  0.85684  0.58909  0.50552  1.0000
  C   C1350     1.0  0.86359  0.48875  0.75268  1.0000
  Fe  Fe229     1.0  0.81383  0.34768  0.98288  1.0000
  Fe  Fe230     1.0  0.91427  0.53262  0.64921  1.0000
  S   S454      1.0  0.92356  0.55975  0.63394  1.0000
  S   S455      1.0  0.91512  0.52947  0.69842  1.0000
  Fe  Fe231     1.0  0.90644  0.52119  0.58695  1.0000
  S   S456      1.0  0.91465  0.54754  0.56834  1.0000
  S   S457      1.0  0.89911  0.49771  0.55832  1.0000
  Fe  Fe232     1.0  0.93806  0.54458  0.59872  1.0000
  S   S458      1.0  0.96514  0.54825  0.57720  1.0000
  Fe  Fe233     1.0  0.89923  0.56022  0.60492  1.0000
  S   S459      1.0  0.88215  0.58635  0.60399  1.0000
  S   S460      1.0  0.93061  0.51753  0.61571  1.0000
  S   S461      1.0  0.88914  0.53393  0.62198  1.0000
  Fe  Fe234     1.0  0.90710  0.46283  0.83650  1.0000
  S   S462      1.0  0.90923  0.43418  0.85265  1.0000
  S   S463      1.0  0.90341  0.46549  0.78761  1.0000
  Fe  Fe235     1.0  0.91153  0.47747  0.89785  1.0000
  S   S464      1.0  0.91424  0.45011  0.91807  1.0000
  S   S465      1.0  0.91481  0.50320  0.92318  1.0000
  Fe  Fe236     1.0  0.93210  0.44393  0.87989  1.0000
  S   S466      1.0  0.95884  0.42849  0.88121  1.0000
  Fe  Fe237     1.0  0.89106  0.44279  0.88934  1.0000
  S   S467      1.0  0.86447  0.43050  0.90398  1.0000
  S   S468      1.0  0.93105  0.47179  0.86158  1.0000
  S   S469      1.0  0.88733  0.47096  0.87124  1.0000
  C   C1351     1.0  0.99511  0.46673  0.90117  1.0000
  H   H1347     1.0  0.94114  0.49324  0.55390  1.0000
  H   H1348     1.0  0.98963  0.48831  0.81683  1.0000
  H   H1349     1.0  0.99482  0.48071  0.90775  1.0000
  C   C1352     1.0  0.87216  0.51775  0.77068  1.0000
  H   H1350     1.0  0.78104  0.64054  0.63422  1.0000
  H   H1351     1.0  0.84262  0.34988  0.89686  1.0000
  H   H1352     1.0  0.77578  0.63391  0.85160  1.0000
  Fe  Fe238     1.0  0.78173  0.66620  0.51776  1.0000
  C   C1353     1.0  0.95762  0.50226  0.98146  1.0000
  C   C1354     1.0  0.91451  0.51858  0.97658  1.0000
  C   C1355     1.0  0.85818  0.40986  0.92022  1.0000
  C   C1356     1.0  0.83991  0.40731  0.92676  1.0000
  C   C1357     1.0  0.83422  0.39141  0.94025  1.0000
  C   C1358     1.0  0.84680  0.37783  0.94748  1.0000
  C   C1359     1.0  0.86502  0.38021  0.94049  1.0000
  C   C1360     1.0  0.87071  0.39614  0.92707  1.0000
  H   H1353     1.0  0.83008  0.41779  0.92138  1.0000
  H   H1354     1.0  0.82016  0.38978  0.94532  1.0000
  H   H1355     1.0  0.83651  0.41297  0.99305  1.0000
  H   H1356     1.0  0.88479  0.39784  0.92208  1.0000
  C   C1361     1.0  0.76961  0.65458  0.88302  1.0000
  C   C1362     1.0  0.97904  0.43984  0.88814  1.0000
  C   C1363     1.0  0.97884  0.45801  0.89610  1.0000
  H   H1357     1.0  0.92026  0.53006  0.96598  1.0000
  H   H1358     1.0  0.96615  0.46533  0.89843  1.0000
  C   C1364     1.0  0.90283  0.49847  0.52067  1.0000
  H   H1359     1.0  0.86506  0.56493  0.95956  1.0000
  H   H1360     1.0  0.87588  0.52637  0.78843  1.0000
  C   C1365     1.0  0.91022  0.50335  0.96041  1.0000
  H   H1361     1.0  0.86129  0.48676  0.70673  1.0000
  H   H1362     1.0  0.99866  0.45774  0.83422  1.0000
  H   H1363     1.0  0.89677  0.47051  0.51438  1.0000
  C   C1366     1.0  0.94671  0.43291  0.80016  1.0000
  C   C1367     1.0  0.86428  0.56122  0.98210  1.0000
  H   H1364     1.0  0.90940  0.52647  0.51933  1.0000
  C   C1368     1.0  0.91417  0.51078  0.72231  1.0000
  C   C1369     1.0  0.90965  0.49356  0.71303  1.0000
  C   C1370     1.0  0.90696  0.47974  0.73330  1.0000
  C   C1371     1.0  0.90887  0.48289  0.76301  1.0000
  C   C1372     1.0  0.91419  0.49986  0.77222  1.0000
  C   C1373     1.0  0.91673  0.51373  0.75197  1.0000
  H   H1365     1.0  0.90778  0.49101  0.69032  1.0000
  H   H1366     1.0  0.90299  0.46660  0.72591  1.0000
  H   H1367     1.0  0.91574  0.50251  0.79497  1.0000
  H   H1368     1.0  0.92025  0.52700  0.75940  1.0000
  H   H1369     1.0  0.97831  0.52233  0.53199  1.0000
  C   C1374     1.0  0.98512  0.55025  0.59749  1.0000
  C   C1375     1.0  0.98463  0.55326  0.62718  1.0000
  S   S470      1.0  0.83481  0.62139  0.50225  1.0000
  H   H1370     1.0  0.97186  0.55402  0.63835  1.0000
  C   C1376     1.0  0.98610  0.45986  0.82264  1.0000
  C   C1377     1.0  0.86407  0.49563  0.72465  1.0000
  S   S471      1.0  0.81991  0.66607  0.95921  1.0000
  H   H1371     1.0  0.84128  0.63254  0.56211  1.0000
  C   C1378     1.0  0.94908  0.50534  0.54893  1.0000
  H   H1372     1.0  0.78247  0.64859  0.58227  1.0000
  N   N113      1.0  0.95853  0.44816  0.80439  1.0000
  C   C1379     1.0  0.84772  0.61186  0.53104  1.0000
  C   C1380     1.0  0.85743  0.59555  0.52636  1.0000
  C   C1381     1.0  0.86784  0.58743  0.54846  1.0000
  C   C1382     1.0  0.86871  0.59557  0.57558  1.0000
  C   C1383     1.0  0.85911  0.61193  0.58019  1.0000
  C   C1384     1.0  0.84864  0.62001  0.55813  1.0000
  H   H1373     1.0  0.94937  0.57593  0.53888  1.0000
  H   H1374     1.0  0.87515  0.57487  0.54452  1.0000
  H   H1375     1.0  0.85968  0.61837  0.60105  1.0000
  H   H1376     1.0  0.99596  0.41655  0.87849  1.0000
  C   C1385     1.0  0.95373  0.46481  0.79387  1.0000
  C   C1386     1.0  0.00075  0.55563  0.64245  1.0000
  C   C1387     1.0  0.97468  0.44548  0.81800  1.0000
  C   C1388     1.0  0.00183  0.54930  0.58330  1.0000
  H   H1377     1.0  0.90066  0.60797  0.52867  1.0000
  H   H1378     1.0  0.96065  0.49276  0.79033  1.0000
  C   C1389     1.0  0.77069  0.65233  0.59486  1.0000
  S   S472      1.0  0.78692  0.36160  0.99033  1.0000
  H   H1379     1.0  0.81987  0.35223  0.90984  1.0000
  C   C1390     1.0  0.76984  0.64775  0.62427  1.0000
  H   H1380     1.0  0.86261  0.66671  0.98267  1.0000
  N   N114      1.0  0.95797  0.50383  0.52085  1.0000
  S   S473      1.0  0.81002  0.66751  0.53468  1.0000
  C   C1391     1.0  0.94954  0.47317  0.96308  1.0000
  C   C1392     1.0  0.99568  0.43062  0.88465  1.0000
  C   C1393     1.0  0.94348  0.46856  0.99045  1.0000
  N   N115      1.0  0.92674  0.60177  0.58762  1.0000
  C   C1394     1.0  0.93978  0.59043  0.57639  1.0000
  C   C1395     1.0  0.91309  0.60835  0.57059  1.0000
  C   C1396     1.0  0.93916  0.58519  0.54749  1.0000
  C   C1397     1.0  0.91193  0.60321  0.54170  1.0000
  C   C1398     1.0  0.92504  0.59151  0.53014  1.0000
  C   C1399     1.0  0.92711  0.60692  0.61808  1.0000
  H   H1381     1.0  0.95062  0.58510  0.58981  1.0000
  H   H1382     1.0  0.90257  0.61708  0.57964  1.0000
  H   H1383     1.0  0.86074  0.47469  0.75645  1.0000
  H   H1384     1.0  0.94857  0.46369  0.94538  1.0000
  H   H1385     1.0  0.93839  0.60010  0.62984  1.0000
  H   H1386     1.0  0.92853  0.62171  0.62016  1.0000
  H   H1387     1.0  0.91437  0.60300  0.62872  1.0000
  C   C1400     1.0  0.87264  0.52416  0.74236  1.0000
  H   H1388     1.0  0.93257  0.43751  0.79606  1.0000
  C   C1401     1.0  0.86953  0.51970  0.69012  1.0000
  H   H1389     1.0  0.87684  0.53783  0.73848  1.0000
  H   H1390     1.0  0.87899  0.51103  0.67731  1.0000
  H   H1391     1.0  0.85600  0.51971  0.68006  1.0000
  H   H1392     1.0  0.87470  0.53361  0.68900  1.0000
  H   H1393     1.0  0.86806  0.49449  0.79750  1.0000
  C   C1402     1.0  0.82885  0.34449  0.89488  1.0000
  N   N116      1.0  0.86866  0.51308  0.71980  1.0000
  H   H1394     1.0  0.95148  0.42462  0.78165  1.0000
  H   H1395     1.0  0.94647  0.42436  0.81983  1.0000
  H   H1396     1.0  0.92415  0.58718  0.50790  1.0000
  H   H1397     1.0  0.95907  0.50695  0.56649  1.0000
  H   H1398     1.0  0.89903  0.47694  0.96190  1.0000
  C   C1403     1.0  0.86770  0.49990  0.77579  1.0000
  C   C1404     1.0  0.90093  0.48278  0.50409  1.0000
  H   H1399     1.0  0.96097  0.49394  0.93709  1.0000
  C   C1405     1.0  0.95076  0.49341  0.49974  1.0000
  H   H1400     1.0  0.93977  0.51727  0.54901  1.0000
  C   C1406     1.0  0.96477  0.47952  0.79820  1.0000
  S   S474      1.0  0.84076  0.35806  0.96646  1.0000
  H   H1401     1.0  0.97859  0.43222  0.82603  1.0000
  C   C1407     1.0  0.90263  0.48865  0.97424  1.0000
  H   H1402     1.0  0.00025  0.55824  0.66535  1.0000
  H   H1403     1.0  0.96302  0.51546  0.97766  1.0000
  H   H1404     1.0  0.87490  0.36978  0.94586  1.0000
  C   C1408     1.0  0.95662  0.49012  0.95848  1.0000
  C   C1409     1.0  0.87045  0.54422  0.99115  1.0000
  H   H1405     1.0  0.78237  0.34512  0.90524  1.0000
  S   S475      1.0  0.79436  0.63805  0.99260  1.0000
  C   C1410     1.0  0.90815  0.51426  0.50709  1.0000
  H   H1406     1.0  0.78538  0.34708  0.85188  1.0000
  H   H1407     1.0  0.87603  0.53457  0.97573  1.0000
  C   C1411     1.0  0.76781  0.64599  0.85617  1.0000
  C   C1412     1.0  0.97283  0.51376  0.51536  1.0000
  H   H1408     1.0  0.82429  0.34690  0.87240  1.0000
  S   S476      1.0  0.79473  0.36198  0.50475  1.0000
  H   H1409     1.0  0.93883  0.48578  0.50396  1.0000
  H   H1410     1.0  0.93766  0.45552  0.99408  1.0000
  H   H1411     1.0  0.76047  0.67699  0.90903  1.0000
  H   H1412     1.0  0.86562  0.40045  0.99386  1.0000
  Fe  Fe239     1.0  0.93946  0.95683  0.10926  1.0000
  S   S477      1.0  0.93388  0.98410  0.12830  1.0000
  S   S478      1.0  0.96581  0.95083  0.08589  1.0000
  Fe  Fe240     1.0  0.90018  0.94499  0.11759  1.0000
  S   S479      1.0  0.89191  0.97182  0.13742  1.0000
  S   S480      1.0  0.88089  0.92127  0.11644  1.0000
  Fe  Fe241     1.0  0.90863  0.98364  0.10187  1.0000
  H   H1413     1.0  0.77892  0.80419  0.06743  1.0000
  Fe  Fe242     1.0  0.91792  0.97005  0.16238  1.0000
  S   S481      1.0  0.92335  0.97378  0.21068  1.0000
  S   S482      1.0  0.91509  0.95712  0.08059  1.0000
  S   S483      1.0  0.92529  0.94239  0.14482  1.0000
  C   C1413     1.0  0.00278  0.95167  0.08778  1.0000
  H   H1414     1.0  0.97554  0.95183  0.14665  1.0000
  H   H1415     1.0  0.90412  0.89475  0.08516  1.0000
  Fe  Fe243     1.0  0.77865  0.84717  0.03851  1.0000
  S   S484      1.0  0.80591  0.84082  0.05711  1.0000
  C   C1414     1.0  0.76707  0.86905  0.28876  1.0000
  Fe  Fe244     1.0  0.79306  0.84168  0.47610  1.0000
  C   C1415     1.0  0.95588  0.00566  0.23800  1.0000
  S   S485      1.0  0.79008  0.83802  0.42717  1.0000
  Fe  Fe245     1.0  0.80595  0.81707  0.02669  1.0000
  S   S486      1.0  0.81264  0.78942  0.04578  1.0000
  Fe  Fe246     1.0  0.81651  0.85696  0.02003  1.0000
  S   S487      1.0  0.83893  0.87782  0.01867  1.0000
  H   H1416     1.0  0.00215  0.95150  0.06453  1.0000
  H   H1417     1.0  0.79064  0.69479  0.17746  1.0000
  C   C1416     1.0  0.78428  0.80411  0.13982  1.0000
  C   C1417     1.0  0.97015  0.99621  0.28227  1.0000
  H   H1418     1.0  0.97793  0.98636  0.29458  1.0000
  C   C1418     1.0  0.77524  0.80483  0.08999  1.0000
  C   C1419     1.0  0.94804  0.99103  0.04283  1.0000
  C   C1420     1.0  0.90506  0.00537  0.22804  1.0000
  H   H1419     1.0  0.95755  0.99153  0.46657  1.0000
  H   H1420     1.0  0.92404  0.90701  0.04789  1.0000
  H   H1421     1.0  0.76645  0.78701  0.49011  1.0000
  H   H1422     1.0  0.77574  0.67805  0.19159  1.0000
  H   H1423     1.0  0.78446  0.82697  0.36868  1.0000
  S   S488      1.0  0.77801  0.82253  0.01035  1.0000
  C   C1421     1.0  0.81169  0.76936  0.02515  1.0000
  C   C1422     1.0  0.81155  0.75259  0.03926  1.0000
  C   C1423     1.0  0.81145  0.73637  0.02344  1.0000
  H   H1424     1.0  0.81140  0.72356  0.03448  1.0000
  H   H1425     1.0  0.89893  0.88459  0.13197  1.0000
  C   C1424     1.0  0.94065  0.90120  0.12601  1.0000
  H   H1426     1.0  0.78333  0.85104  0.10670  1.0000
  C   C1425     1.0  0.91518  0.99004  0.23613  1.0000
  C   C1426     1.0  0.76626  0.80616  0.14788  1.0000
  S   S489      1.0  0.90230  0.00886  0.07608  1.0000
  C   C1427     1.0  0.91998  0.98794  0.26528  1.0000
  S   S490      1.0  0.81724  0.82603  0.49326  1.0000
  C   C1428     1.0  0.91771  0.89827  0.09092  1.0000
  H   H1427     1.0  0.92779  0.97615  0.27183  1.0000
  C   C1429     1.0  0.94825  0.00923  0.03548  1.0000
  H   H1428     1.0  0.91881  0.99921  0.30829  1.0000
  C   C1430     1.0  0.91369  0.00129  0.47772  1.0000
  H   H1429     1.0  0.00529  0.95124  0.17094  1.0000
  C   C1431     1.0  0.89912  0.99045  0.02491  1.0000
  C   C1432     1.0  0.77125  0.69175  0.12315  1.0000
  H   H1430     1.0  0.91809  0.87950  0.15446  1.0000
  H   H1431     1.0  0.89679  0.97861  0.03771  1.0000
  C   C1433     1.0  0.86874  0.91005  0.08880  1.0000
  C   C1434     1.0  0.87145  0.91344  0.05949  1.0000
  C   C1435     1.0  0.86218  0.90350  0.03847  1.0000
  C   C1436     1.0  0.84997  0.89014  0.04633  1.0000
  C   C1437     1.0  0.84721  0.88684  0.07564  1.0000
  C   C1438     1.0  0.85661  0.89665  0.09665  1.0000
  H   H1432     1.0  0.88075  0.92362  0.05300  1.0000
  H   H1433     1.0  0.86447  0.90619  0.01591  1.0000
  H   H1434     1.0  0.83792  0.87664  0.08214  1.0000
  H   H1435     1.0  0.85439  0.89385  0.11920  1.0000
  C   C1439     1.0  0.78931  0.86584  0.32635  1.0000
  C   C1440     1.0  0.98676  0.95172  0.10393  1.0000
  C   C1441     1.0  0.98776  0.95183  0.13397  1.0000
  H   H1436     1.0  0.95508  0.91593  0.06096  1.0000
  H   H1437     1.0  0.79210  0.85414  0.28380  1.0000
  H   H1438     1.0  0.86436  0.00027  0.06035  1.0000
  S   S491      1.0  0.91073  0.99983  0.44024  1.0000
  H   H1439     1.0  0.81155  0.75218  0.06252  1.0000
  C   C1442     1.0  0.77076  0.85087  0.11836  1.0000
  C   C1443     1.0  0.76227  0.88262  0.33549  1.0000
  H   H1440     1.0  0.80279  0.80176  0.10403  1.0000
  N   N117      1.0  0.76759  0.69028  0.15190  1.0000
  C   C1444     1.0  0.91496  0.00106  0.28602  1.0000
  H   H1441     1.0  0.83341  0.77506  0.42767  1.0000
  H   H1442     1.0  0.90128  0.00721  0.20574  1.0000
  H   H1443     1.0  0.80222  0.86042  0.33360  1.0000
  C   C1445     1.0  0.95225  0.90814  0.10530  1.0000
  C   C1446     1.0  0.77236  0.83418  0.37555  1.0000
  H   H1444     1.0  0.94517  0.90020  0.14815  1.0000
  N   N118      1.0  0.78615  0.77501  0.46238  1.0000
  C   C1447     1.0  0.79562  0.75910  0.45870  1.0000
  S   S492      1.0  0.78459  0.68852  0.48534  1.0000
  C   C1448     1.0  0.00464  0.95152  0.14769  1.0000
  H   H1445     1.0  0.94751  0.96387  0.02689  1.0000
  C   C1449     1.0  0.78475  0.87973  0.37387  1.0000
  H   H1446     1.0  0.78535  0.80340  0.45518  1.0000
  C   C1450     1.0  0.86951  0.99532  0.49325  1.0000
  H   H1447     1.0  0.84169  0.00277  0.04653  1.0000
  C   C1451     1.0  0.85617  0.00320  0.04078  1.0000
  C   C1452     1.0  0.78883  0.80333  0.11069  1.0000
  C   C1453     1.0  0.81275  0.75887  0.44620  1.0000
  C   C1454     1.0  0.78166  0.68369  0.17162  1.0000
  H   H1448     1.0  0.85047  0.72186  0.03996  1.0000
  C   C1455     1.0  0.96604  0.99293  0.25346  1.0000
  C   C1456     1.0  0.90263  0.00684  0.03834  1.0000
  H   H1449     1.0  0.97034  0.98040  0.24319  1.0000
  S   S493      1.0  0.78893  0.86486  0.00289  1.0000
  H   H1450     1.0  0.79021  0.74649  0.46615  1.0000
  N   N119      1.0  0.77852  0.87574  0.34467  1.0000
  C   C1457     1.0  0.92893  0.90520  0.06970  1.0000
  H   H1451     1.0  0.86920  0.99461  0.46990  1.0000
  C   C1458     1.0  0.77084  0.84917  0.14852  1.0000
  H   H1452     1.0  0.77325  0.88074  0.38917  1.0000
  C   C1459     1.0  0.78370  0.86224  0.29820  1.0000
  H   H1453     1.0  0.82046  0.74626  0.44438  1.0000
  N   N120      1.0  0.92361  0.89640  0.11868  1.0000
  C   C1460     1.0  0.77106  0.84056  0.40408  1.0000
  C   C1461     1.0  0.94631  0.91015  0.07700  1.0000
  C   C1462     1.0  0.95920  0.99099  0.48979  1.0000
  H   H1454     1.0  0.85560  0.69237  0.06476  1.0000
  C   C1463     1.0  0.82003  0.77501  0.43702  1.0000
  H   H1455     1.0  0.96558  0.91250  0.11127  1.0000
  C   C1464     1.0  0.79300  0.79083  0.45280  1.0000
  H   H1456     1.0  0.78352  0.84789  0.15981  1.0000
  C   C1465     1.0  0.85412  0.71044  0.99758  1.0000
  C   C1466     1.0  0.85344  0.70971  0.02764  1.0000
  H   H1457     1.0  0.79471  0.80340  0.15609  1.0000
  H   H1458     1.0  0.81544  0.80378  0.43286  1.0000
  H   H1459     1.0  0.78425  0.68738  0.11468  1.0000
  H   H1460     1.0  0.95212  0.00294  0.21586  1.0000
  C   C1467     1.0  0.81004  0.79110  0.44006  1.0000
  H   H1461     1.0  0.91228  0.97257  0.48337  1.0000
  H   H1462     1.0  0.90724  0.90171  0.15516  1.0000
  H   H1463     1.0  0.96066  0.96210  0.49141  1.0000
  C   C1468     1.0  0.91143  0.89016  0.14119  1.0000
  C   C1469     1.0  0.85624  0.69320  0.04148  1.0000
  H   H1464     1.0  0.85945  0.99226  0.02512  1.0000
  C   C1470     1.0  0.76824  0.77515  0.47561  1.0000
  C   C1471     1.0  0.94782  0.97803  0.02118  1.0000
  C   C1472     1.0  0.81173  0.76976  0.99508  1.0000
  C   C1473     1.0  0.86014  0.67891  0.99514  1.0000
  H   H1465     1.0  0.94785  0.98699  0.06529  1.0000
  H   H1466     1.0  0.76638  0.76302  0.48917  1.0000
  H   H1467     1.0  0.79386  0.86878  0.38216  1.0000
  H   H1468     1.0  0.79199  0.89260  0.37403  1.0000
  H   H1469     1.0  0.76246  0.86619  0.26707  1.0000
  H   H1470     1.0  0.76259  0.80731  0.17046  1.0000
  C   C1474     1.0  0.89745  0.98961  0.99486  1.0000
  C   C1475     1.0  0.85973  0.67770  0.02518  1.0000
  H   H1471     1.0  0.76078  0.69861  0.08108  1.0000
  C   C1476     1.0  0.91363  0.98542  0.49407  1.0000
  Fe  Fe247     1.0  0.93974  0.94648  0.62184  1.0000
  S   S494      1.0  0.93816  0.97487  0.63812  1.0000
  S   S495      1.0  0.96652  0.93133  0.61632  1.0000
  Fe  Fe248     1.0  0.89851  0.94370  0.61592  1.0000
  S   S496      1.0  0.89425  0.97218  0.63243  1.0000
  S   S497      1.0  0.87210  0.92994  0.60421  1.0000
  Fe  Fe249     1.0  0.91736  0.97883  0.60338  1.0000
  H   H1472     1.0  0.79331  0.72237  0.52719  1.0000
  Fe  Fe250     1.0  0.91534  0.96577  0.66599  1.0000
  S   S498      1.0  0.91477  0.96955  0.71510  1.0000
  S   S499      1.0  0.92044  0.95099  0.58495  1.0000
  S   S500      1.0  0.91805  0.93672  0.65153  1.0000
  H   H1473     1.0  0.81249  0.75402  0.95603  1.0000
  C   C1477     1.0  0.87246  0.99654  0.55271  1.0000
  C   C1478     1.0  0.90946  0.00005  0.78789  1.0000
  Fe  Fe251     1.0  0.78162  0.85234  0.53782  1.0000
  S   S501      1.0  0.80477  0.83723  0.55795  1.0000
  C   C1479     1.0  0.77547  0.85200  0.61698  1.0000
  Fe  Fe252     1.0  0.79060  0.83951  0.97615  1.0000
  H   H1474     1.0  0.96259  0.98101  0.80606  1.0000
  S   S502      1.0  0.78580  0.83495  0.92780  1.0000
  H   H1475     1.0  0.81795  0.89855  0.97755  1.0000
  N   N121      1.0  0.96202  0.97371  0.53337  1.0000
  Fe  Fe253     1.0  0.82122  0.84979  0.52310  1.0000
  S   S503      1.0  0.84928  0.86030  0.53329  1.0000
  H   H1476     1.0  0.96291  0.98873  0.57253  1.0000
  N   N122      1.0  0.76194  0.80865  0.61350  1.0000
  H   H1477     1.0  0.78834  0.68775  0.57723  1.0000
  C   C1480     1.0  0.78136  0.70091  0.58142  1.0000
  N   N123      1.0  0.94855  0.00132  0.98527  1.0000
  H   H1478     1.0  0.87449  0.99709  0.57583  1.0000
  H   H1479     1.0  0.78664  0.84006  0.65549  1.0000
  C   C1481     1.0  0.86890  0.97960  0.50979  1.0000
  H   H1480     1.0  0.86620  0.96618  0.57864  1.0000
  C   C1482     1.0  0.96074  0.97440  0.50400  1.0000
  H   H1481     1.0  0.88360  0.87774  0.65967  1.0000
  H   H1482     1.0  0.81190  0.78255  0.98395  1.0000
  H   H1483     1.0  0.81027  0.87437  0.61796  1.0000
  H   H1484     1.0  0.94739  0.97329  0.97557  1.0000
  H   H1485     1.0  0.97867  0.95229  0.54940  1.0000
  H   H1486     1.0  0.00489  0.98401  0.60605  1.0000
  C   C1483     1.0  0.00459  0.96954  0.60861  1.0000
  Fe  Fe254     1.0  0.81326  0.68826  0.49973  1.0000
  H   H1487     1.0  0.88284  0.89880  0.64008  1.0000
  H   H1488     1.0  0.95855  0.95678  0.56995  1.0000
  H   H1489     1.0  0.78768  0.85005  0.60494  1.0000
  C   C1484     1.0  0.91071  0.98827  0.73845  1.0000
  C   C1485     1.0  0.90668  0.00563  0.72821  1.0000
  H   H1490     1.0  0.90558  0.00792  0.70528  1.0000
  C   C1486     1.0  0.91196  0.98559  0.76840  1.0000
  N   N124      1.0  0.77191  0.70057  0.60911  1.0000
  C   C1487     1.0  0.87031  0.96370  0.55591  1.0000
  H   H1491     1.0  0.91499  0.97222  0.77659  1.0000
  Fe  Fe255     1.0  0.79847  0.81533  0.52662  1.0000
  C   C1488     1.0  0.77491  0.84654  0.64585  1.0000
  S   S504      1.0  0.81382  0.71689  0.97236  1.0000
  H   H1492     1.0  0.81882  0.84577  0.89448  1.0000
  C   C1489     1.0  0.91505  0.98608  0.52417  1.0000
  H   H1493     1.0  0.79233  0.68427  0.62929  1.0000
  C   C1490     1.0  0.95370  0.99932  0.77274  1.0000
  H   H1494     1.0  0.91478  0.97380  0.53647  1.0000
  C   C1491     1.0  0.86635  0.91179  0.58106  1.0000
  C   C1492     1.0  0.87923  0.89957  0.56995  1.0000
  C   C1493     1.0  0.87378  0.88419  0.55464  1.0000
  C   C1494     1.0  0.85543  0.88092  0.54991  1.0000
  C   C1495     1.0  0.84261  0.89355  0.55999  1.0000
  C   C1496     1.0  0.84805  0.90882  0.57556  1.0000
  H   H1495     1.0  0.89336  0.90162  0.57391  1.0000
  H   H1496     1.0  0.88384  0.87457  0.54682  1.0000
  H   H1497     1.0  0.82846  0.89131  0.55649  1.0000
  H   H1498     1.0  0.83793  0.91817  0.58399  1.0000
  C   C1497     1.0  0.98798  0.96120  0.61234  1.0000
  C   C1498     1.0  0.98732  0.94245  0.61474  1.0000
  H   H1499     1.0  0.83956  0.85683  0.90294  1.0000
  H   H1500     1.0  0.97567  0.96925  0.61291  1.0000
  C   C1499     1.0  0.96417  0.95624  0.54781  1.0000
  H   H1501     1.0  0.89410  0.97702  0.98466  1.0000
  H   H1502     1.0  0.77837  0.89348  0.91072  1.0000
  H   H1503     1.0  0.85601  0.68286  0.93999  1.0000
  C   C1500     1.0  0.91644  0.00265  0.53818  1.0000
  H   H1504     1.0  0.78577  0.80211  0.63745  1.0000
  H   H1505     1.0  0.91060  0.99776  0.81081  1.0000
  C   C1501     1.0  0.81207  0.75355  0.97930  1.0000
  C   C1502     1.0  0.76886  0.84182  0.90257  1.0000
  H   H1506     1.0  0.78100  0.78724  0.60749  1.0000
  S   S505      1.0  0.91739  0.00406  0.57602  1.0000
  C   C1503     1.0  0.94850  0.00665  0.95487  1.0000
  H   H1507     1.0  0.84613  0.70498  0.94234  1.0000
  H   H1508     1.0  0.95692  0.94553  0.53625  1.0000
  H   H1509     1.0  0.00316  0.91772  0.61631  1.0000
  C   C1504     1.0  0.77966  0.69169  0.63192  1.0000
  C   C1505     1.0  0.81886  0.76716  0.51995  1.0000
  H   H1510     1.0  0.78943  0.90920  0.95447  1.0000
  H   H1511     1.0  0.88849  0.87843  0.62148  1.0000
  S   S506      1.0  0.79049  0.78771  0.54220  1.0000
  N   N125      1.0  0.81631  0.86848  0.92290  1.0000
  C   C1506     1.0  0.82255  0.87709  0.94677  1.0000
  C   C1507     1.0  0.80089  0.87455  0.90959  1.0000
  C   C1508     1.0  0.81312  0.89202  0.95822  1.0000
  C   C1509     1.0  0.79095  0.88922  0.92076  1.0000
  C   C1510     1.0  0.79713  0.89798  0.94526  1.0000
  C   C1511     1.0  0.82639  0.85274  0.91167  1.0000
  H   H1512     1.0  0.83472  0.87224  0.95746  1.0000
  H   H1513     1.0  0.82858  0.84267  0.92911  1.0000
  H   H1514     1.0  0.79582  0.86763  0.89082  1.0000
  C   C1512     1.0  0.80144  0.76744  0.53131  1.0000
  H   H1515     1.0  0.93460  0.00638  0.94619  1.0000
  C   C1513     1.0  0.96211  0.98925  0.54923  1.0000
  S   S507      1.0  0.77427  0.82977  0.50821  1.0000
  H   H1516     1.0  0.95246  0.98889  0.75649  1.0000
  N   N126      1.0  0.86074  0.88159  0.63288  1.0000
  C   C1514     1.0  0.85560  0.86681  0.61764  1.0000
  C   C1515     1.0  0.84809  0.89360  0.64346  1.0000
  C   C1516     1.0  0.83740  0.86396  0.61213  1.0000
  C   C1517     1.0  0.82976  0.89113  0.63843  1.0000
  C   C1518     1.0  0.82441  0.87622  0.62258  1.0000
  C   C1519     1.0  0.87985  0.88420  0.63892  1.0000
  H   H1517     1.0  0.86559  0.85744  0.60874  1.0000
  H   H1518     1.0  0.85220  0.90546  0.65519  1.0000
  H   H1519     1.0  0.83349  0.85263  0.59897  1.0000
  H   H1520     1.0  0.81979  0.90087  0.64633  1.0000
  H   H1521     1.0  0.86078  0.95387  0.54695  1.0000
  N   N127      1.0  0.87016  0.98040  0.53915  1.0000
  H   H1522     1.0  0.77889  0.75133  0.54308  1.0000
  H   H1523     1.0  0.78954  0.80935  0.60132  1.0000
  H   H1524     1.0  0.88402  0.95740  0.55592  1.0000
  H   H1525     1.0  0.87039  0.70204  0.94306  1.0000
  C   C1520     1.0  0.79236  0.75120  0.53423  1.0000
  H   H1526     1.0  0.78006  0.82484  0.86900  1.0000
  C   C1521     1.0  0.78046  0.80143  0.61514  1.0000
  Fe  Fe256     1.0  0.80704  0.68839  0.98551  1.0000
  C   C1522     1.0  0.80049  0.73478  0.52537  1.0000
  C   C1523     1.0  0.85752  0.69628  0.95023  1.0000
  C   C1524     1.0  0.89961  0.00505  0.97802  1.0000
  S   S508      1.0  0.77917  0.67893  0.97699  1.0000
  H   H1527     1.0  0.77183  0.70306  0.56324  1.0000
  H   H1528     1.0  0.84078  0.75046  0.50347  1.0000
  H   H1529     1.0  0.95727  0.99743  0.94182  1.0000
  C   C1525     1.0  0.76965  0.83473  0.87444  1.0000
  C   C1526     1.0  0.96028  0.00840  0.82138  1.0000
  C   C1527     1.0  0.77105  0.69147  0.65869  1.0000
  S   S509      1.0  0.81891  0.83252  0.99099  1.0000
  C   C1528     1.0  0.00353  0.93223  0.61450  1.0000
  H   H1530     1.0  0.79140  0.71172  0.58134  1.0000
  S   S510      1.0  0.79825  0.86613  0.50392  1.0000
  S   S511      1.0  0.89564  0.00385  0.94076  1.0000
  H   H1531     1.0  0.77681  0.68376  0.67645  1.0000
  C   C1529     1.0  0.96069  0.00605  0.53570  1.0000
  S   S512      1.0  0.82869  0.71413  0.50305  1.0000
  H   H1532     1.0  0.76420  0.81551  0.56910  1.0000
  C   C1530     1.0  0.81800  0.73445  0.51434  1.0000
  C   C1531     1.0  0.95925  0.99489  0.80058  1.0000
  H   H1533     1.0  0.82602  0.77959  0.51778  1.0000
  H   H1534     1.0  0.96463  0.00519  0.84312  1.0000
  H   H1535     1.0  0.85161  0.72328  0.98694  1.0000
  H   H1536     1.0  0.86783  0.96673  0.49896  1.0000
  N   N128      1.0  0.85708  0.69511  0.98173  1.0000
  C   C1532     1.0  0.95923  0.00689  0.50579  1.0000
  C   C1533     1.0  0.82720  0.75066  0.51189  1.0000
  C   C1534     1.0  0.76028  0.85990  0.60393  1.0000
  C   C1535     1.0  0.94789  0.98345  0.99231  1.0000
  C   C1536     1.0  0.81190  0.73680  0.99334  1.0000
