data_image0
_chemical_formula_structural       C2H2CSHSC2HSFeH3CHCSHFeHC2H2C7H5CNH2NHSHFeH4CHCNC2H4CHC3H4CHCSH2S2H2CSHSNH2C2HSCHCSHCS2CHCHSH2C7H4SHCH2CH2CHC6HC2H4SHCFeCHC2SFeHCH2CHFeSHNCFeSFeSHSFeHFeS2FeSHSCSCFeSHSHCFeS2CS2CFeCH2C6H4C6H3FeHC2HCHC6H4C6H6C4HC2H4CSCHFeH2CNS2HNHCHC3SHCHCH2SCHC2HCNHFeCNCH3C3H2CHCHCSC2H3FeC2H2C3H4NHNFe2HC5SCSCHCH4C2HC3FeCH2CSCHSFeSFeSCSFeSFeS2FeS3HSHFeSCHFeCFeS2HN2SNCH2C6H4C6H3C2H2C2HC6H4C6H4C4HCHC3FeCH2CHNCH2C2SNHSC3H2C2H5CHCHCFeHFeCHC3HNCHC2H2SHCH2C2HC2HC2HC3H3NH2FeHC3H2C2FeH2CH5NSHCHCSCHSHSCH2SH3C2SH2CH2CSHFe2S2FeSCFeSFeS3FeS2FeSCS2FeS2H2SCHFeSNHFeS2FeSH2SC7H4C6H4C6H4CHNHCH2C9H5C5HSH2C6H4CHCH2C2HCHCHNCH2NC5SH5FeCH3CH3SC4H3CSFeH2SH2C2HCH2CHNC3HCHC2HS2CFeC2HNC2S2CH4CH2FeCH2NCH2C3H6CH5FeS2FeS2FeNFeS3FeHSFeS2H2FeS2HCSFeCFeSCSFeS2FeSC2S2C6H4C6H4C6H6CSHSCHCHC6HCH2C7SH2C6H3CFeNC6H8SCH3CSH6C2HCHFeCH5SCFeH2SNC3SC3HCH4CH7SCHNH2C3FeHCFeHCH3C2HC2HNHSCH2SFeCSFeS2FeSFeSHSHFeS2CFeS2C2SCFeHSFeS4HFeS2FeHFeSCSC6H4C6H4C6H4SC2FeSHC3HC6H4C6H4C6H4CH2CH4CH2C2N2H3SH3C4NC3HSC2HSNH4CHC2H2N2C3HCH3CH2CH2CHC4HFeH2SCSHNHC3HCFeCH3FeSH5C2FeH3C3HCSHCSFeS2HSFeSH3FeS2CFeS2C2H2FeHSFeCSFeSHFeS2FeHFeSCSC6H4C6H2CHC6H5CSC2FeH2FeC7H4C6H4C6H4NC2H7NC2SH2SHCSH2S2HNHNC6H2CS3C3H2SCH3C3SH2CH4SFe2HCHCH2NH2CHCSHSH2C2SHNHNCFeHNH2FeHSHFeSC2SFeSC3FeS2FeS2HFeSCHSHFeC3H4SC6H4C6H2FeC7H4C6H5C2HSCSCHNCH2SHCSHC2SH4C2NHNHSC2NS3FeC3H6FeSHCFeCSC3H3C2SHC2FeHFeSH2CHCH2C5HCH6CS2C2HSH2CHCH4CSC2FeH3CFeS3CSHNSFeSHFeHFeS2FeS3FeSHS2CHNHC3H3C6H4C5H3C8H4C6H4C2H2CHC2HCHNCH2FeHNCH2CNCHC2H2CHCNHCHCH2C4SC3H2CHCHSH2C4HSCS3CH2S2HCHCFeC2FeHCHC2HCH3FeCHFeHC4HC2HCH2FeSFeHCH2FeC2H3NC2NH3C4NSCH3C2H2FeSCS2FeH2S2HCH3SH4C6FeCHCSNH2C8H2CH5CHCHC2NHS2CHCHCHCHCH3CH3C2SH3N2CS2H3C7H6NC6H2FeHS2H3SCSC2H5SH4CH2CHCH
_chemical_formula_sum              "C768 H768 S256 Fe128 N64"
_cell_length_a       51.5209
_cell_length_b       51.0702
_cell_length_c       38.9194
_cell_angle_alpha    90.4747
_cell_angle_beta     90.1955
_cell_angle_gamma    89.203

_space_group_name_H-M_alt    "P 1"
_space_group_IT_number       1

loop_
  _space_group_symop_operation_xyz
  'x, y, z'

loop_
  _atom_site_type_symbol
  _atom_site_label
  _atom_site_symmetry_multiplicity
  _atom_site_fract_x
  _atom_site_fract_y
  _atom_site_fract_z
  _atom_site_occupancy
  C   C1        1.0  0.26885  0.49368  0.26290  1.0000
  C   C2        1.0  0.24638  0.50749  0.27343  1.0000
  H   H1        1.0  0.05945  0.37503  0.34985  1.0000
  H   H2        1.0  0.05669  0.04746  0.05472  1.0000
  C   C3        1.0  0.29069  0.50707  0.25059  1.0000
  S   S1        1.0  0.03632  0.13348  0.10568  1.0000
  H   H3        1.0  0.26307  0.50983  0.17978  1.0000
  S   S2        1.0  0.14673  0.49907  0.25561  1.0000
  C   C4        1.0  0.08130  0.07038  0.13016  1.0000
  C   C5        1.0  0.04808  0.08553  0.07637  1.0000
  H   H4        1.0  0.07279  0.10867  0.15163  1.0000
  S   S3        1.0  0.08287  0.48057  0.30890  1.0000
  Fe  Fe1       1.0  0.12004  0.50310  0.30098  1.0000
  H   H5        1.0  0.04342  0.18857  0.49629  1.0000
  H   H6        1.0  0.01698  0.29564  0.49708  1.0000
  H   H7        1.0  0.05382  0.48935  0.41030  1.0000
  C   C6        1.0  0.04292  0.43178  0.26469  1.0000
  H   H8        1.0  0.30760  0.49622  0.24172  1.0000
  C   C7        1.0  0.05740  0.51007  0.40347  1.0000
  S   S4        1.0  0.06128  0.39596  0.42219  1.0000
  H   H9        1.0  0.09408  0.06461  0.15097  1.0000
  Fe  Fe2       1.0  0.17911  0.51069  0.29133  1.0000
  H   H10       1.0  0.08037  0.42120  0.28479  1.0000
  C   C8        1.0  0.06931  0.09532  0.13043  1.0000
  C   C9        1.0  0.05264  0.10293  0.10357  1.0000
  H   H11       1.0  0.03378  0.24280  0.43689  1.0000
  H   H12       1.0  0.07474  0.36320  0.31071  1.0000
  C   C10       1.0  0.06020  0.06074  0.07597  1.0000
  C   C11       1.0  0.07707  0.46003  0.34406  1.0000
  C   C12       1.0  0.05145  0.45269  0.35093  1.0000
  C   C13       1.0  0.04623  0.43390  0.37604  1.0000
  C   C14       1.0  0.06668  0.42231  0.39435  1.0000
  C   C15       1.0  0.09221  0.43042  0.38844  1.0000
  C   C16       1.0  0.09742  0.44931  0.36339  1.0000
  H   H13       1.0  0.03562  0.46096  0.33601  1.0000
  H   H14       1.0  0.02651  0.42771  0.38037  1.0000
  H   H15       1.0  0.10809  0.42143  0.40253  1.0000
  H   H16       1.0  0.11724  0.45473  0.35811  1.0000
  H   H17       1.0  0.06613  0.19381  0.46173  1.0000
  C   C17       1.0  0.07680  0.05307  0.10283  1.0000
  N   N1        1.0  0.02687  0.20292  0.44969  1.0000
  H   H18       1.0  0.26917  0.47250  0.26365  1.0000
  H   H19       1.0  0.03536  0.09124  0.05551  1.0000
  N   N2        1.0  0.22317  0.51526  0.19292  1.0000
  H   H20       1.0  0.10649  0.50729  0.38251  1.0000
  S   S5        1.0  0.21841  0.49004  0.28576  1.0000
  H   H21       1.0  0.01749  0.36000  0.01527  1.0000
  Fe  Fe3       1.0  0.02014  0.38430  0.43404  1.0000
  H   H22       1.0  0.08616  0.39226  0.33260  1.0000
  H   H23       1.0  0.04338  0.27332  0.06323  1.0000
  H   H24       1.0  0.23556  0.47664  0.20617  1.0000
  H   H25       1.0  0.05025  0.44813  0.25012  1.0000
  C   C18       1.0  0.05989  0.41649  0.28454  1.0000
  H   H26       1.0  0.02398  0.04634  0.13320  1.0000
  C   C19       1.0  0.06864  0.38098  0.32531  1.0000
  N   N3        1.0  0.05062  0.39685  0.30464  1.0000
  C   C20       1.0  0.04833  0.20150  0.47448  1.0000
  C   C21       1.0  0.21832  0.48713  0.19553  1.0000
  H   H27       1.0  0.20210  0.48333  0.21357  1.0000
  H   H28       1.0  0.01606  0.16316  0.45714  1.0000
  H   H29       1.0  0.20375  0.02969  0.26023  1.0000
  H   H30       1.0  0.21337  0.47895  0.16989  1.0000
  C   C22       1.0  0.02472  0.39128  0.30462  1.0000
  H   H31       1.0  0.05229  0.22104  0.48603  1.0000
  C   C23       1.0  0.02856  0.27288  0.04247  1.0000
  C   C24       1.0  0.02301  0.31888  0.02624  1.0000
  C   C25       1.0  0.02228  0.22553  0.43190  1.0000
  H   H32       1.0  0.01701  0.02529  0.18976  1.0000
  H   H33       1.0  0.25962  0.03032  0.20602  1.0000
  H   H34       1.0  0.01587  0.25571  0.04642  1.0000
  H   H35       1.0  0.06021  0.51128  0.37516  1.0000
  C   C26       1.0  0.01646  0.42632  0.26463  1.0000
  H   H36       1.0  0.17380  0.03162  0.28439  1.0000
  C   C27       1.0  0.10437  0.51635  0.40768  1.0000
  S   S6        1.0  0.15294  0.51018  0.33779  1.0000
  H   H37       1.0  0.04080  0.31741  0.01143  1.0000
  H   H38       1.0  0.03845  0.26982  0.01737  1.0000
  S   S7        1.0  0.13485  0.01960  0.19244  1.0000
  S   S8        1.0  0.09090  0.02146  0.10133  1.0000
  H   H39       1.0  0.01733  0.37571  0.32053  1.0000
  H   H40       1.0  0.20027  0.50009  0.87011  1.0000
  C   C28       1.0  0.01490  0.25836  0.52295  1.0000
  S   S9        1.0  0.14894  0.05239  0.63828  1.0000
  H   H41       1.0  0.10050  0.03086  0.66058  1.0000
  S   S10       1.0  0.32787  0.02706  0.74105  1.0000
  N   N4        1.0  0.23269  0.48906  0.83835  1.0000
  H   H42       1.0  0.02213  0.43126  0.74036  1.0000
  H   H43       1.0  0.26382  0.44916  0.76396  1.0000
  C   C29       1.0  0.04651  0.03211  0.73020  1.0000
  C   C30       1.0  0.29695  0.51294  0.72662  1.0000
  H   H44       1.0  0.03078  0.26256  0.54032  1.0000
  S   S11       1.0  0.14612  0.47668  0.85410  1.0000
  C   C31       1.0  0.21843  0.47053  0.82142  1.0000
  H   H45       1.0  0.19836  0.46719  0.82839  1.0000
  C   C32       1.0  0.03909  0.07344  0.70181  1.0000
  S   S12       1.0  0.32073  0.49821  0.69989  1.0000
  H   H46       1.0  0.03435  0.41080  0.77425  1.0000
  C   C33       1.0  0.25795  0.49325  0.82944  1.0000
  S   S13       1.0  0.03164  0.08001  0.60436  1.0000
  S   S14       1.0  0.03874  0.41755  0.85065  1.0000
  C   C34       1.0  0.26962  0.47867  0.80296  1.0000
  H   H47       1.0  0.21784  0.44157  0.78068  1.0000
  C   C35       1.0  0.09632  0.04704  0.64380  1.0000
  H   H48       1.0  0.07994  0.10695  0.58643  1.0000
  S   S15       1.0  0.17598  0.50783  0.76889  1.0000
  H   H49       1.0  0.04691  0.09097  0.69042  1.0000
  H   H50       1.0  0.28949  0.48249  0.79541  1.0000
  C   C36       1.0  0.07060  0.05274  0.63469  1.0000
  C   C37       1.0  0.11595  0.46082  0.85380  1.0000
  C   C38       1.0  0.10867  0.44551  0.88189  1.0000
  C   C39       1.0  0.08467  0.43262  0.88183  1.0000
  C   C40       1.0  0.06812  0.43471  0.85338  1.0000
  C   C41       1.0  0.07541  0.45016  0.82547  1.0000
  C   C42       1.0  0.09913  0.46333  0.82576  1.0000
  H   H51       1.0  0.12164  0.44346  0.90364  1.0000
  H   H52       1.0  0.07925  0.42062  0.90336  1.0000
  H   H53       1.0  0.06275  0.45185  0.80338  1.0000
  H   H54       1.0  0.10464  0.47489  0.80389  1.0000
  S   S16       1.0  0.03234  0.37727  0.94355  1.0000
  H   H55       1.0  0.27816  0.03920  0.71148  1.0000
  C   C43       1.0  0.22938  0.45587  0.79445  1.0000
  H   H56       1.0  0.07688  0.05905  0.71789  1.0000
  H   H57       1.0  0.12604  0.09581  0.60084  1.0000
  C   C44       1.0  0.25515  0.46003  0.78520  1.0000
  H   H58       1.0  0.26900  0.50845  0.84222  1.0000
  H   H59       1.0  0.05527  0.04024  0.64364  1.0000
  C   C45       1.0  0.22115  0.50459  0.86636  1.0000
  H   H60       1.0  0.23151  0.50054  0.89083  1.0000
  C   C46       1.0  0.11646  0.06215  0.63116  1.0000
  C   C47       1.0  0.09731  0.02001  0.55955  1.0000
  C   C48       1.0  0.05617  0.05537  0.71711  1.0000
  C   C49       1.0  0.06453  0.07439  0.61423  1.0000
  C   C50       1.0  0.08448  0.09020  0.60231  1.0000
  C   C51       1.0  0.11050  0.08398  0.61067  1.0000
  H   H61       1.0  0.26512  0.49349  0.70155  1.0000
  C   C52       1.0  0.07082  0.02046  0.55146  1.0000
  C   C53       1.0  0.27703  0.02002  0.72299  1.0000
  H   H62       1.0  0.10500  0.51753  0.86209  1.0000
  H   H63       1.0  0.31869  0.04345  0.81952  1.0000
  H   H64       1.0  0.01573  0.43981  0.78476  1.0000
  H   H65       1.0  0.23108  0.51503  0.73764  1.0000
  S   S17       1.0  0.02576  0.13756  0.52870  1.0000
  H   H66       1.0  0.02482  0.25010  0.94706  1.0000
  C   C54       1.0  0.01761  0.42329  0.76608  1.0000
  Fe  Fe4       1.0  0.15047  0.50912  0.81564  1.0000
  C   C55       1.0  0.27061  0.50721  0.72154  1.0000
  H   H67       1.0  0.11623  0.50103  0.91994  1.0000
  C   C56       1.0  0.30778  0.02665  0.82799  1.0000
  C   C57       1.0  0.01995  0.02726  0.72804  1.0000
  S   S18       1.0  0.01515  0.30419  0.93241  1.0000
  Fe  Fe5       1.0  0.01934  0.39849  0.89592  1.0000
  H   H68       1.0  0.10591  0.03728  0.57086  1.0000
  C   C58       1.0  0.28166  0.02406  0.81877  1.0000
  H   H69       1.0  0.27255  0.03917  0.80322  1.0000
  H   H70       1.0  0.05900  0.03775  0.55710  1.0000
  C   C59       1.0  0.10272  0.51741  0.91726  1.0000
  H   H71       1.0  0.28106  0.92526  0.18819  1.0000
  Fe  Fe6       1.0  0.05554  0.88159  0.46898  1.0000
  S   S19       1.0  0.08942  0.85695  0.45159  1.0000
  H   H72       1.0  0.11117  0.80668  0.49336  1.0000
  N   N5        1.0  0.32884  0.98056  0.16733  1.0000
  C   C60       1.0  0.05224  0.91819  0.26976  1.0000
  Fe  Fe7       1.0  0.05954  0.82703  0.43765  1.0000
  S   S20       1.0  0.07214  0.78499  0.44786  1.0000
  Fe  Fe8       1.0  0.08170  0.87430  0.39973  1.0000
  S   S21       1.0  0.11352  0.88383  0.36240  1.0000
  H   H73       1.0  0.04682  0.96534  0.03247  1.0000
  S   S22       1.0  0.05040  0.90183  0.41820  1.0000
  Fe  Fe9       1.0  0.16973  0.99488  0.17740  1.0000
  H   H74       1.0  0.19156  0.57357  0.19985  1.0000
  Fe  Fe10      1.0  0.13590  0.94933  0.15432  1.0000
  S   S23       1.0  0.09904  0.96992  0.16944  1.0000
  S   S24       1.0  0.13579  0.91087  0.12544  1.0000
  Fe  Fe11      1.0  0.12097  0.98238  0.21636  1.0000
  S   S25       1.0  0.10195  0.98402  0.26854  1.0000
  H   H75       1.0  0.09392  0.70406  0.40732  1.0000
  S   S26       1.0  0.15674  0.95852  0.20395  1.0000
  C   C61       1.0  0.08366  0.68528  0.40304  1.0000
  S   S27       1.0  0.17415  0.55371  0.28237  1.0000
  C   C62       1.0  0.20742  0.55975  0.19524  1.0000
  Fe  Fe12      1.0  0.14547  0.55260  0.32583  1.0000
  S   S28       1.0  0.14551  0.58134  0.37020  1.0000
  H   H76       1.0  0.05467  0.84210  0.00877  1.0000
  S   S29       1.0  0.04204  0.90271  0.02018  1.0000
  H   H77       1.0  0.03828  0.78770  0.06605  1.0000
  C   C63       1.0  0.04668  0.94468  0.26383  1.0000
  Fe  Fe13      1.0  0.05038  0.64098  0.08840  1.0000
  S   S30       1.0  0.05297  0.60425  0.05690  1.0000
  S   S31       1.0  0.05648  0.64063  0.14573  1.0000
  C   C64       1.0  0.25204  0.55050  0.18043  1.0000
  S   S32       1.0  0.04035  0.59271  0.45259  1.0000
  S   S33       1.0  0.07080  0.66585  0.04991  1.0000
  C   C65       1.0  0.07757  0.53081  0.45380  1.0000
  Fe  Fe14      1.0  0.02353  0.86884  0.40593  1.0000
  C   C66       1.0  0.17626  0.97711  0.29661  1.0000
  H   H78       1.0  0.21415  0.96097  0.21593  1.0000
  H   H79       1.0  0.14534  0.52429  0.41261  1.0000
  C   C67       1.0  0.11586  0.58621  0.39178  1.0000
  C   C68       1.0  0.09264  0.57684  0.37799  1.0000
  C   C69       1.0  0.06941  0.57970  0.39641  1.0000
  C   C70       1.0  0.06935  0.59151  0.42900  1.0000
  C   C71       1.0  0.09245  0.60132  0.44265  1.0000
  C   C72       1.0  0.11562  0.59886  0.42390  1.0000
  H   H80       1.0  0.09255  0.56728  0.35321  1.0000
  H   H81       1.0  0.05155  0.57230  0.38562  1.0000
  H   H82       1.0  0.09263  0.61029  0.46789  1.0000
  H   H83       1.0  0.13355  0.60611  0.43470  1.0000
  C   C73       1.0  0.11547  0.57883  0.18132  1.0000
  C   C74       1.0  0.09993  0.59209  0.20539  1.0000
  C   C75       1.0  0.08210  0.61141  0.19440  1.0000
  C   C76       1.0  0.07966  0.61730  0.15937  1.0000
  C   C77       1.0  0.09528  0.60407  0.13544  1.0000
  C   C78       1.0  0.11315  0.58492  0.14640  1.0000
  H   H84       1.0  0.10180  0.58763  0.23240  1.0000
  H   H85       1.0  0.07021  0.62177  0.21305  1.0000
  H   H86       1.0  0.09394  0.60884  0.10850  1.0000
  Fe  Fe15      1.0  0.14052  0.54226  0.24898  1.0000
  H   H87       1.0  0.08239  0.68121  0.37500  1.0000
  C   C79       1.0  0.24633  0.53484  0.27271  1.0000
  C   C80       1.0  0.11037  0.96169  0.04687  1.0000
  H   H88       1.0  0.06712  0.87674  0.32087  1.0000
  C   C81       1.0  0.30328  0.98301  0.15793  1.0000
  H   H89       1.0  0.29608  0.00066  0.14563  1.0000
  C   C82       1.0  0.10492  0.95594  0.29425  1.0000
  C   C83       1.0  0.09316  0.95571  0.32669  1.0000
  C   C84       1.0  0.09514  0.93343  0.34755  1.0000
  C   C85       1.0  0.10944  0.91154  0.33633  1.0000
  C   C86       1.0  0.12121  0.91179  0.30393  1.0000
  C   C87       1.0  0.11869  0.93380  0.28275  1.0000
  H   H90       1.0  0.08244  0.97278  0.33570  1.0000
  H   H91       1.0  0.08619  0.93347  0.37263  1.0000
  H   H92       1.0  0.13219  0.89482  0.29509  1.0000
  H   H93       1.0  0.12748  0.93358  0.25761  1.0000
  C   C88       1.0  0.06778  0.90284  0.05017  1.0000
  C   C89       1.0  0.06438  0.91629  0.08136  1.0000
  C   C90       1.0  0.08502  0.91847  0.10477  1.0000
  C   C91       1.0  0.10912  0.90682  0.09750  1.0000
  C   C92       1.0  0.11217  0.89223  0.06709  1.0000
  C   C93       1.0  0.09165  0.89048  0.04333  1.0000
  H   H94       1.0  0.04584  0.92549  0.08718  1.0000
  H   H95       1.0  0.08210  0.92888  0.12864  1.0000
  H   H96       1.0  0.13069  0.88293  0.06145  1.0000
  H   H97       1.0  0.23550  0.58942  0.18450  1.0000
  H   H98       1.0  0.06049  0.74444  0.06444  1.0000
  H   H99       1.0  0.05429  0.95424  0.24126  1.0000
  C   C94       1.0  0.02375  0.94682  0.31775  1.0000
  C   C95       1.0  0.27350  0.97475  0.25075  1.0000
  C   C96       1.0  0.04354  0.70940  0.41720  1.0000
  C   C97       1.0  0.32060  0.93831  0.19138  1.0000
  H   H100      1.0  0.08809  0.73602  0.47578  1.0000
  C   C98       1.0  0.12375  0.53772  0.45679  1.0000
  C   C99       1.0  0.04687  0.66426  0.43097  1.0000
  H   H101      1.0  0.18420  0.52614  0.20518  1.0000
  H   H102      1.0  0.11083  0.97062  0.07227  1.0000
  H   H103      1.0  0.10780  0.89292  0.50278  1.0000
  H   H104      1.0  0.09573  0.66960  0.41516  1.0000
  C   C100      1.0  0.33760  0.95855  0.18369  1.0000
  S   S34       1.0  0.11133  0.54562  0.29126  1.0000
  C   C101      1.0  0.01604  0.58703  0.17727  1.0000
  H   H105      1.0  0.02495  0.60489  0.18654  1.0000
  Fe  Fe16      1.0  0.03102  0.67350  0.02797  1.0000
  H   H106      1.0  0.29398  0.01069  0.24332  1.0000
  H   H107      1.0  0.02386  0.91121  0.34649  1.0000
  C   C102      1.0  0.05580  0.78525  0.05097  1.0000
  N   N6        1.0  0.04336  0.90628  0.29872  1.0000
  S   S35       1.0  0.05465  0.84239  0.38414  1.0000
  S   S36       1.0  0.31567  0.55253  0.23068  1.0000
  H   H108      1.0  0.05257  0.86767  0.28036  1.0000
  N   N7        1.0  0.08031  0.51950  0.42198  1.0000
  H   H109      1.0  0.22943  0.54578  0.28120  1.0000
  C   C103      1.0  0.25092  0.96082  0.24274  1.0000
  H   H110      1.0  0.26765  0.56938  0.25992  1.0000
  C   C104      1.0  0.20332  0.53285  0.19826  1.0000
  C   C105      1.0  0.13274  0.94914  0.03430  1.0000
  C   C106      1.0  0.21933  0.99282  0.30116  1.0000
  S   S37       1.0  0.15225  0.98352  0.12653  1.0000
  H   H111      1.0  0.09450  0.87974  0.01975  1.0000
  C   C107      1.0  0.02989  0.76750  0.48464  1.0000
  H   H112      1.0  0.05846  0.53363  0.46499  1.0000
  C   C108      1.0  0.22685  0.97071  0.31994  1.0000
  H   H113      1.0  0.09684  0.55008  0.49622  1.0000
  H   H114      1.0  0.03302  0.86902  0.31830  1.0000
  S   S38       1.0  0.29627  0.96061  0.27929  1.0000
  C   C109      1.0  0.06472  0.97522  0.04155  1.0000
  H   H115      1.0  0.23384  0.00726  0.29511  1.0000
  C   C110      1.0  0.23198  0.56859  0.18642  1.0000
  C   C111      1.0  0.23145  0.97190  0.22180  1.0000
  H   H116      1.0  0.01986  0.78533  0.47716  1.0000
  C   C112      1.0  0.34430  0.58414  0.30660  1.0000
  N   N8        1.0  0.19440  0.99555  0.28930  1.0000
  H   H117      1.0  0.24833  0.94144  0.25313  1.0000
  Fe  Fe17      1.0  0.04257  0.61143  0.50506  1.0000
  C   C113      1.0  0.25721  0.01083  0.21615  1.0000
  N   N9        1.0  0.05753  0.68642  0.41786  1.0000
  C   C114      1.0  0.04935  0.87857  0.30481  1.0000
  H   H118      1.0  0.10011  0.73815  0.02897  1.0000
  H   H119      1.0  0.15012  0.94809  0.05011  1.0000
  H   H120      1.0  0.02831  0.97968  0.28399  1.0000
  C   C115      1.0  0.06826  0.73967  0.48382  1.0000
  C   C116      1.0  0.26817  0.54820  0.26082  1.0000
  C   C117      1.0  0.18304  0.95488  0.31559  1.0000
  H   H121      1.0  0.03997  0.52225  0.40971  1.0000
  H   H122      1.0  0.06449  0.97462  0.07012  1.0000
  C   C118      1.0  0.23442  0.99704  0.20863  1.0000
  H   H123      1.0  0.16861  0.94020  0.32112  1.0000
  C   C119      1.0  0.03229  0.95902  0.28799  1.0000
  H   H124      1.0  0.03260  0.58980  0.12680  1.0000
  C   C120      1.0  0.24723  0.52372  0.18368  1.0000
  S   S39       1.0  0.02583  0.85055  0.45844  1.0000
  C   C121      1.0  0.09922  0.54016  0.47164  1.0000
  C   C122      1.0  0.05560  0.72103  0.50385  1.0000
  H   H125      1.0  0.26550  0.96512  0.15769  1.0000
  H   H126      1.0  0.06441  0.99607  0.03366  1.0000
  H   H127      1.0  0.12528  0.57485  0.12773  1.0000
  Fe  Fe18      1.0  0.33854  0.97231  0.28531  1.0000
  C   C123      1.0  0.27672  0.99974  0.23715  1.0000
  C   C124      1.0  0.29458  0.94055  0.18171  1.0000
  H   H128      1.0  0.05766  0.64590  0.43079  1.0000
  H   H129      1.0  0.05191  0.72703  0.40673  1.0000
  C   C125      1.0  0.05545  0.76286  0.47398  1.0000
  C   C126      1.0  0.06840  0.76079  0.05042  1.0000
  C   C127      1.0  0.08699  0.80231  0.01267  1.0000
  H   H130      1.0  0.21420  0.93423  0.34130  1.0000
  H   H131      1.0  0.32995  0.58825  0.28678  1.0000
  H   H132      1.0  0.06407  0.90738  0.25136  1.0000
  H   H133      1.0  0.32748  0.92124  0.20532  1.0000
  N   N10       1.0  0.08797  0.96203  0.02790  1.0000
  H   H134      1.0  0.15645  0.97947  0.28749  1.0000
  N   N11       1.0  0.06492  0.80550  0.03181  1.0000
  Fe  Fe19      1.0  0.11612  0.00480  0.14384  1.0000
  Fe  Fe20      1.0  0.06999  0.62969  0.01631  1.0000
  H   H135      1.0  0.14059  0.54575  0.46971  1.0000
  C   C128      1.0  0.09064  0.75725  0.03048  1.0000
  C   C129      1.0  0.29024  0.53444  0.24911  1.0000
  C   C130      1.0  0.20856  0.95161  0.32708  1.0000
  C   C131      1.0  0.10008  0.77814  0.01155  1.0000
  C   C132      1.0  0.28585  0.96293  0.16463  1.0000
  S   S40       1.0  0.13824  0.55473  0.19370  1.0000
  C   C133      1.0  0.02206  0.66501  0.44543  1.0000
  S   S41       1.0  0.21014  0.01190  0.18292  1.0000
  C   C134      1.0  0.02985  0.92038  0.32292  1.0000
  H   H136      1.0  0.24694  0.96814  0.32806  1.0000
  C   C135      1.0  0.01718  0.74877  0.50469  1.0000
  H   H137      1.0  0.17622  0.01216  0.24550  1.0000
  H   H138      1.0  0.27142  0.55716  0.17443  1.0000
  H   H139      1.0  0.34338  0.62325  0.32786  1.0000
  H   H140      1.0  0.05840  0.84286  0.05482  1.0000
  C   C136      1.0  0.02032  0.57856  0.14360  1.0000
  C   C137      1.0  0.12642  0.52564  0.42470  1.0000
  H   H141      1.0  0.03006  0.82855  0.03484  1.0000
  C   C138      1.0  0.05139  0.83095  0.03272  1.0000
  C   C139      1.0  0.18670  0.01847  0.26906  1.0000
  C   C140      1.0  0.34709  0.00169  0.16070  1.0000
  Fe  Fe21      1.0  0.01459  0.61644  0.03526  1.0000
  C   C141      1.0  0.01860  0.71081  0.43127  1.0000
  H   H142      1.0  0.33820  0.01770  0.14530  1.0000
  H   H143      1.0  0.05594  0.92439  0.72113  1.0000
  C   C142      1.0  0.05116  0.72853  0.97202  1.0000
  S   S42       1.0  0.08612  0.86682  0.95203  1.0000
  C   C143      1.0  0.09005  0.62111  0.71235  1.0000
  H   H144      1.0  0.31396  0.97597  0.76712  1.0000
  S   S43       1.0  0.06191  0.86124  0.87529  1.0000
  Fe  Fe22      1.0  0.06001  0.83883  0.92439  1.0000
  S   S44       1.0  0.07149  0.79592  0.92554  1.0000
  Fe  Fe23      1.0  0.08420  0.89119  0.90456  1.0000
  S   S45       1.0  0.11925  0.90995  0.88175  1.0000
  C   C144      1.0  0.05122  0.78654  0.56026  1.0000
  S   S46       1.0  0.04941  0.91466  0.92110  1.0000
  Fe  Fe24      1.0  0.18750  0.97519  0.70509  1.0000
  S   S47       1.0  0.22320  0.96363  0.73609  1.0000
  Fe  Fe25      1.0  0.15598  0.95453  0.64454  1.0000
  S   S48       1.0  0.12296  0.98247  0.65359  1.0000
  S   S49       1.0  0.15821  0.92658  0.59951  1.0000
  Fe  Fe26      1.0  0.12867  0.97373  0.70957  1.0000
  S   S50       1.0  0.09356  0.96939  0.74333  1.0000
  S   S51       1.0  0.18676  0.98508  0.64897  1.0000
  S   S52       1.0  0.15881  0.94252  0.69967  1.0000
  H   H145      1.0  0.04510  0.55125  0.98050  1.0000
  S   S53       1.0  0.16349  0.57172  0.76261  1.0000
  H   H146      1.0  0.07768  0.85161  0.52643  1.0000
  Fe  Fe27      1.0  0.13850  0.56733  0.80933  1.0000
  S   S54       1.0  0.11187  0.59942  0.82907  1.0000
  C   C145      1.0  0.06482  0.59901  0.66887  1.0000
  H   H147      1.0  0.31182  0.59383  0.71357  1.0000
  Fe  Fe28      1.0  0.03003  0.66087  0.54466  1.0000
  C   C146      1.0  0.04502  0.83250  0.54842  1.0000
  Fe  Fe29      1.0  0.07541  0.62608  0.56699  1.0000
  S   S55       1.0  0.05525  0.58935  0.55156  1.0000
  S   S56       1.0  0.11397  0.62550  0.59455  1.0000
  H   H148      1.0  0.14841  0.90170  0.53482  1.0000
  N   N12       1.0  0.26811  0.00240  0.82817  1.0000
  N   N13       1.0  0.08584  0.81125  0.53574  1.0000
  S   S57       1.0  0.04144  0.64329  0.59549  1.0000
  N   N14       1.0  0.06689  0.57612  0.68673  1.0000
  C   C147      1.0  0.09156  0.59783  0.73079  1.0000
  H   H149      1.0  0.09074  0.86381  0.80872  1.0000
  H   H150      1.0  0.06572  0.70331  0.51130  1.0000
  C   C148      1.0  0.11068  0.60385  0.87399  1.0000
  C   C149      1.0  0.12842  0.59097  0.89544  1.0000
  C   C150      1.0  0.12674  0.59401  0.93120  1.0000
  C   C151      1.0  0.10719  0.60977  0.94583  1.0000
  C   C152      1.0  0.08932  0.62267  0.92450  1.0000
  C   C153      1.0  0.09118  0.61982  0.88859  1.0000
  H   H151      1.0  0.14361  0.57885  0.88457  1.0000
  H   H152      1.0  0.14065  0.58408  0.94761  1.0000
  H   H153      1.0  0.07433  0.63508  0.93560  1.0000
  H   H154      1.0  0.07746  0.62995  0.87211  1.0000
  C   C154      1.0  0.12735  0.55448  0.66376  1.0000
  C   C155      1.0  0.13901  0.57841  0.67150  1.0000
  C   C156      1.0  0.13550  0.59990  0.64957  1.0000
  C   C157      1.0  0.11997  0.59771  0.62008  1.0000
  C   C158      1.0  0.10899  0.57355  0.61184  1.0000
  C   C159      1.0  0.11284  0.55198  0.63346  1.0000
  H   H155      1.0  0.15060  0.58050  0.69437  1.0000
  H   H156      1.0  0.14425  0.61847  0.65592  1.0000
  H   H157      1.0  0.09783  0.57134  0.58861  1.0000
  C   C160      1.0  0.25835  0.53740  0.76751  1.0000
  C   C161      1.0  0.05389  0.77279  0.94909  1.0000
  H   H158      1.0  0.05723  0.58298  0.96867  1.0000
  H   H159      1.0  0.08106  0.74146  0.93764  1.0000
  C   C162      1.0  0.33899  0.96988  0.68642  1.0000
  C   C163      1.0  0.30389  0.53050  0.75270  1.0000
  H   H160      1.0  0.09672  0.52236  0.97152  1.0000
  C   C164      1.0  0.10110  0.95470  0.78298  1.0000
  C   C165      1.0  0.08104  0.94841  0.80557  1.0000
  C   C166      1.0  0.08647  0.93459  0.83586  1.0000
  C   C167      1.0  0.11209  0.92760  0.84415  1.0000
  C   C168      1.0  0.13221  0.93452  0.82200  1.0000
  C   C169      1.0  0.12672  0.94787  0.79134  1.0000
  H   H161      1.0  0.06122  0.95378  0.79935  1.0000
  H   H162      1.0  0.07081  0.92938  0.85278  1.0000
  H   H163      1.0  0.15205  0.92921  0.82832  1.0000
  H   H164      1.0  0.14235  0.95276  0.77417  1.0000
  C   C170      1.0  0.08279  0.90795  0.54276  1.0000
  C   C171      1.0  0.08190  0.91960  0.57550  1.0000
  C   C172      1.0  0.10494  0.92506  0.59343  1.0000
  C   C173      1.0  0.12897  0.91865  0.57877  1.0000
  C   C174      1.0  0.12983  0.90655  0.54633  1.0000
  C   C175      1.0  0.06272  0.56216  0.97322  1.0000
  H   H165      1.0  0.06335  0.92471  0.58686  1.0000
  H   H166      1.0  0.10409  0.93417  0.61857  1.0000
  H   H167      1.0  0.26527  0.98068  0.65643  1.0000
  H   H168      1.0  0.07659  0.56234  0.99520  1.0000
  C   C176      1.0  0.25208  0.98152  0.73641  1.0000
  C   C177      1.0  0.27395  0.97070  0.75282  1.0000
  C   C178      1.0  0.29730  0.98447  0.75432  1.0000
  C   C179      1.0  0.09163  0.52952  0.94620  1.0000
  H   H169      1.0  0.27280  0.95160  0.76451  1.0000
  C   C180      1.0  0.24056  0.00015  0.81903  1.0000
  H   H170      1.0  0.07443  0.55530  0.85595  1.0000
  C   C181      1.0  0.31444  0.97401  0.67174  1.0000
  C   C182      1.0  0.06309  0.91018  0.73955  1.0000
  C   C183      1.0  0.03126  0.77983  0.96683  1.0000
  Fe  Fe30      1.0  0.19218  0.54531  0.78946  1.0000
  C   C184      1.0  0.09919  0.88546  0.76294  1.0000
  H   H171      1.0  0.29029  0.55638  0.79297  1.0000
  H   H172      1.0  0.07569  0.63960  0.66620  1.0000
  C   C185      1.0  0.02880  0.73572  0.99020  1.0000
  H   H173      1.0  0.23547  0.01225  0.79628  1.0000
  N   N15       1.0  0.29590  0.95513  0.67344  1.0000
  C   C186      1.0  0.07899  0.54760  0.88122  1.0000
  H   H174      1.0  0.32410  0.53457  0.75749  1.0000
  H   H175      1.0  0.27040  0.95136  0.63079  1.0000
  C   C187      1.0  0.05972  0.99846  0.53622  1.0000
  C   C188      1.0  0.11197  0.81220  0.52104  1.0000
  S   S58       1.0  0.23509  0.55355  0.79353  1.0000
  N   N16       1.0  0.07474  0.55026  0.94264  1.0000
  H   H176      1.0  0.31014  0.99273  0.65986  1.0000
  S   S59       1.0  0.02269  0.85820  0.94119  1.0000
  C   C189      1.0  0.13984  0.99790  0.56237  1.0000
  C   C190      1.0  0.07044  0.83328  0.53604  1.0000
  C   C191      1.0  0.22369  0.57858  0.70727  1.0000
  H   H177      1.0  0.14645  0.97800  0.57029  1.0000
  H   H178      1.0  0.12546  0.79851  0.53444  1.0000
  C   C192      1.0  0.25131  0.51946  0.74186  1.0000
  C   C193      1.0  0.03538  0.80893  0.56057  1.0000
  H   H179      1.0  0.11357  0.95967  0.53154  1.0000
  H   H180      1.0  0.03401  0.55185  0.68282  1.0000
  H   H181      1.0  0.10415  0.53341  0.62696  1.0000
  H   H182      1.0  0.08151  0.55719  0.73162  1.0000
  H   H183      1.0  0.10203  0.59710  0.75503  1.0000
  C   C194      1.0  0.02051  0.91095  0.76809  1.0000
  H   H184      1.0  0.23986  0.54723  0.65662  1.0000
  C   C195      1.0  0.06813  0.55914  0.91066  1.0000
  H   H185      1.0  0.22281  0.58734  0.73353  1.0000
  C   C196      1.0  0.34464  0.94611  0.70240  1.0000
  Fe  Fe31      1.0  0.04914  0.88757  0.96635  1.0000
  H   H186      1.0  0.28668  0.91667  0.69003  1.0000
  Fe  Fe32      1.0  0.02055  0.60729  0.57779  1.0000
  C   C197      1.0  0.10682  0.90142  0.52822  1.0000
  H   H187      1.0  0.21335  0.55964  0.70858  1.0000
  C   C198      1.0  0.13222  0.93741  0.00177  1.0000
  C   C199      1.0  0.07660  0.62176  0.68117  1.0000
  C   C200      1.0  0.07979  0.57536  0.71751  1.0000
  H   H188      1.0  0.23580  0.97961  0.81188  1.0000
  N   N17       1.0  0.11217  0.99808  0.55341  1.0000
  C   C201      1.0  0.28467  0.54271  0.77297  1.0000
  H   H189      1.0  0.09945  0.63855  0.72211  1.0000
  C   C202      1.0  0.30133  0.56665  0.67344  1.0000
  C   C203      1.0  0.29605  0.58384  0.70065  1.0000
  H   H190      1.0  0.06518  0.53457  0.68130  1.0000
  H   H191      1.0  0.28507  0.53957  0.63689  1.0000
  S   S60       1.0  0.10543  0.61216  0.99085  1.0000
  H   H192      1.0  0.04372  0.76793  0.56888  1.0000
  C   C204      1.0  0.09636  0.52661  0.88464  1.0000
  H   H193      1.0  0.32119  0.56322  0.66505  1.0000
  H   H194      1.0  0.26653  0.60047  0.73333  1.0000
  C   C205      1.0  0.07523  0.97654  0.52878  1.0000
  C   C206      1.0  0.08917  0.90222  0.73793  1.0000
  H   H195      1.0  0.02357  0.79957  0.96502  1.0000
  C   C207      1.0  0.27985  0.98318  0.84728  1.0000
  C   C208      1.0  0.06358  0.74701  0.95139  1.0000
  H   H196      1.0  0.26908  0.96608  0.85490  1.0000
  C   C209      1.0  0.08297  0.87639  0.78872  1.0000
  C   C210      1.0  0.27039  0.58751  0.71165  1.0000
  H   H197      1.0  0.10888  0.92935  0.95687  1.0000
  C   C211      1.0  0.25362  0.00621  0.72145  1.0000
  C   C212      1.0  0.10162  0.97676  0.53742  1.0000
  C   C213      1.0  0.07647  0.78800  0.54733  1.0000
  H   H198      1.0  0.10184  0.91019  0.71851  1.0000
  H   H199      1.0  0.34010  0.00893  0.85497  1.0000
  H   H200      1.0  0.15149  0.00417  0.54006  1.0000
  N   N18       1.0  0.25057  0.57437  0.69594  1.0000
  H   H201      1.0  0.03290  0.85008  0.54812  1.0000
  H   H202      1.0  0.05385  0.55252  0.64485  1.0000
  Fe  Fe33      1.0  0.14549  0.53418  0.74516  1.0000
  H   H203      1.0  0.05906  0.70886  0.97410  1.0000
  C   C214      1.0  0.05432  0.55253  0.67343  1.0000
  C   C215      1.0  0.10948  0.93843  0.98222  1.0000
  C   C216      1.0  0.28100  0.55345  0.65750  1.0000
  H   H204      1.0  0.05449  0.59959  0.64456  1.0000
  H   H205      1.0  0.06961  0.95117  0.98079  1.0000
  C   C217      1.0  0.29892  0.00920  0.73945  1.0000
  C   C218      1.0  0.25555  0.55772  0.66896  1.0000
  Fe  Fe34      1.0  0.02673  0.88342  0.89413  1.0000
  H   H206      1.0  0.01916  0.92545  0.78953  1.0000
  H   H207      1.0  0.14381  0.01124  0.58448  1.0000
  C   C219      1.0  0.30135  0.93167  0.68883  1.0000
  H   H208      1.0  0.06683  0.95937  0.51666  1.0000
  H   H209      1.0  0.21324  0.59177  0.68919  1.0000
  H   H210      1.0  0.04440  0.87785  0.80973  1.0000
  H   H211      1.0  0.09410  0.81819  0.99712  1.0000
  H   H212      1.0  0.03916  0.99841  0.53005  1.0000
  N   N19       1.0  0.04733  0.90127  0.76504  1.0000
  S   S61       1.0  0.16893  0.54480  0.83814  1.0000
  H   H213      1.0  0.11965  0.88010  0.76290  1.0000
  C   C220      1.0  0.05690  0.88449  0.78931  1.0000
  H   H214      1.0  0.14932  0.92735  0.99181  1.0000
  C   C221      1.0  0.01868  0.76128  0.98718  1.0000
  S   S62       1.0  0.05363  0.90275  0.52019  1.0000
  C   C222      1.0  0.27042  0.95948  0.65734  1.0000
  H   H215      1.0  0.12020  0.83217  0.52335  1.0000
  S   S63       1.0  0.15728  0.00563  0.71939  1.0000
  H   H216      1.0  0.08829  0.77028  0.54590  1.0000
  S   S64       1.0  0.03155  0.63895  0.99143  1.0000
  C   C223      1.0  0.31989  0.00715  0.84744  1.0000
  H   H217      1.0  0.22254  0.52583  0.86052  1.0000
  H   H218      1.0  0.31539  0.96997  0.87212  1.0000
  S   S65       1.0  0.11833  0.53158  0.78992  1.0000
  H   H219      1.0  0.22821  0.00650  0.84096  1.0000
  H   H220      1.0  0.25482  0.94999  0.67234  1.0000
  H   H221      1.0  0.05489  0.57568  0.90778  1.0000
  C   C224      1.0  0.08739  0.95092  0.99578  1.0000
  C   C225      1.0  0.02992  0.72537  0.51410  1.0000
  S   S66       1.0  0.06609  0.64690  0.51756  1.0000
  H   H222      1.0  0.23676  0.01473  0.70889  1.0000
  H   H223      1.0  0.11686  0.77541  0.99507  1.0000
  C   C226      1.0  0.30593  0.98523  0.85712  1.0000
  H   H224      1.0  0.05964  0.01772  0.74159  1.0000
  H   H225      1.0  0.33003  0.90831  0.71600  1.0000
  C   C227      1.0  0.32575  0.92684  0.70360  1.0000
  S   S67       1.0  0.12950  0.52764  0.69186  1.0000
  H   H226      1.0  0.01555  0.80790  0.56973  1.0000
  Fe  Fe35      1.0  0.15365  0.01247  0.66252  1.0000
  Fe  Fe36      1.0  0.51606  0.12081  0.38507  1.0000
  S   S68       1.0  0.53777  0.15693  0.37068  1.0000
  S   S69       1.0  0.49955  0.09593  0.34202  1.0000
  Fe  Fe37      1.0  0.53609  0.12334  0.45902  1.0000
  S   S70       1.0  0.55995  0.15916  0.45031  1.0000
  C   C228      1.0  0.52479  0.14235  0.07486  1.0000
  Fe  Fe38      1.0  0.52484  0.17377  0.42146  1.0000
  S   S71       1.0  0.50708  0.21463  0.42604  1.0000
  Fe  Fe39      1.0  0.57080  0.13925  0.40043  1.0000
  S   S72       1.0  0.61042  0.13859  0.37602  1.0000
  S   S73       1.0  0.49995  0.13897  0.43345  1.0000
  S   S74       1.0  0.55002  0.10225  0.41183  1.0000
  Fe  Fe40      1.0  0.64077  0.06889  0.16387  1.0000
  S   S75       1.0  0.61645  0.03711  0.18587  1.0000
  S   S76       1.0  0.62396  0.10406  0.13690  1.0000
  Fe  Fe41      1.0  0.64308  0.04018  0.23146  1.0000
  S   S77       1.0  0.62761  0.03668  0.28522  1.0000
  C   C229      1.0  0.54550  0.28220  0.48473  1.0000
  S   S78       1.0  0.57433  0.37910  0.49270  1.0000
  S   S79       1.0  0.65008  0.45622  0.24874  1.0000
  Fe  Fe42      1.0  0.51462  0.41492  0.02994  1.0000
  S   S80       1.0  0.52460  0.38074  0.06400  1.0000
  S   S81       1.0  0.49396  0.45345  0.04232  1.0000
  H   H227      1.0  0.59762  0.08426  0.38686  1.0000
  H   H228      1.0  0.43159  0.03701  0.30147  1.0000
  S   S82       1.0  0.53813  0.41649  0.41753  1.0000
  C   C230      1.0  0.54895  0.14174  0.09113  1.0000
  H   H229      1.0  0.63814  0.03777  0.06643  1.0000
  Fe  Fe43      1.0  0.56516  0.38652  0.04468  1.0000
  S   S83       1.0  0.59901  0.38646  0.08146  1.0000
  N   N20       1.0  0.58089  0.48530  0.43078  1.0000
  H   H230      1.0  0.51259  0.12520  0.07502  1.0000
  Fe  Fe44      1.0  0.64259  0.47230  0.30196  1.0000
  S   S84       1.0  0.66969  0.04177  0.13876  1.0000
  S   S85       1.0  0.64466  0.44814  0.35034  1.0000
  Fe  Fe45      1.0  0.61557  0.48089  0.23369  1.0000
  S   S86       1.0  0.58249  0.47228  0.19743  1.0000
  H   H231      1.0  0.52721  0.33633  0.37017  1.0000
  H   H232      1.0  0.53104  0.37149  0.36772  1.0000
  S   S87       1.0  0.40445  0.46488  0.15245  1.0000
  C   C231      1.0  0.58032  0.36256  0.37667  1.0000
  C   C232      1.0  0.47185  0.45566  0.07668  1.0000
  C   C233      1.0  0.45893  0.43365  0.08857  1.0000
  C   C234      1.0  0.43878  0.43660  0.11267  1.0000
  C   C235      1.0  0.43162  0.46151  0.12519  1.0000
  C   C236      1.0  0.44533  0.48339  0.11435  1.0000
  C   C237      1.0  0.46532  0.48046  0.09012  1.0000
  H   H233      1.0  0.46379  0.41445  0.07826  1.0000
  H   H234      1.0  0.42829  0.41957  0.12098  1.0000
  H   H235      1.0  0.43979  0.50270  0.12335  1.0000
  H   H236      1.0  0.47524  0.49759  0.08102  1.0000
  C   C238      1.0  0.56796  0.42407  0.39852  1.0000
  C   C239      1.0  0.56818  0.43413  0.36515  1.0000
  C   C240      1.0  0.59170  0.44097  0.34972  1.0000
  C   C241      1.0  0.61510  0.43770  0.36757  1.0000
  C   C242      1.0  0.61494  0.42675  0.40044  1.0000
  C   C243      1.0  0.59141  0.42025  0.41604  1.0000
  H   H237      1.0  0.55012  0.43687  0.35127  1.0000
  H   H238      1.0  0.59169  0.44865  0.32399  1.0000
  H   H239      1.0  0.63301  0.42402  0.41429  1.0000
  H   H240      1.0  0.59152  0.41268  0.44178  1.0000
  C   C244      1.0  0.59325  0.40859  0.11546  1.0000
  C   C245      1.0  0.57281  0.42676  0.11326  1.0000
  C   C246      1.0  0.56947  0.44587  0.13893  1.0000
  C   C247      1.0  0.58660  0.44703  0.16691  1.0000
  C   C248      1.0  0.60689  0.42866  0.16946  1.0000
  C   C249      1.0  0.61008  0.40930  0.14386  1.0000
  H   H241      1.0  0.55975  0.42639  0.09146  1.0000
  H   H242      1.0  0.55389  0.46012  0.13647  1.0000
  H   H243      1.0  0.62011  0.42934  0.19107  1.0000
  H   H244      1.0  0.62587  0.39518  0.14571  1.0000
  C   C250      1.0  0.52303  0.24075  0.44695  1.0000
  H   H245      1.0  0.43150  0.46564  0.02121  1.0000
  N   N21       1.0  0.56106  0.35067  0.39468  1.0000
  H   H246      1.0  0.55568  0.12412  0.10404  1.0000
  C   C251      1.0  0.61257  0.34363  0.41449  1.0000
  H   H247      1.0  0.39630  0.45667  0.06244  1.0000
  H   H248      1.0  0.37272  0.49364  0.09062  1.0000
  C   C252      1.0  0.65719  0.42909  0.09448  1.0000
  C   C253      1.0  0.53315  0.50843  0.23715  1.0000
  C   C254      1.0  0.54364  0.28459  0.00791  1.0000
  C   C255      1.0  0.46941  0.08020  0.34594  1.0000
  C   C256      1.0  0.46156  0.06281  0.31990  1.0000
  C   C257      1.0  0.43754  0.05017  0.32183  1.0000
  C   C258      1.0  0.42106  0.05507  0.34970  1.0000
  C   C259      1.0  0.42897  0.07234  0.37586  1.0000
  C   C260      1.0  0.45313  0.08479  0.37410  1.0000
  H   H249      1.0  0.59741  0.14152  0.24259  1.0000
  H   H250      1.0  0.58379  0.16290  0.10191  1.0000
  H   H251      1.0  0.41631  0.07616  0.39751  1.0000
  H   H252      1.0  0.45898  0.09819  0.39426  1.0000
  H   H253      1.0  0.49803  0.16556  0.04465  1.0000
  C   C261      1.0  0.59316  0.10887  0.04140  1.0000
  C   C262      1.0  0.60699  0.11437  0.07169  1.0000
  C   C263      1.0  0.60808  0.09610  0.09833  1.0000
  C   C264      1.0  0.59558  0.07213  0.09446  1.0000
  C   C265      1.0  0.58166  0.06666  0.06424  1.0000
  H   H254      1.0  0.54570  0.49458  0.25183  1.0000
  S   S88       1.0  0.60605  0.49382  0.28740  1.0000
  H   H255      1.0  0.59617  0.05806  0.11505  1.0000
  H   H256      1.0  0.57171  0.04823  0.06156  1.0000
  C   C266      1.0  0.61732  0.10987  0.35233  1.0000
  C   C267      1.0  0.63186  0.11120  0.32202  1.0000
  C   C268      1.0  0.63559  0.08875  0.30138  1.0000
  C   C269      1.0  0.62521  0.06483  0.31138  1.0000
  C   C270      1.0  0.61188  0.06327  0.34254  1.0000
  C   C271      1.0  0.60782  0.08573  0.36285  1.0000
  H   H257      1.0  0.63948  0.12979  0.31395  1.0000
  H   H258      1.0  0.64609  0.09015  0.27758  1.0000
  H   H259      1.0  0.60421  0.04471  0.35072  1.0000
  H   H260      1.0  0.48027  0.17380  0.49477  1.0000
  C   C272      1.0  0.51663  0.16496  0.05783  1.0000
  H   H261      1.0  0.47400  0.05925  0.29799  1.0000
  C   C273      1.0  0.67987  0.44779  0.14294  1.0000
  H   H262      1.0  0.51133  0.30450  0.47086  1.0000
  H   H263      1.0  0.57395  0.14814  0.29801  1.0000
  C   C274      1.0  0.52149  0.28590  0.46848  1.0000
  C   C275      1.0  0.56284  0.10769  0.30127  1.0000
  H   H264      1.0  0.56334  0.22655  0.06463  1.0000
  C   C276      1.0  0.53385  0.35402  0.38428  1.0000
  H   H265      1.0  0.46682  0.50931  0.01627  1.0000
  C   C277      1.0  0.59285  0.33110  0.43219  1.0000
  H   H266      1.0  0.52138  0.35737  0.40721  1.0000
  N   N22       1.0  0.56456  0.08323  0.28682  1.0000
  C   C278      1.0  0.58784  0.12524  0.25471  1.0000
  H   H267      1.0  0.55274  0.11071  0.32540  1.0000
  H   H268      1.0  0.62349  0.45049  0.07754  1.0000
  N   N23       1.0  0.50978  0.49502  0.22514  1.0000
  C   C279      1.0  0.51091  0.47964  0.19621  1.0000
  C   C280      1.0  0.48735  0.49685  0.24380  1.0000
  C   C281      1.0  0.48910  0.46595  0.18489  1.0000
  C   C282      1.0  0.46518  0.48339  0.23328  1.0000
  C   C283      1.0  0.46614  0.46782  0.20369  1.0000
  S   S89       1.0  0.39087  0.03935  0.35304  1.0000
  H   H269      1.0  0.52879  0.47784  0.18179  1.0000
  H   H270      1.0  0.48644  0.50883  0.26693  1.0000
  H   H271      1.0  0.49000  0.45393  0.16174  1.0000
  H   H272      1.0  0.44734  0.48516  0.24792  1.0000
  H   H273      1.0  0.44911  0.45718  0.19541  1.0000
  Fe  Fe46      1.0  0.39646  0.50435  0.17709  1.0000
  C   C284      1.0  0.62480  0.47842  0.45016  1.0000
  H   H274      1.0  0.46823  0.24524  0.49094  1.0000
  H   H275      1.0  0.60490  0.09027  0.47879  1.0000
  H   H276      1.0  0.46139  0.21464  0.47097  1.0000
  C   C285      1.0  0.57711  0.07942  0.25620  1.0000
  H   H277      1.0  0.55116  0.06421  0.33190  1.0000
  H   H278      1.0  0.57858  0.05998  0.24486  1.0000
  H   H279      1.0  0.54578  0.48151  0.40230  1.0000
  S   S90       1.0  0.55563  0.42196  0.01319  1.0000
  C   C286      1.0  0.54723  0.23724  0.46270  1.0000
  C   C287      1.0  0.66177  0.46845  0.14350  1.0000
  C   C288      1.0  0.60634  0.35940  0.38644  1.0000
  C   C289      1.0  0.67743  0.42791  0.11837  1.0000
  H   H280      1.0  0.60413  0.48560  0.11005  1.0000
  H   H281      1.0  0.58817  0.20448  0.04894  1.0000
  H   H282      1.0  0.61212  0.04156  0.01332  1.0000
  C   C290      1.0  0.51036  0.26524  0.44959  1.0000
  S   S91       1.0  0.66473  0.07451  0.21148  1.0000
  Fe  Fe47      1.0  0.53947  0.39953  0.47080  1.0000
  H   H283      1.0  0.55183  0.32527  0.43597  1.0000
  H   H284      1.0  0.57564  0.37511  0.35509  1.0000
  S   S92       1.0  0.51179  0.36827  0.48674  1.0000
  H   H285      1.0  0.62912  0.46015  0.49982  1.0000
  H   H286      1.0  0.53185  0.05924  0.29390  1.0000
  C   C291      1.0  0.58899  0.10034  0.23969  1.0000
  C   C292      1.0  0.58900  0.46585  0.48592  1.0000
  H   H287      1.0  0.59937  0.09717  0.21572  1.0000
  C   C293      1.0  0.57464  0.12900  0.28567  1.0000
  H   H288      1.0  0.63263  0.34123  0.42261  1.0000
  H   H289      1.0  0.62147  0.36950  0.37265  1.0000
  C   C294      1.0  0.56705  0.33484  0.42183  1.0000
  H   H290      1.0  0.59737  0.31884  0.45417  1.0000
  N   N24       1.0  0.55669  0.18580  0.07288  1.0000
  C   C295      1.0  0.56480  0.16374  0.08976  1.0000
  C   C296      1.0  0.53300  0.18656  0.05686  1.0000
  C   C297      1.0  0.55837  0.25788  0.48157  1.0000
  H   H291      1.0  0.61704  0.13274  0.07439  1.0000
  C   C298      1.0  0.58047  0.08499  0.03764  1.0000
  H   H292      1.0  0.49165  0.26811  0.43737  1.0000
  C   C299      1.0  0.55205  0.06115  0.30359  1.0000
  C   C300      1.0  0.57420  0.20808  0.07025  1.0000
  H   H293      1.0  0.55721  0.21853  0.46079  1.0000
  S   S93       1.0  0.38231  0.50777  0.23169  1.0000
  S   S94       1.0  0.49954  0.31631  0.00961  1.0000
  C   C301      1.0  0.60972  0.02052  0.01470  1.0000
  Fe  Fe48      1.0  0.67341  0.49280  0.24157  1.0000
  C   C302      1.0  0.62308  0.49115  0.12151  1.0000
  C   C303      1.0  0.42025  0.48190  0.03190  1.0000
  H   H294      1.0  0.56314  0.04262  0.29900  1.0000
  N   N25       1.0  0.42628  0.50714  0.02398  1.0000
  C   C304      1.0  0.38721  0.49749  0.07117  1.0000
  C   C305      1.0  0.40042  0.47669  0.05525  1.0000
  S   S95       1.0  0.66858  0.50721  0.29616  1.0000
  S   S96       1.0  0.63901  0.51626  0.22254  1.0000
  C   C306      1.0  0.57177  0.47490  0.46064  1.0000
  H   H295      1.0  0.55505  0.51482  0.41265  1.0000
  H   H296      1.0  0.64549  0.47938  0.44530  1.0000
  H   H297      1.0  0.55105  0.47308  0.46472  1.0000
  H   H298      1.0  0.63100  0.50810  0.10750  1.0000
  C   C307      1.0  0.60199  0.07293  0.49416  1.0000
  H   H299      1.0  0.58510  0.21115  0.09459  1.0000
  H   H300      1.0  0.52679  0.20379  0.04276  1.0000
  Fe  Fe49      1.0  0.52023  0.35515  0.01659  1.0000
  C   C308      1.0  0.61566  0.46753  0.48053  1.0000
  H   H301      1.0  0.61904  0.49714  0.14854  1.0000
  H   H302      1.0  0.61435  0.49523  0.40159  1.0000
  N   N26       1.0  0.64170  0.46920  0.12043  1.0000
  C   C309      1.0  0.58143  0.05638  0.48586  1.0000
  H   H303      1.0  0.65461  0.41341  0.07579  1.0000
  H   H304      1.0  0.55412  0.30138  0.01737  1.0000
  C   C310      1.0  0.56241  0.49505  0.40499  1.0000
  C   C311      1.0  0.60704  0.48738  0.42547  1.0000
  C   C312      1.0  0.63952  0.45013  0.09570  1.0000
  H   H305      1.0  0.56848  0.06106  0.46469  1.0000
  H   H306      1.0  0.66378  0.48380  0.16271  1.0000
  H   H307      1.0  0.59251  0.12301  0.02087  1.0000
  H   H308      1.0  0.66308  0.02134  0.04122  1.0000
  H   H309      1.0  0.56088  0.02168  0.50017  1.0000
  H   H310      1.0  0.37308  0.51497  0.35173  1.0000
  C   C313      1.0  0.46597  0.22404  0.49615  1.0000
  H   H311      1.0  0.57700  0.25491  0.49396  1.0000
  H   H312      1.0  0.54460  0.51571  0.21510  1.0000
  H   H313      1.0  0.57155  0.49639  0.37921  1.0000
  H   H314      1.0  0.57758  0.25945  0.00640  1.0000
  H   H315      1.0  0.38760  0.51855  0.30973  1.0000
  Fe  Fe50      1.0  0.51214  0.13276  0.92218  1.0000
  S   S97       1.0  0.53461  0.16666  0.90171  1.0000
  S   S98       1.0  0.47097  0.12152  0.91098  1.0000
  Fe  Fe51      1.0  0.55663  0.11170  0.96450  1.0000
  S   S99       1.0  0.58360  0.14318  0.94748  1.0000
  S   S100      1.0  0.64019  0.47126  0.75983  1.0000
  Fe  Fe52      1.0  0.54983  0.17117  0.95564  1.0000
  N   N27       1.0  0.61760  0.06777  0.52189  1.0000
  Fe  Fe53      1.0  0.56662  0.13667  0.89497  1.0000
  S   S101      1.0  0.59028  0.13898  0.84645  1.0000
  S   S102      1.0  0.52425  0.13986  0.97696  1.0000
  S   S103      1.0  0.54281  0.10257  0.91111  1.0000
  Fe  Fe54      1.0  0.63548  0.07696  0.64584  1.0000
  H   H316      1.0  0.50640  0.22369  0.97438  1.0000
  S   S104      1.0  0.62001  0.11410  0.62209  1.0000
  Fe  Fe55      1.0  0.63642  0.04217  0.70844  1.0000
  S   S105      1.0  0.62008  0.03676  0.76172  1.0000
  S   S106      1.0  0.45538  0.04876  0.77987  1.0000
  H   H317      1.0  0.49026  0.50045  0.56550  1.0000
  H   H318      1.0  0.67460  0.06432  0.76514  1.0000
  Fe  Fe56      1.0  0.50792  0.39215  0.53550  1.0000
  S   S107      1.0  0.54043  0.37098  0.56275  1.0000
  S   S108      1.0  0.46860  0.39925  0.55967  1.0000
  H   H319      1.0  0.61860  0.13140  0.78462  1.0000
  C   C314      1.0  0.50351  0.26435  0.99047  1.0000
  S   S109      1.0  0.55466  0.39706  0.91376  1.0000
  Fe  Fe57      1.0  0.54767  0.39347  0.97060  1.0000
  C   C315      1.0  0.55946  0.12786  0.75527  1.0000
  Fe  Fe58      1.0  0.56540  0.40219  0.54046  1.0000
  S   S110      1.0  0.59851  0.42233  0.56712  1.0000
  C   C316      1.0  0.51685  0.24054  0.98377  1.0000
  S   S111      1.0  0.53247  0.42506  0.51705  1.0000
  Fe  Fe59      1.0  0.63136  0.49283  0.80935  1.0000
  S   S112      1.0  0.55991  0.30708  0.50987  1.0000
  S   S113      1.0  0.63675  0.47930  0.86379  1.0000
  Fe  Fe60      1.0  0.60234  0.48909  0.74167  1.0000
  S   S114      1.0  0.56931  0.47054  0.71244  1.0000
  C   C317      1.0  0.45238  0.48791  0.54998  1.0000
  C   C318      1.0  0.54364  0.23866  0.98947  1.0000
  S   S115      1.0  0.45779  0.49084  0.66936  1.0000
  S   S116      1.0  0.65854  0.07796  0.69462  1.0000
  C   C319      1.0  0.46532  0.42551  0.58893  1.0000
  C   C320      1.0  0.44093  0.43153  0.60317  1.0000
  C   C321      1.0  0.43811  0.45200  0.62735  1.0000
  C   C322      1.0  0.45980  0.46621  0.63767  1.0000
  C   C323      1.0  0.48411  0.46031  0.62326  1.0000
  C   C324      1.0  0.48681  0.44021  0.59868  1.0000
  H   H320      1.0  0.42421  0.42020  0.59565  1.0000
  H   H321      1.0  0.41930  0.45641  0.63845  1.0000
  H   H322      1.0  0.50087  0.47149  0.63091  1.0000
  H   H323      1.0  0.50555  0.43582  0.58756  1.0000
  C   C325      1.0  0.57725  0.42035  0.90054  1.0000
  C   C326      1.0  0.57833  0.42711  0.86574  1.0000
  C   C327      1.0  0.59647  0.44531  0.85431  1.0000
  C   C328      1.0  0.61385  0.45654  0.87760  1.0000
  C   C329      1.0  0.61266  0.44996  0.91247  1.0000
  C   C330      1.0  0.59430  0.43196  0.92399  1.0000
  H   H324      1.0  0.56518  0.41814  0.84754  1.0000
  H   H325      1.0  0.59730  0.45031  0.82738  1.0000
  H   H326      1.0  0.62612  0.45862  0.93054  1.0000
  H   H327      1.0  0.59371  0.42667  0.95082  1.0000
  C   C331      1.0  0.59040  0.43675  0.60690  1.0000
  C   C332      1.0  0.56449  0.43890  0.61706  1.0000
  C   C333      1.0  0.55817  0.45026  0.64895  1.0000
  C   C334      1.0  0.57775  0.45884  0.67125  1.0000
  C   C335      1.0  0.60369  0.45703  0.66094  1.0000
  C   C336      1.0  0.60999  0.44611  0.62869  1.0000
  H   H328      1.0  0.54939  0.43178  0.60028  1.0000
  H   H329      1.0  0.53812  0.45208  0.65655  1.0000
  H   H330      1.0  0.61893  0.46374  0.67792  1.0000
  H   H331      1.0  0.63008  0.44456  0.62085  1.0000
  H   H332      1.0  0.55181  0.18163  0.55033  1.0000
  H   H333      1.0  0.54382  0.22980  0.55462  1.0000
  C   C337      1.0  0.61383  0.04588  0.54116  1.0000
  S   S117      1.0  0.59213  0.50720  0.79264  1.0000
  H   H334      1.0  0.42272  0.06045  0.83887  1.0000
  S   S118      1.0  0.56374  0.07729  0.99957  1.0000
  C   C338      1.0  0.50094  0.43780  0.72239  1.0000
  H   H335      1.0  0.54699  0.36825  0.63900  1.0000
  C   C339      1.0  0.57187  0.12553  0.72353  1.0000
  H   H336      1.0  0.49167  0.42804  0.74448  1.0000
  C   C340      1.0  0.46680  0.10192  0.87402  1.0000
  C   C341      1.0  0.44388  0.08777  0.87006  1.0000
  C   C342      1.0  0.44039  0.07131  0.84143  1.0000
  C   C343      1.0  0.45952  0.06929  0.81612  1.0000
  C   C344      1.0  0.48236  0.08369  0.81987  1.0000
  C   C345      1.0  0.48615  0.09975  0.84895  1.0000
  H   H337      1.0  0.42882  0.08944  0.88932  1.0000
  C   C346      1.0  0.49399  0.18611  0.50831  1.0000
  H   H338      1.0  0.49701  0.08254  0.80017  1.0000
  H   H339      1.0  0.50378  0.11083  0.85168  1.0000
  C   C347      1.0  0.55723  0.10474  0.53981  1.0000
  C   C348      1.0  0.57390  0.12610  0.53914  1.0000
  C   C349      1.0  0.59275  0.12914  0.56497  1.0000
  C   C350      1.0  0.59559  0.11037  0.59085  1.0000
  C   C351      1.0  0.57914  0.08885  0.59125  1.0000
  C   C352      1.0  0.55975  0.08627  0.56608  1.0000
  C   C353      1.0  0.51626  0.17460  0.52267  1.0000
  S   S119      1.0  0.39552  0.50083  0.73146  1.0000
  H   H340      1.0  0.58109  0.07434  0.61114  1.0000
  H   H341      1.0  0.54691  0.06969  0.56667  1.0000
  C   C354      1.0  0.60059  0.11010  0.82542  1.0000
  C   C355      1.0  0.59453  0.08529  0.83779  1.0000
  C   C356      1.0  0.60139  0.06276  0.81863  1.0000
  C   C357      1.0  0.61387  0.06503  0.78682  1.0000
  C   C358      1.0  0.62028  0.08984  0.77493  1.0000
  C   C359      1.0  0.61393  0.11224  0.79432  1.0000
  H   H342      1.0  0.58440  0.08347  0.86190  1.0000
  H   H343      1.0  0.59647  0.04361  0.82810  1.0000
  H   H344      1.0  0.62951  0.09201  0.75044  1.0000
  C   C360      1.0  0.53733  0.38187  0.65644  1.0000
  Fe  Fe61      1.0  0.54632  0.34957  0.51244  1.0000
  N   N28       1.0  0.53768  0.31318  0.92032  1.0000
  C   C361      1.0  0.56306  0.32060  0.92244  1.0000
  C   C362      1.0  0.53156  0.28731  0.91682  1.0000
  C   C363      1.0  0.58306  0.30178  0.92255  1.0000
  C   C364      1.0  0.55110  0.26801  0.91621  1.0000
  C   C365      1.0  0.57697  0.27530  0.91958  1.0000
  C   C366      1.0  0.51686  0.33302  0.92028  1.0000
  H   H345      1.0  0.56795  0.34118  0.92446  1.0000
  H   H346      1.0  0.51143  0.28143  0.91532  1.0000
  H   H347      1.0  0.60311  0.30773  0.92518  1.0000
  H   H348      1.0  0.54618  0.24742  0.91439  1.0000
  H   H349      1.0  0.59218  0.26038  0.92030  1.0000
  H   H350      1.0  0.51041  0.33696  0.89358  1.0000
  H   H351      1.0  0.50013  0.32652  0.93589  1.0000
  H   H352      1.0  0.52346  0.35171  0.93189  1.0000
  S   S120      1.0  0.50589  0.38900  0.98461  1.0000
  C   C367      1.0  0.53976  0.50116  0.96794  1.0000
  H   H353      1.0  0.39592  0.51765  0.57457  1.0000
  H   H354      1.0  0.44859  0.49834  0.97926  1.0000
  H   H355      1.0  0.48597  0.44940  0.70825  1.0000
  C   C368      1.0  0.57513  0.10087  0.70835  1.0000
  S   S121      1.0  0.66516  0.05229  0.61861  1.0000
  H   H356      1.0  0.52085  0.02881  0.00037  1.0000
  H   H357      1.0  0.64225  0.08642  0.55849  1.0000
  H   H358      1.0  0.62641  0.04150  0.56279  1.0000
  H   H359      1.0  0.50119  0.38243  0.62811  1.0000
  H   H360      1.0  0.60550  0.14580  0.56455  1.0000
  H   H361      1.0  0.55740  0.14683  0.76784  1.0000
  C   C369      1.0  0.52973  0.21726  0.54214  1.0000
  C   C370      1.0  0.51170  0.38982  0.65035  1.0000
  H   H362      1.0  0.54148  0.10736  0.79654  1.0000
  C   C371      1.0  0.56612  0.07876  0.72542  1.0000
  H   H363      1.0  0.57698  0.02097  0.98001  1.0000
  Fe  Fe62      1.0  0.36101  0.51567  0.70141  1.0000
  C   C372      1.0  0.49951  0.04564  0.95804  1.0000
  H   H364      1.0  0.51958  0.15363  0.52047  1.0000
  H   H365      1.0  0.44949  0.22136  0.51400  1.0000
  H   H366      1.0  0.47997  0.41414  0.66764  1.0000
  H   H367      1.0  0.51548  0.45199  0.73219  1.0000
  H   H368      1.0  0.60454  0.51720  0.90659  1.0000
  S   S122      1.0  0.61083  0.04342  0.66156  1.0000
  C   C373      1.0  0.48114  0.04101  0.93217  1.0000
  Fe  Fe63      1.0  0.42051  0.02255  0.78258  1.0000
  H   H369      1.0  0.50802  0.06490  0.96103  1.0000
  H   H370      1.0  0.57927  0.14275  0.71088  1.0000
  S   S123      1.0  0.38320  0.03026  0.81070  1.0000
  N   N29       1.0  0.51333  0.41819  0.69990  1.0000
  C   C374      1.0  0.55695  0.49948  0.94016  1.0000
  C   C375      1.0  0.49984  0.40791  0.67271  1.0000
  C   C376      1.0  0.46957  0.50436  0.56742  1.0000
  S   S124      1.0  0.56161  0.20935  0.98200  1.0000
  C   C377      1.0  0.54492  0.05773  0.77400  1.0000
  C   C378      1.0  0.53429  0.19032  0.53951  1.0000
  C   C379      1.0  0.59341  0.02898  0.53365  1.0000
  H   H371      1.0  0.45477  0.02449  0.87822  1.0000
  C   C380      1.0  0.50669  0.02537  0.98012  1.0000
  H   H372      1.0  0.58493  0.09890  0.68375  1.0000
  H   H373      1.0  0.50998  0.50225  0.71043  1.0000
  H   H374      1.0  0.57076  0.38623  0.68940  1.0000
  H   H375      1.0  0.47547  0.05699  0.91543  1.0000
  C   C381      1.0  0.53819  0.40989  0.70665  1.0000
  H   H376      1.0  0.50397  0.24913  0.52943  1.0000
  H   H377      1.0  0.65730  0.07762  0.51800  1.0000
  H   H378      1.0  0.56915  0.05957  0.71385  1.0000
  H   H379      1.0  0.55858  0.04092  0.76988  1.0000
  H   H380      1.0  0.54361  0.06086  0.80226  1.0000
  H   H381      1.0  0.54895  0.41809  0.72813  1.0000
  H   H382      1.0  0.57221  0.14035  0.51892  1.0000
  S   S125      1.0  0.53338  0.10027  0.50796  1.0000
  C   C382      1.0  0.51686  0.28654  0.00233  1.0000
  H   H383      1.0  0.46738  0.51318  0.73756  1.0000
  N   N30       1.0  0.55432  0.08118  0.75677  1.0000
  H   H384      1.0  0.52540  0.05258  0.76397  1.0000
  H   H385      1.0  0.56296  0.48028  0.93065  1.0000
  C   C383      1.0  0.41660  0.51369  0.57239  1.0000
  C   C384      1.0  0.55059  0.10536  0.77152  1.0000
  C   C385      1.0  0.55065  0.39182  0.68485  1.0000
  Fe  Fe64      1.0  0.65776  0.50944  0.74364  1.0000
  H   H386      1.0  0.63518  0.10544  0.52139  1.0000
  C   C386      1.0  0.42572  0.49254  0.55274  1.0000
  Fe  Fe65      1.0  0.41948  0.50960  0.68496  1.0000
  H   H387      1.0  0.53250  0.48349  0.97978  1.0000
  C   C387      1.0  0.63921  0.08513  0.53020  1.0000
  H   H388      1.0  0.45967  0.47130  0.53511  1.0000
  H   H389      1.0  0.58010  0.50227  0.87993  1.0000
  H   H390      1.0  0.41217  0.47965  0.53984  1.0000
  C   C388      1.0  0.50711  0.22810  0.52779  1.0000
  C   C389      1.0  0.50862  0.51730  0.73026  1.0000
  H   H391      1.0  0.48276  0.26566  0.98625  1.0000
  C   C390      1.0  0.55687  0.26071  0.00182  1.0000
  C   C391      1.0  0.44846  0.51207  0.00154  1.0000
  H   H392      1.0  0.67020  0.02219  0.79481  1.0000
  N   N31       1.0  0.48977  0.21256  0.51075  1.0000
  H   H393      1.0  0.58182  0.45732  0.50946  1.0000
  S   S126      1.0  0.56162  0.35847  0.00010  1.0000
  C   C392      1.0  0.57705  0.03438  0.50592  1.0000
  H   H394      1.0  0.42024  0.94701  0.49947  1.0000
  H   H395      1.0  0.44333  0.61748  0.01936  1.0000
  S   S127      1.0  0.63748  0.97184  0.13755  1.0000
  Fe  Fe66      1.0  0.63215  0.52742  0.27755  1.0000
  C   C393      1.0  0.35175  0.60370  0.32972  1.0000
  S   S128      1.0  0.50081  0.90938  0.43930  1.0000
  Fe  Fe67      1.0  0.51591  0.91775  0.04212  1.0000
  S   S129      1.0  0.51472  0.88388  0.07860  1.0000
  S   S130      1.0  0.53473  0.95724  0.05035  1.0000
  Fe  Fe68      1.0  0.51459  0.85777  0.03139  1.0000
  S   S131      1.0  0.67192  0.01025  0.21198  1.0000
  Fe  Fe69      1.0  0.47159  0.88657  0.07026  1.0000
  S   S132      1.0  0.44544  0.88165  0.11602  1.0000
  H   H396      1.0  0.61153  0.92584  0.11373  1.0000
  S   S133      1.0  0.47260  0.92182  0.03635  1.0000
  H   H397      1.0  0.45725  0.92022  0.24705  1.0000
  Fe  Fe70      1.0  0.39024  0.97793  0.24896  1.0000
  S   S134      1.0  0.36743  0.94299  0.26457  1.0000
  S   S135      1.0  0.40780  0.98314  0.19649  1.0000
  C   C394      1.0  0.38108  0.57281  0.35668  1.0000
  Fe  Fe71      1.0  0.38821  0.94705  0.31501  1.0000
  S   S136      1.0  0.40000  0.91152  0.34548  1.0000
  S   S137      1.0  0.41394  0.97931  0.29757  1.0000
  C   C395      1.0  0.53847  0.76783  0.00665  1.0000
  C   C396      1.0  0.62302  0.97906  0.03617  1.0000
  S   S138      1.0  0.61655  0.56782  0.29039  1.0000
  C   C397      1.0  0.59645  0.63566  0.42671  1.0000
  Fe  Fe72      1.0  0.39834  0.56264  0.16722  1.0000
  H   H398      1.0  0.35401  0.01016  0.18546  1.0000
  S   S139      1.0  0.40443  0.59523  0.12942  1.0000
  Fe  Fe73      1.0  0.41230  0.53907  0.23658  1.0000
  S   S140      1.0  0.43923  0.53713  0.28229  1.0000
  S   S141      1.0  0.38509  0.57140  0.22105  1.0000
  S   S142      1.0  0.35762  0.97356  0.33731  1.0000
  S   S143      1.0  0.47365  0.66113  0.47034  1.0000
  H   H399      1.0  0.49008  0.85189  0.45027  1.0000
  Fe  Fe74      1.0  0.52773  0.61178  0.44064  1.0000
  S   S144      1.0  0.51292  0.64376  0.40610  1.0000
  S   S145      1.0  0.55899  0.58084  0.43249  1.0000
  Fe  Fe75      1.0  0.51391  0.67018  0.45275  1.0000
  H   H400      1.0  0.60778  0.65555  0.33263  1.0000
  Fe  Fe76      1.0  0.47372  0.63245  0.42588  1.0000
  S   S146      1.0  0.44011  0.63127  0.38862  1.0000
  C   C398      1.0  0.52364  0.78960  0.01782  1.0000
  S   S147      1.0  0.48840  0.59851  0.45726  1.0000
  C   C399      1.0  0.44134  0.56458  0.30970  1.0000
  C   C400      1.0  0.45633  0.56269  0.33972  1.0000
  C   C401      1.0  0.45691  0.58355  0.36342  1.0000
  C   C402      1.0  0.44233  0.60633  0.35731  1.0000
  C   C403      1.0  0.42796  0.60854  0.32678  1.0000
  C   C404      1.0  0.42745  0.58770  0.30298  1.0000
  H   H401      1.0  0.46722  0.54490  0.34498  1.0000
  H   H402      1.0  0.46813  0.58173  0.38682  1.0000
  H   H403      1.0  0.41684  0.62624  0.32181  1.0000
  H   H404      1.0  0.41601  0.58944  0.27981  1.0000
  C   C405      1.0  0.42568  0.58940  0.09489  1.0000
  C   C406      1.0  0.44338  0.56838  0.09509  1.0000
  C   C407      1.0  0.46115  0.56516  0.06803  1.0000
  C   C408      1.0  0.46129  0.58296  0.04078  1.0000
  C   C409      1.0  0.44351  0.60385  0.04049  1.0000
  C   C410      1.0  0.42568  0.60698  0.06742  1.0000
  H   H405      1.0  0.44360  0.55480  0.11622  1.0000
  H   H406      1.0  0.47487  0.54892  0.06831  1.0000
  H   H407      1.0  0.39585  0.56879  0.37595  1.0000
  H   H408      1.0  0.41194  0.62320  0.06710  1.0000
  C   C411      1.0  0.59820  0.56932  0.32833  1.0000
  C   C412      1.0  0.57914  0.58898  0.33249  1.0000
  C   C413      1.0  0.56611  0.59207  0.36396  1.0000
  C   C414      1.0  0.57262  0.57591  0.39159  1.0000
  C   C415      1.0  0.59159  0.55621  0.38734  1.0000
  C   C416      1.0  0.60408  0.55263  0.35563  1.0000
  H   H409      1.0  0.57459  0.60194  0.31139  1.0000
  H   H410      1.0  0.55151  0.60731  0.36707  1.0000
  H   H411      1.0  0.59701  0.54407  0.40889  1.0000
  H   H412      1.0  0.61904  0.53769  0.35269  1.0000
  S   S148      1.0  0.36003  0.00738  0.26636  1.0000
  C   C417      1.0  0.58596  0.66336  0.37863  1.0000
  C   C418      1.0  0.46799  0.79139  0.43046  1.0000
  Fe  Fe77      1.0  0.49662  0.89339  0.49290  1.0000
  S   S149      1.0  0.42846  0.53317  0.18363  1.0000
  H   H413      1.0  0.38352  0.53956  0.07535  1.0000
  C   C419      1.0  0.61512  0.62270  0.40653  1.0000
  C   C420      1.0  0.63927  0.61669  0.35271  1.0000
  C   C421      1.0  0.47176  0.95120  0.21546  1.0000
  H   H414      1.0  0.42546  0.69338  0.08128  1.0000
  C   C422      1.0  0.42823  0.91159  0.37095  1.0000
  C   C423      1.0  0.43033  0.89354  0.39770  1.0000
  C   C424      1.0  0.45244  0.89282  0.41873  1.0000
  C   C425      1.0  0.47293  0.90983  0.41283  1.0000
  C   C426      1.0  0.47112  0.92758  0.38555  1.0000
  C   C427      1.0  0.44864  0.92874  0.36491  1.0000
  H   H415      1.0  0.41466  0.88011  0.40227  1.0000
  H   H416      1.0  0.45353  0.87884  0.43914  1.0000
  H   H417      1.0  0.48696  0.94072  0.38065  1.0000
  H   H418      1.0  0.44724  0.94260  0.34412  1.0000
  C   C428      1.0  0.43276  0.90995  0.13623  1.0000
  C   C429      1.0  0.41931  0.90748  0.16725  1.0000
  C   C430      1.0  0.41110  0.92982  0.18565  1.0000
  C   C431      1.0  0.41603  0.95476  0.17287  1.0000
  C   C432      1.0  0.42865  0.95724  0.14125  1.0000
  C   C433      1.0  0.43710  0.93488  0.12303  1.0000
  H   H419      1.0  0.41589  0.88821  0.17755  1.0000
  H   H420      1.0  0.40160  0.92765  0.21009  1.0000
  H   H421      1.0  0.43238  0.97649  0.13115  1.0000
  H   H422      1.0  0.44713  0.93698  0.09897  1.0000
  C   C434      1.0  0.60695  0.96777  0.11767  1.0000
  C   C435      1.0  0.59122  0.98933  0.10920  1.0000
  C   C436      1.0  0.56863  0.98576  0.08941  1.0000
  C   C437      1.0  0.56137  0.96060  0.07852  1.0000
  C   C438      1.0  0.57650  0.93894  0.08819  1.0000
  C   C439      1.0  0.59937  0.94258  0.10738  1.0000
  H   H423      1.0  0.48696  0.97747  0.17809  1.0000
  H   H424      1.0  0.55704  0.00260  0.08188  1.0000
  H   H425      1.0  0.57117  0.91949  0.07974  1.0000
  H   H426      1.0  0.52830  0.52562  0.25376  1.0000
  C   C440      1.0  0.48591  0.76160  0.02069  1.0000
  H   H427      1.0  0.63553  0.96725  0.05260  1.0000
  H   H428      1.0  0.52926  0.85971  0.41763  1.0000
  C   C441      1.0  0.50839  0.94391  0.13278  1.0000
  H   H429      1.0  0.65028  0.00652  0.07955  1.0000
  H   H430      1.0  0.36428  0.99392  0.14648  1.0000
  H   H431      1.0  0.54853  0.76235  0.47183  1.0000
  H   H432      1.0  0.64185  0.59589  0.36041  1.0000
  C   C442      1.0  0.45977  0.98972  0.42345  1.0000
  H   H433      1.0  0.49069  0.76124  0.40509  1.0000
  H   H434      1.0  0.45123  0.77908  0.43406  1.0000
  C   C443      1.0  0.42900  0.93769  0.47626  1.0000
  C   C444      1.0  0.41312  0.96351  0.42745  1.0000
  N   N32       1.0  0.49503  0.93754  0.16479  1.0000
  N   N33       1.0  0.62536  0.00571  0.03559  1.0000
  H   H435      1.0  0.57444  0.67908  0.36744  1.0000
  H   H436      1.0  0.46319  0.96676  0.23109  1.0000
  H   H437      1.0  0.48729  0.66508  0.04698  1.0000
  S   S150      1.0  0.48321  0.57819  0.00683  1.0000
  H   H438      1.0  0.54641  0.83666  0.44470  1.0000
  H   H439      1.0  0.52566  0.93093  0.12894  1.0000
  H   H440      1.0  0.45319  0.62579  0.15298  1.0000
  C   C445      1.0  0.52866  0.76036  0.48023  1.0000
  C   C446      1.0  0.49012  0.78142  0.41412  1.0000
  C   C447      1.0  0.44447  0.68885  0.06909  1.0000
  C   C448      1.0  0.48999  0.73439  0.48495  1.0000
  N   N34       1.0  0.45784  0.66659  0.08524  1.0000
  C   C449      1.0  0.47990  0.65660  0.07038  1.0000
  C   C450      1.0  0.44851  0.65605  0.11491  1.0000
  C   C451      1.0  0.49291  0.63506  0.08472  1.0000
  H   H441      1.0  0.59699  0.00882  0.11674  1.0000
  S   S151      1.0  0.36710  0.53343  0.15690  1.0000
  C   C452      1.0  0.49731  0.78629  0.02496  1.0000
  C   C453      1.0  0.48514  0.95713  0.18533  1.0000
  H   H442      1.0  0.43080  0.66359  0.12653  1.0000
  S   S152      1.0  0.47138  0.85788  0.02619  1.0000
  N   N35       1.0  0.51147  0.82248  0.42315  1.0000
  H   H443      1.0  0.45680  0.70653  0.07077  1.0000
  H   H444      1.0  0.47814  0.99975  0.42194  1.0000
  H   H445      1.0  0.47962  0.71654  0.47998  1.0000
  H   H446      1.0  0.49288  0.60689  0.12566  1.0000
  C   C454      1.0  0.46791  0.81693  0.44344  1.0000
  H   H447      1.0  0.50992  0.62668  0.07221  1.0000
  C   C455      1.0  0.64526  0.01845  0.05660  1.0000
  C   C456      1.0  0.39337  0.52317  0.06278  1.0000
  H   H448      1.0  0.39486  0.95322  0.42848  1.0000
  H   H449      1.0  0.47181  0.96517  0.46530  1.0000
  N   N36       1.0  0.37407  0.55392  0.33343  1.0000
  N   N37       1.0  0.43294  0.95732  0.44956  1.0000
  C   C457      1.0  0.49001  0.83224  0.43964  1.0000
  C   C458      1.0  0.58189  0.65617  0.41266  1.0000
  C   C459      1.0  0.46831  0.92507  0.22432  1.0000
  H   H450      1.0  0.37657  0.61318  0.37280  1.0000
  C   C460      1.0  0.53468  0.83865  0.42082  1.0000
  H   H451      1.0  0.51545  0.96437  0.13279  1.0000
  H   H452      1.0  0.47446  0.88485  0.20864  1.0000
  H   H453      1.0  0.60105  0.94573  0.01866  1.0000
  C   C461      1.0  0.46121  0.63469  0.13017  1.0000
  H   H454      1.0  0.48572  0.80272  0.03398  1.0000
  H   H455      1.0  0.45114  0.82457  0.45726  1.0000
  C   C462      1.0  0.51190  0.79729  0.41085  1.0000
  H   H456      1.0  0.62597  0.60643  0.41749  1.0000
  H   H457      1.0  0.56727  0.66633  0.42799  1.0000
  C   C463      1.0  0.37016  0.59802  0.35507  1.0000
  H   H458      1.0  0.49505  0.94135  0.11057  1.0000
  C   C464      1.0  0.60479  0.64997  0.35914  1.0000
  C   C465      1.0  0.47804  0.90523  0.20289  1.0000
  C   C466      1.0  0.38550  0.52754  0.33570  1.0000
  C   C467      1.0  0.48341  0.62402  0.11475  1.0000
  H   H459      1.0  0.41614  0.92183  0.46691  1.0000
  Fe  Fe78      1.0  0.35580  0.53971  0.21226  1.0000
  H   H460      1.0  0.40049  0.98792  0.38528  1.0000
  H   H461      1.0  0.59279  0.62931  0.45279  1.0000
  S   S153      1.0  0.53844  0.82064  0.02157  1.0000
  C   C468      1.0  0.41620  0.98298  0.40278  1.0000
  S   S154      1.0  0.53265  0.63924  0.48526  1.0000
  H   H462      1.0  0.49785  0.89632  0.15570  1.0000
  N   N38       1.0  0.61898  0.62984  0.37313  1.0000
  H   H463      1.0  0.41755  0.54768  0.03240  1.0000
  C   C469      1.0  0.45601  0.97025  0.44797  1.0000
  C   C470      1.0  0.49130  0.91186  0.17294  1.0000
  C   C471      1.0  0.35562  0.55916  0.30897  1.0000
  H   H464      1.0  0.52925  0.78913  0.39900  1.0000
  C   C472      1.0  0.43968  0.99609  0.40077  1.0000
  Fe  Fe79      1.0  0.64701  0.01008  0.16423  1.0000
  C   C473      1.0  0.51564  0.73677  0.47396  1.0000
  H   H465      1.0  0.44770  0.92825  0.48382  1.0000
  H   H466      1.0  0.63400  0.61622  0.32495  1.0000
  H   H467      1.0  0.44082  0.68452  0.04142  1.0000
  Fe  Fe80      1.0  0.38202  0.00594  0.31655  1.0000
  S   S155      1.0  0.53191  0.71059  0.45270  1.0000
  H   H468      1.0  0.54679  0.83294  0.39835  1.0000
  H   H469      1.0  0.46550  0.75935  0.02624  1.0000
  H   H470      1.0  0.65799  0.62693  0.35592  1.0000
  H   H471      1.0  0.40540  0.52810  0.34684  1.0000
  H   H472      1.0  0.34965  0.54408  0.29089  1.0000
  C   C474      1.0  0.41289  0.52765  0.03870  1.0000
  C   C475      1.0  0.47765  0.75514  0.50265  1.0000
  Fe  Fe81      1.0  0.49226  0.62815  0.49972  1.0000
  H   H473      1.0  0.35782  0.95670  0.19118  1.0000
  H   H474      1.0  0.44226  0.01114  0.38162  1.0000
  H   H475      1.0  0.52656  0.79915  0.50314  1.0000
  C   C476      1.0  0.50059  0.73997  0.00892  1.0000
  C   C477      1.0  0.60363  0.96674  0.01694  1.0000
  C   C478      1.0  0.51625  0.78124  0.49785  1.0000
  H   H476      1.0  0.51005  0.75359  0.89371  1.0000
  C   C479      1.0  0.48476  0.52344  0.74540  1.0000
  S   S156      1.0  0.63167  0.99053  0.59367  1.0000
  H   H477      1.0  0.54574  0.56098  0.77333  1.0000
  C   C480      1.0  0.50377  0.69259  0.55527  1.0000
  S   S157      1.0  0.46040  0.89299  0.93938  1.0000
  Fe  Fe82      1.0  0.52099  0.88943  0.56416  1.0000
  S   S158      1.0  0.48599  0.86937  0.58535  1.0000
  S   S159      1.0  0.54993  0.89929  0.60596  1.0000
  H   H478      1.0  0.50064  0.98497  0.99352  1.0000
  S   S160      1.0  0.52023  0.89168  0.99569  1.0000
  Fe  Fe83      1.0  0.46318  0.89961  0.55642  1.0000
  S   S161      1.0  0.43084  0.92621  0.57496  1.0000
  H   H479      1.0  0.60747  0.96644  0.65300  1.0000
  H   H480      1.0  0.46827  0.97775  0.94723  1.0000
  H   H481      1.0  0.47935  0.94899  0.75117  1.0000
  Fe  Fe84      1.0  0.40479  0.96739  0.76215  1.0000
  S   S162      1.0  0.48978  0.62053  0.55658  1.0000
  S   S163      1.0  0.41804  0.92998  0.73653  1.0000
  C   C481      1.0  0.65343  0.60730  0.78767  1.0000
  Fe  Fe85      1.0  0.38937  0.98982  0.83154  1.0000
  S   S164      1.0  0.38494  0.98362  0.88834  1.0000
  S   S165      1.0  0.42785  0.98342  0.80629  1.0000
  C   C482      1.0  0.49539  0.00081  0.97621  1.0000
  C   C483      1.0  0.52701  0.74310  0.00216  1.0000
  H   H482      1.0  0.45077  0.99165  0.89255  1.0000
  H   H483      1.0  0.49797  0.84296  0.94879  1.0000
  Fe  Fe86      1.0  0.39073  0.56079  0.67170  1.0000
  H   H484      1.0  0.52189  0.58047  0.81983  1.0000
  S   S166      1.0  0.38518  0.59060  0.62999  1.0000
  Fe  Fe87      1.0  0.40099  0.54315  0.74523  1.0000
  C   C484      1.0  0.49073  0.77856  0.50939  1.0000
  S   S167      1.0  0.36505  0.55749  0.71797  1.0000
  Fe  Fe88      1.0  0.49186  0.61416  0.97556  1.0000
  S   S168      1.0  0.46637  0.64742  0.95770  1.0000
  H   H485      1.0  0.49689  0.91360  0.64230  1.0000
  Fe  Fe89      1.0  0.53961  0.63598  0.94205  1.0000
  S   S169      1.0  0.51898  0.67186  0.92194  1.0000
  S   S170      1.0  0.58033  0.62133  0.93274  1.0000
  Fe  Fe90      1.0  0.49936  0.67360  0.97347  1.0000
  H   H486      1.0  0.55890  0.77015  0.00131  1.0000
  Fe  Fe91      1.0  0.48763  0.64362  0.90761  1.0000
  S   S171      1.0  0.47051  0.64758  0.85462  1.0000
  C   C485      1.0  0.55901  0.54590  0.93773  1.0000
  S   S172      1.0  0.50978  0.60780  0.92375  1.0000
  C   C486      1.0  0.42604  0.57650  0.81585  1.0000
  C   C487      1.0  0.43391  0.57807  0.85031  1.0000
  C   C488      1.0  0.44741  0.59996  0.86245  1.0000
  C   C489      1.0  0.45293  0.62044  0.84017  1.0000
  C   C490      1.0  0.44495  0.61895  0.80571  1.0000
  C   C491      1.0  0.43164  0.59691  0.79346  1.0000
  H   H487      1.0  0.42962  0.56226  0.86764  1.0000
  H   H488      1.0  0.45343  0.60105  0.88907  1.0000
  H   H489      1.0  0.44920  0.63482  0.78845  1.0000
  H   H490      1.0  0.42563  0.59579  0.76684  1.0000
  C   C492      1.0  0.41403  0.59949  0.60948  1.0000
  C   C493      1.0  0.43744  0.59965  0.62767  1.0000
  C   C494      1.0  0.46047  0.60633  0.61105  1.0000
  C   C495      1.0  0.46033  0.61235  0.57601  1.0000
  C   C496      1.0  0.43696  0.61221  0.55766  1.0000
  C   C497      1.0  0.41376  0.60600  0.57452  1.0000
  H   H491      1.0  0.43772  0.59521  0.65477  1.0000
  H   H492      1.0  0.47849  0.60679  0.62542  1.0000
  C   C498      1.0  0.49531  0.93474  0.63582  1.0000
  H   H493      1.0  0.39563  0.60593  0.56039  1.0000
  C   C499      1.0  0.59016  0.59207  0.82229  1.0000
  C   C500      1.0  0.60656  0.58262  0.84823  1.0000
  C   C501      1.0  0.60382  0.59206  0.88205  1.0000
  C   C502      1.0  0.58414  0.61029  0.89017  1.0000
  C   C503      1.0  0.56737  0.61922  0.86434  1.0000
  C   C504      1.0  0.57069  0.61049  0.83034  1.0000
  H   H494      1.0  0.62165  0.56841  0.84215  1.0000
  H   H495      1.0  0.61678  0.58508  0.90201  1.0000
  H   H496      1.0  0.55216  0.63333  0.87041  1.0000
  H   H497      1.0  0.55808  0.61801  0.81032  1.0000
  H   H498      1.0  0.36358  0.94263  0.71398  1.0000
  C   C505      1.0  0.47845  0.95659  0.72523  1.0000
  S   S173      1.0  0.66562  0.01366  0.68565  1.0000
  C   C506      1.0  0.54183  0.54829  0.96537  1.0000
  C   C507      1.0  0.47875  0.54111  0.60627  1.0000
  Fe  Fe92      1.0  0.36380  0.00992  0.76632  1.0000
  H   H499      1.0  0.44071  0.69231  0.57766  1.0000
  H   H500      1.0  0.54225  0.70347  0.53946  1.0000
  Fe  Fe93      1.0  0.61320  0.54215  0.77397  1.0000
  C   C508      1.0  0.46771  0.98136  0.71919  1.0000
  C   C509      1.0  0.40560  0.95835  0.90303  1.0000
  C   C510      1.0  0.41196  0.95656  0.93803  1.0000
  C   C511      1.0  0.42901  0.93672  0.94963  1.0000
  C   C512      1.0  0.43948  0.91852  0.92622  1.0000
  C   C513      1.0  0.43302  0.92036  0.89133  1.0000
  C   C514      1.0  0.41624  0.94026  0.87974  1.0000
  H   H501      1.0  0.40367  0.97047  0.95616  1.0000
  H   H502      1.0  0.51868  0.52749  0.00186  1.0000
  H   H503      1.0  0.44095  0.90624  0.87317  1.0000
  H   H504      1.0  0.41116  0.94121  0.85280  1.0000
  C   C515      1.0  0.42645  0.92680  0.61972  1.0000
  C   C516      1.0  0.41433  0.94854  0.63535  1.0000
  C   C517      1.0  0.41164  0.94978  0.67123  1.0000
  C   C518      1.0  0.42072  0.92909  0.69153  1.0000
  C   C519      1.0  0.43243  0.90719  0.67582  1.0000
  C   C520      1.0  0.43542  0.90610  0.64003  1.0000
  H   H505      1.0  0.40732  0.96458  0.61970  1.0000
  H   H506      1.0  0.40253  0.96669  0.68305  1.0000
  H   H507      1.0  0.43928  0.89103  0.69138  1.0000
  H   H508      1.0  0.44429  0.88904  0.62817  1.0000
  C   C521      1.0  0.60741  0.96666  0.59771  1.0000
  C   C522      1.0  0.59678  0.95541  0.56784  1.0000
  C   C523      1.0  0.57826  0.93551  0.57003  1.0000
  C   C524      1.0  0.57089  0.92616  0.60216  1.0000
  C   C525      1.0  0.58131  0.93758  0.63204  1.0000
  C   C526      1.0  0.59925  0.95804  0.62986  1.0000
  H   H509      1.0  0.60322  0.96178  0.54288  1.0000
  H   H510      1.0  0.57051  0.92667  0.54689  1.0000
  H   H511      1.0  0.57581  0.93030  0.65696  1.0000
  H   H512      1.0  0.48233  0.93622  0.61304  1.0000
  N   N39       1.0  0.50514  0.55614  0.78069  1.0000
  C   C527      1.0  0.48334  0.54313  0.77057  1.0000
  C   C528      1.0  0.52857  0.55039  0.76577  1.0000
  H   H513      1.0  0.53102  0.75769  0.93073  1.0000
  H   H514      1.0  0.43672  0.61698  0.53062  1.0000
  H   H515      1.0  0.50587  0.67283  0.54516  1.0000
  H   H516      1.0  0.46468  0.54792  0.78193  1.0000
  H   H517      1.0  0.48518  0.55724  0.58940  1.0000
  H   H518      1.0  0.46080  0.99340  0.74049  1.0000
  H   H519      1.0  0.64534  0.59839  0.73456  1.0000
  N   N40       1.0  0.48507  0.95039  0.66458  1.0000
  C   C529      1.0  0.48724  0.94132  0.69747  1.0000
  C   C530      1.0  0.47449  0.97462  0.65841  1.0000
  S   S174      1.0  0.42717  0.55111  0.70079  1.0000
  H   H520      1.0  0.51494  0.94161  0.62876  1.0000
  H   H521      1.0  0.45695  0.00956  0.68070  1.0000
  S   S175      1.0  0.65192  0.52958  0.79463  1.0000
  H   H522      1.0  0.57093  0.97258  0.98315  1.0000
  C   C531      1.0  0.58992  0.00891  0.99549  1.0000
  S   S176      1.0  0.52323  0.64030  0.99524  1.0000
  H   H523      1.0  0.49698  0.59581  0.79390  1.0000
  H   H524      1.0  0.45990  0.75511  0.93526  1.0000
  S   S177      1.0  0.52346  0.86337  0.51697  1.0000
  S   S178      1.0  0.47471  0.80319  0.53372  1.0000
  H   H525      1.0  0.63587  0.61903  0.79117  1.0000
  N   N41       1.0  0.48099  0.70070  0.57015  1.0000
  H   H526      1.0  0.43155  0.79310  0.95026  1.0000
  N   N42       1.0  0.49437  0.77771  0.93332  1.0000
  C   C532      1.0  0.50505  0.80198  0.93709  1.0000
  C   C533      1.0  0.46830  0.77441  0.93790  1.0000
  C   C534      1.0  0.48948  0.82374  0.94551  1.0000
  C   C535      1.0  0.45218  0.79576  0.94642  1.0000
  C   C536      1.0  0.46287  0.82059  0.94996  1.0000
  C   C537      1.0  0.51057  0.75540  0.92215  1.0000
  H   H527      1.0  0.52578  0.80461  0.93417  1.0000
  H   H528      1.0  0.49651  0.76325  0.59017  1.0000
  C   C538      1.0  0.52457  0.70974  0.55241  1.0000
  S   S179      1.0  0.48476  0.70974  0.00264  1.0000
  S   S180      1.0  0.36663  0.96997  0.78975  1.0000
  S   S181      1.0  0.49799  0.92096  0.53795  1.0000
  C   C539      1.0  0.46562  0.99046  0.68559  1.0000
  C   C540      1.0  0.52206  0.73522  0.56531  1.0000
  C   C541      1.0  0.45964  0.68219  0.57324  1.0000
  H   H529      1.0  0.45061  0.83742  0.95630  1.0000
  H   H530      1.0  0.50359  0.73681  0.93341  1.0000
  S   S182      1.0  0.59414  0.58171  0.77949  1.0000
  C   C542      1.0  0.53208  0.52578  0.98044  1.0000
  H   H531      1.0  0.43368  0.93523  0.97666  1.0000
  H   H532      1.0  0.45764  0.67032  0.54930  1.0000
  H   H533      1.0  0.53776  0.74897  0.56243  1.0000
  C   C543      1.0  0.47845  0.72558  0.58322  1.0000
  C   C544      1.0  0.53073  0.53080  0.74054  1.0000
  C   C545      1.0  0.50311  0.57723  0.80641  1.0000
  S   S183      1.0  0.40068  0.00603  0.73582  1.0000
  H   H534      1.0  0.48861  0.57247  0.82641  1.0000
  H   H535      1.0  0.56664  0.56357  0.92644  1.0000
  C   C546      1.0  0.49891  0.74322  0.58094  1.0000
  H   H536      1.0  0.46357  0.66860  0.59487  1.0000
  H   H537      1.0  0.59028  0.01192  0.54947  1.0000
  H   H538      1.0  0.49541  0.92202  0.70236  1.0000
  H   H539      1.0  0.47263  0.98167  0.63229  1.0000
  S   S184      1.0  0.41053  0.54809  0.80135  1.0000
  Fe  Fe94      1.0  0.48649  0.84585  0.53619  1.0000
  Fe  Fe95      1.0  0.47682  0.89301  0.99299  1.0000
  H   H540      1.0  0.46044  0.73211  0.59503  1.0000
  C   C547      1.0  0.58670  0.98185  0.99698  1.0000
  H   H541      1.0  0.46970  0.54969  0.62978  1.0000
  C   C548      1.0  0.47712  0.99685  0.94998  1.0000
  H   H542      1.0  0.49593  0.52956  0.61505  1.0000
  H   H543      1.0  0.53860  0.72653  0.99343  1.0000
  N   N43       1.0  0.46042  0.52444  0.58770  1.0000
  H   H544      1.0  0.58348  0.53703  0.87984  1.0000
  H   H545      1.0  0.53614  0.56753  0.97508  1.0000
  C   C549      1.0  0.67009  0.60275  0.81535  1.0000
  H   H546      1.0  0.66548  0.61091  0.84049  1.0000
  C   C550      1.0  0.65885  0.59586  0.75578  1.0000
  S   S185      1.0  0.45991  0.87441  0.50938  1.0000
  H   H547      1.0  0.44799  0.53236  0.99131  1.0000
  S   S186      1.0  0.38448  0.51979  0.65305  1.0000
  H   H548      1.0  0.54943  0.52615  0.72898  1.0000
  H   H549      1.0  0.42706  0.54577  0.60532  1.0000
  C   C551      1.0  0.43434  0.52957  0.58977  1.0000
  C   C552      1.0  0.45090  0.01245  0.90127  1.0000
  S   S187      1.0  0.62038  0.52542  0.72159  1.0000
  H   H550      1.0  0.45790  0.75295  0.51143  1.0000
  N   N44       1.0  0.56603  0.52170  0.92514  1.0000
  H   H551      1.0  0.35333  0.98525  0.68595  1.0000
  N   N45       1.0  0.47049  0.01675  0.92810  1.0000
  C   C553      1.0  0.58441  0.51950  0.89655  1.0000
  Fe  Fe96      1.0  0.64181  0.01831  0.63712  1.0000
  H   H552      1.0  0.43125  0.01761  0.91121  1.0000
  N   N46       1.0  0.01348  0.29743  0.04258  1.0000
  H   H553      1.0  0.87539  0.42529  0.38774  1.0000
  H   H554      1.0  0.75331  0.49371  0.16279  1.0000
  Fe  Fe97      1.0  0.89302  0.06359  0.32381  1.0000
  H   H555      1.0  0.69560  0.44726  0.16161  1.0000
  S   S188      1.0  0.89159  0.10057  0.35600  1.0000
  H   H556      1.0  0.88356  0.07871  0.48181  1.0000
  Fe  Fe98      1.0  0.69195  0.04447  0.18857  1.0000
  S   S189      1.0  0.87388  0.05653  0.27244  1.0000
  C   C554      1.0  0.74992  0.08807  0.27960  1.0000
  C   C555      1.0  0.79500  0.48758  0.23050  1.0000
  S   S190      1.0  0.99288  0.11181  0.44686  1.0000
  Fe  Fe99      1.0  0.94447  0.13317  0.06910  1.0000
  S   S191      1.0  0.91039  0.12006  0.10037  1.0000
  C   C556      1.0  0.98274  0.08197  0.20220  1.0000
  C   C557      1.0  0.00189  0.22716  0.40812  1.0000
  C   C558      1.0  0.97683  0.32294  0.06241  1.0000
  Fe  Fe100     1.0  0.89624  0.46648  0.14599  1.0000
  S   S192      1.0  0.93108  0.48981  0.16103  1.0000
  S   S193      1.0  0.89571  0.44045  0.09860  1.0000
  Fe  Fe101     1.0  0.92198  0.47769  0.21484  1.0000
  S   S194      1.0  0.95543  0.47108  0.25175  1.0000
  S   S195      1.0  0.88931  0.45138  0.19940  1.0000
  H   H557      1.0  0.69109  0.41156  0.11801  1.0000
  Fe  Fe102     1.0  0.96321  0.38784  0.41641  1.0000
  S   S196      1.0  0.93140  0.40093  0.38029  1.0000
  C   C559      1.0  0.99357  0.05733  0.20943  1.0000
  H   H558      1.0  0.97229  0.21026  0.50318  1.0000
  S   S197      1.0  0.95150  0.36264  0.46062  1.0000
  H   H559      1.0  0.95862  0.32425  0.07628  1.0000
  Fe  Fe103     1.0  0.98935  0.12436  0.50222  1.0000
  C   C560      1.0  0.94653  0.06002  0.47024  1.0000
  C   C561      1.0  0.92130  0.04883  0.42127  1.0000
  C   C562      1.0  0.75970  0.49170  0.18914  1.0000
  H   H560      1.0  0.86383  0.04873  0.16110  1.0000
  H   H561      1.0  0.71062  0.08373  0.26232  1.0000
  H   H562      1.0  0.91991  0.04067  0.39555  1.0000
  H   H563      1.0  0.75364  0.10441  0.26274  1.0000
  S   S198      1.0  0.86774  0.50032  0.15081  1.0000
  C   C563      1.0  0.94981  0.45004  0.28634  1.0000
  C   C564      1.0  0.96665  0.45028  0.31477  1.0000
  C   C565      1.0  0.96196  0.43423  0.34319  1.0000
  C   C566      1.0  0.94026  0.41808  0.34329  1.0000
  C   C567      1.0  0.92382  0.41743  0.31452  1.0000
  C   C568      1.0  0.92854  0.43340  0.28615  1.0000
  H   H564      1.0  0.98316  0.46317  0.31503  1.0000
  H   H565      1.0  0.97462  0.43496  0.36541  1.0000
  H   H566      1.0  0.90705  0.40490  0.31447  1.0000
  H   H567      1.0  0.91557  0.43296  0.26427  1.0000
  C   C569      1.0  0.97219  0.42121  0.04396  1.0000
  C   C570      1.0  0.97242  0.43505  0.07517  1.0000
  C   C571      1.0  0.94915  0.44037  0.09273  1.0000
  C   C572      1.0  0.92553  0.43173  0.07930  1.0000
  C   C573      1.0  0.92544  0.41706  0.04868  1.0000
  C   C574      1.0  0.00704  0.27716  0.49863  1.0000
  H   H568      1.0  0.99060  0.44190  0.08564  1.0000
  H   H569      1.0  0.94957  0.45114  0.11660  1.0000
  Fe  Fe104     1.0  0.86329  0.48701  0.20553  1.0000
  C   C575      1.0  0.99163  0.18219  0.41994  1.0000
  C   C576      1.0  0.92006  0.10622  0.38000  1.0000
  C   C577      1.0  0.94420  0.09765  0.36771  1.0000
  C   C578      1.0  0.96649  0.10025  0.38811  1.0000
  C   C579      1.0  0.96478  0.11114  0.42115  1.0000
  C   C580      1.0  0.94085  0.12067  0.43312  1.0000
  C   C581      1.0  0.91855  0.11845  0.41238  1.0000
  H   H570      1.0  0.94578  0.08927  0.34229  1.0000
  H   H571      1.0  0.98505  0.09330  0.37847  1.0000
  H   H572      1.0  0.98981  0.04808  0.23388  1.0000
  H   H573      1.0  0.89995  0.12536  0.42189  1.0000
  C   C582      1.0  0.92547  0.05627  0.18001  1.0000
  C   C583      1.0  0.93835  0.05529  0.14834  1.0000
  C   C584      1.0  0.93401  0.07491  0.12382  1.0000
  C   C585      1.0  0.91635  0.09532  0.13065  1.0000
  C   C586      1.0  0.90309  0.09600  0.16204  1.0000
  C   C587      1.0  0.90789  0.07672  0.18687  1.0000
  H   H574      1.0  0.95191  0.03944  0.14288  1.0000
  H   H575      1.0  0.94407  0.07405  0.09951  1.0000
  H   H576      1.0  0.88942  0.11179  0.16740  1.0000
  H   H577      1.0  0.89806  0.07782  0.21130  1.0000
  H   H578      1.0  0.90974  0.48553  0.04619  1.0000
  C   C588      1.0  0.74016  0.04523  0.32064  1.0000
  C   C589      1.0  0.00853  0.04441  0.18454  1.0000
  H   H579      1.0  0.96620  0.03986  0.39256  1.0000
  S   S199      1.0  0.98903  0.41356  0.44844  1.0000
  C   C590      1.0  0.69542  0.04286  0.29938  1.0000
  S   S200      1.0  0.82843  0.48536  0.24139  1.0000
  C   C591      1.0  0.97423  0.24752  0.47781  1.0000
  H   H580      1.0  0.90654  0.46100  0.38029  1.0000
  N   N47       1.0  0.94475  0.04973  0.43775  1.0000
  C   C592      1.0  0.85390  0.44929  0.31143  1.0000
  H   H581      1.0  0.92788  0.48993  0.34142  1.0000
  H   H582      1.0  0.98298  0.28212  0.07317  1.0000
  S   S201      1.0  0.70772  0.49275  0.20474  1.0000
  H   H583      1.0  0.92931  0.06946  0.01136  1.0000
  C   C593      1.0  0.96796  0.03877  0.42102  1.0000
  S   S202      1.0  0.93023  0.04334  0.30949  1.0000
  H   H584      1.0  0.93940  0.12933  0.45850  1.0000
  C   C594      1.0  0.89149  0.45820  0.36110  1.0000
  C   C595      1.0  0.98641  0.20534  0.40229  1.0000
  S   S203      1.0  0.97784  0.29335  0.44267  1.0000
  H   H585      1.0  0.90101  0.51309  0.33711  1.0000
  H   H586      1.0  0.87113  0.48136  0.28502  1.0000
  H   H587      1.0  0.98669  0.40154  0.28476  1.0000
  H   H588      1.0  0.68507  0.04626  0.27472  1.0000
  C   C596      1.0  0.85496  0.43346  0.34044  1.0000
  C   C597      1.0  0.98658  0.34496  0.04614  1.0000
  N   N48       1.0  0.98639  0.09320  0.17082  1.0000
  H   H589      1.0  0.95971  0.12479  0.18161  1.0000
  N   N49       1.0  0.89069  0.47321  0.33214  1.0000
  H   H590      1.0  0.96517  0.06079  0.48320  1.0000
  S   S204      1.0  0.99497  0.36051  0.39866  1.0000
  C   C598      1.0  0.92454  0.07046  0.48669  1.0000
  C   C599      1.0  0.78244  0.05099  0.22081  1.0000
  N   N50       1.0  0.72110  0.05487  0.29947  1.0000
  S   S205      1.0  0.00158  0.41554  0.02202  1.0000
  S   S206      1.0  0.00302  0.15999  0.01785  1.0000
  S   S207      1.0  0.93923  0.15254  0.01800  1.0000
  Fe  Fe105     1.0  0.00270  0.13987  0.06915  1.0000
  C   C600      1.0  0.90064  0.07015  0.46970  1.0000
  C   C601      1.0  0.00728  0.40581  0.28448  1.0000
  C   C602      1.0  0.77647  0.48661  0.25693  1.0000
  H   H591      1.0  0.73565  0.48749  0.27012  1.0000
  H   H592      1.0  0.78713  0.06776  0.20530  1.0000
  H   H593      1.0  0.82040  0.04877  0.24440  1.0000
  H   H594      1.0  0.99763  0.24552  0.39523  1.0000
  H   H595      1.0  0.99117  0.13405  0.16494  1.0000
  H   H596      1.0  0.88064  0.05933  0.42293  1.0000
  Fe  Fe106     1.0  0.98029  0.38566  0.49114  1.0000
  S   S208      1.0  0.89586  0.51214  0.22494  1.0000
  H   H597      1.0  0.97083  0.09166  0.22152  1.0000
  C   C603      1.0  0.76959  0.07813  0.30071  1.0000
  Fe  Fe107     1.0  0.90994  0.03287  0.26048  1.0000
  C   C604      1.0  0.89895  0.05920  0.43681  1.0000
  S   S209      1.0  0.73488  0.05401  0.18970  1.0000
  C   C605      1.0  0.01215  0.18127  0.44356  1.0000
  C   C606      1.0  0.74968  0.48823  0.24956  1.0000
  C   C607      1.0  0.98682  0.27164  0.47575  1.0000
  H   H598      1.0  0.78876  0.08669  0.30044  1.0000
  H   H599      1.0  0.84133  0.41763  0.34328  1.0000
  H   H600      1.0  0.98553  0.04993  0.42842  1.0000
  C   C608      1.0  0.87197  0.46925  0.30774  1.0000
  C   C609      1.0  0.87383  0.43794  0.36553  1.0000
  S   S210      1.0  0.97721  0.10693  0.05204  1.0000
  H   H601      1.0  0.97029  0.20643  0.38432  1.0000
  C   C610      1.0  0.94864  0.41212  0.03081  1.0000
  C   C611      1.0  0.98208  0.22877  0.50206  1.0000
  Fe  Fe108     1.0  0.96788  0.18214  0.03679  1.0000
  H   H602      1.0  0.97982  0.16504  0.41553  1.0000
  Fe  Fe109     1.0  0.98534  0.33698  0.44554  1.0000
  S   S211      1.0  0.96994  0.16486  0.08958  1.0000
  H   H603      1.0  0.83927  0.44609  0.29171  1.0000
  H   H604      1.0  0.68333  0.05124  0.32047  1.0000
  C   C612      1.0  0.74117  0.49080  0.21558  1.0000
  H   H605      1.0  0.97378  0.51360  0.20415  1.0000
  C   C613      1.0  0.72561  0.07618  0.27936  1.0000
  H   H606      1.0  0.80052  0.49089  0.17595  1.0000
  H   H607      1.0  0.73664  0.02831  0.33651  1.0000
  C   C614      1.0  0.76474  0.05657  0.32139  1.0000
  C   C615      1.0  0.80131  0.04031  0.24302  1.0000
  C   C616      1.0  0.91566  0.47714  0.02164  1.0000
  C   C617      1.0  0.85157  0.03289  0.16949  1.0000
  C   C618      1.0  0.97556  0.11926  0.16354  1.0000
  H   H608      1.0  0.00303  0.43818  0.24957  1.0000
  C   C619      1.0  0.99074  0.29922  0.06062  1.0000
  H   H609      1.0  0.96700  0.11970  0.13732  1.0000
  H   H610      1.0  0.90725  0.41014  0.03829  1.0000
  H   H611      1.0  0.78017  0.04823  0.33713  1.0000
  H   H612      1.0  0.95853  0.24315  0.46021  1.0000
  H   H613      1.0  0.97616  0.36356  0.04748  1.0000
  H   H614      1.0  0.91454  0.49633  0.30001  1.0000
  C   C620      1.0  0.78649  0.49012  0.19652  1.0000
  S   S212      1.0  0.87596  0.02824  0.34812  1.0000
  S   S213      1.0  0.95727  0.22497  0.02931  1.0000
  C   C621      1.0  0.90941  0.49426  0.32761  1.0000
  C   C622      1.0  0.00085  0.08057  0.14623  1.0000
  H   H615      1.0  0.95529  0.48969  0.02616  1.0000
  S   S214      1.0  0.93226  0.03201  0.21066  1.0000
  H   H616      1.0  0.94818  0.40153  0.00675  1.0000
  H   H617      1.0  0.69695  0.02127  0.30245  1.0000
  C   C623      1.0  0.75761  0.04011  0.21846  1.0000
  H   H618      1.0  0.78285  0.48466  0.28329  1.0000
  C   C624      1.0  0.01228  0.05611  0.15273  1.0000
  H   H619      1.0  0.00345  0.08940  0.12131  1.0000
  H   H620      1.0  0.94487  0.27718  0.00894  1.0000
  H   H621      1.0  0.87865  0.45989  0.01189  1.0000
  H   H622      1.0  0.81887  0.04459  0.13819  1.0000
  C   C625      1.0  0.82643  0.03047  0.15649  1.0000
  S   S215      1.0  0.01349  0.35814  0.47935  1.0000
  C   C626      1.0  0.94123  0.47935  0.01049  1.0000
  C   C627      1.0  0.00980  0.34296  0.02798  1.0000
  Fe  Fe110     1.0  0.85994  0.01920  0.29566  1.0000
  H   H623      1.0  0.92948  0.31302  0.50570  1.0000
  H   H624      1.0  0.95338  0.03670  0.88119  1.0000
  H   H625      1.0  0.81041  0.05728  0.73796  1.0000
  C   C628      1.0  0.98680  0.16905  0.91104  1.0000
  Fe  Fe111     1.0  0.88333  0.06700  0.81778  1.0000
  S   S216      1.0  0.92068  0.04559  0.80729  1.0000
  S   S217      1.0  0.88219  0.10386  0.85017  1.0000
  S   S218      1.0  0.97665  0.39739  0.54701  1.0000
  C   C629      1.0  0.74538  0.02226  0.71837  1.0000
  S   S219      1.0  0.86690  0.06119  0.76449  1.0000
  H   H626      1.0  0.82467  0.42565  0.66314  1.0000
  N   N51       1.0  0.71519  0.06738  0.77546  1.0000
  S   S220      1.0  0.97863  0.10913  0.95089  1.0000
  Fe  Fe112     1.0  0.95708  0.12964  0.56717  1.0000
  S   S221      1.0  0.91900  0.12290  0.59388  1.0000
  H   H627      1.0  0.98923  0.15119  0.89475  1.0000
  Fe  Fe113     1.0  0.84271  0.48479  0.71473  1.0000
  H   H628      1.0  0.77816  0.07730  0.69814  1.0000
  Fe  Fe114     1.0  0.87239  0.46084  0.65436  1.0000
  S   S222      1.0  0.90759  0.48494  0.66391  1.0000
  S   S223      1.0  0.86840  0.43335  0.60912  1.0000
  Fe  Fe115     1.0  0.90097  0.47631  0.71971  1.0000
  S   S224      1.0  0.93585  0.46713  0.75269  1.0000
  S   S225      1.0  0.86830  0.44888  0.70927  1.0000
  S   S226      1.0  0.84422  0.49459  0.65865  1.0000
  Fe  Fe116     1.0  0.96246  0.38864  0.90927  1.0000
  S   S227      1.0  0.92338  0.39849  0.88630  1.0000
  H   H629      1.0  0.70717  0.09124  0.73209  1.0000
  S   S228      1.0  0.80736  0.47856  0.74810  1.0000
  S   S229      1.0  0.96965  0.36597  0.95777  1.0000
  C   C630      1.0  0.89988  0.50259  0.57357  1.0000
  H   H630      1.0  0.92831  0.26731  0.52724  1.0000
  N   N52       1.0  0.01304  0.06864  0.70015  1.0000
  H   H631      1.0  0.88373  0.07220  0.99028  1.0000
  C   C631      1.0  0.77589  0.48999  0.73767  1.0000
  C   C632      1.0  0.75500  0.48267  0.75845  1.0000
  C   C633      1.0  0.72944  0.49036  0.75016  1.0000
  H   H632      1.0  0.99015  0.28489  0.59728  1.0000
  H   H633      1.0  0.75156  0.02387  0.82058  1.0000
  H   H634      1.0  0.97715  0.42963  0.72367  1.0000
  C   C634      1.0  0.93098  0.45021  0.79134  1.0000
  C   C635      1.0  0.90688  0.43974  0.79982  1.0000
  C   C636      1.0  0.90444  0.42423  0.82938  1.0000
  C   C637      1.0  0.92613  0.41892  0.85022  1.0000
  C   C638      1.0  0.95007  0.42966  0.84179  1.0000
  C   C639      1.0  0.95238  0.44549  0.81276  1.0000
  H   H635      1.0  0.89021  0.44337  0.78350  1.0000
  H   H636      1.0  0.88583  0.41604  0.83578  1.0000
  H   H637      1.0  0.96701  0.42553  0.85724  1.0000
  H   H638      1.0  0.97101  0.45367  0.80649  1.0000
  C   C640      1.0  0.94608  0.40559  0.56428  1.0000
  C   C641      1.0  0.94481  0.41550  0.59794  1.0000
  C   C642      1.0  0.92097  0.42365  0.61202  1.0000
  C   C643      1.0  0.89818  0.42163  0.59264  1.0000
  C   C644      1.0  0.89932  0.41107  0.55925  1.0000
  H   H639      1.0  0.81025  0.05537  0.63216  1.0000
  H   H640      1.0  0.96240  0.41736  0.61299  1.0000
  H   H641      1.0  0.92024  0.43146  0.63790  1.0000
  C   C645      1.0  0.81936  0.04077  0.64853  1.0000
  C   C646      1.0  0.78734  0.02337  0.74780  1.0000
  C   C647      1.0  0.90907  0.10621  0.87786  1.0000
  C   C648      1.0  0.93383  0.09855  0.86677  1.0000
  C   C649      1.0  0.95506  0.09989  0.88931  1.0000
  C   C650      1.0  0.95167  0.10887  0.92310  1.0000
  C   C651      1.0  0.92700  0.11699  0.93407  1.0000
  C   C652      1.0  0.90575  0.11581  0.91140  1.0000
  H   H642      1.0  0.93673  0.09201  0.84061  1.0000
  H   H643      1.0  0.97414  0.09379  0.88056  1.0000
  H   H644      1.0  0.92407  0.12365  0.96011  1.0000
  H   H645      1.0  0.88663  0.12181  0.92009  1.0000
  C   C653      1.0  0.92475  0.06014  0.67721  1.0000
  C   C654      1.0  0.94152  0.05938  0.64899  1.0000
  C   C655      1.0  0.94004  0.07879  0.62376  1.0000
  C   C656      1.0  0.92121  0.09871  0.62591  1.0000
  C   C657      1.0  0.90394  0.09915  0.65375  1.0000
  C   C658      1.0  0.90594  0.08011  0.67964  1.0000
  H   H646      1.0  0.95596  0.04387  0.64675  1.0000
  H   H647      1.0  0.95331  0.07807  0.60242  1.0000
  H   H648      1.0  0.88939  0.11458  0.65564  1.0000
  H   H649      1.0  0.89303  0.08100  0.70144  1.0000
  C   C659      1.0  0.77403  0.05879  0.71016  1.0000
  C   C660      1.0  0.79233  0.04749  0.73268  1.0000
  H   H650      1.0  0.76824  0.46965  0.60551  1.0000
  H   H651      1.0  0.88173  0.40945  0.54416  1.0000
  C   C661      1.0  0.96226  0.27115  0.99533  1.0000
  H   H652      1.0  0.93522  0.40709  0.72555  1.0000
  C   C662      1.0  0.92539  0.19679  0.94837  1.0000
  C   C663      1.0  0.75587  0.45582  0.65492  1.0000
  H   H653      1.0  0.86720  0.43825  0.95978  1.0000
  C   C664      1.0  0.99480  0.23806  0.98190  1.0000
  H   H654      1.0  0.70895  0.10847  0.77289  1.0000
  N   N53       1.0  0.90572  0.45097  0.97177  1.0000
  C   C665      1.0  0.69158  0.05550  0.77712  1.0000
  H   H655      1.0  0.00615  0.34500  0.55808  1.0000
  H   H656      1.0  0.71347  0.48459  0.76632  1.0000
  Fe  Fe117     1.0  0.99838  0.39743  0.96933  1.0000
  H   H657      1.0  0.73661  0.46467  0.65322  1.0000
  N   N54       1.0  0.95930  0.17606  0.91525  1.0000
  C   C666      1.0  0.94189  0.17032  0.88972  1.0000
  H   H658      1.0  0.92410  0.39567  0.51894  1.0000
  H   H659      1.0  0.96047  0.34431  0.53124  1.0000
  C   C667      1.0  0.96553  0.47395  0.55394  1.0000
  N   N55       1.0  0.93795  0.04487  0.93109  1.0000
  C   C668      1.0  0.96011  0.32438  0.54056  1.0000
  H   H660      1.0  0.89158  0.48392  0.58278  1.0000
  C   C669      1.0  0.77110  0.50522  0.70860  1.0000
  C   C670      1.0  0.94615  0.38305  0.76870  1.0000
  H   H661      1.0  0.81247  0.44962  0.61065  1.0000
  H   H662      1.0  0.00418  0.38622  0.80981  1.0000
  C   C671      1.0  0.71743  0.09224  0.75723  1.0000
  H   H663      1.0  0.87503  0.02861  0.69296  1.0000
  C   C672      1.0  0.88769  0.43469  0.95205  1.0000
  N   N56       1.0  0.97715  0.31645  0.56552  1.0000
  H   H664      1.0  0.81619  0.42093  0.72492  1.0000
  C   C673      1.0  0.96566  0.37722  0.79247  1.0000
  H   H665      1.0  0.75514  0.06591  0.79033  1.0000
  C   C674      1.0  0.77363  0.45870  0.62828  1.0000
  H   H666      1.0  0.89508  0.51775  0.59334  1.0000
  H   H667      1.0  0.78424  0.42476  0.74117  1.0000
  C   C675      1.0  0.99576  0.33528  0.57940  1.0000
  C   C676      1.0  0.94885  0.46737  0.97971  1.0000
  C   C677      1.0  0.80527  0.43408  0.66107  1.0000
  C   C678      1.0  0.93870  0.47669  0.55857  1.0000
  S   S230      1.0  0.92825  0.03583  0.70879  1.0000
  C   C679      1.0  0.94161  0.28127  0.53853  1.0000
  C   C680      1.0  0.89811  0.46254  0.00205  1.0000
  C   C681      1.0  0.95871  0.27346  0.56450  1.0000
  H   H668      1.0  0.95883  0.25336  0.57347  1.0000
  H   H669      1.0  0.79218  0.39631  0.71477  1.0000
  C   C682      1.0  0.99549  0.08729  0.68306  1.0000
  H   H670      1.0  0.97703  0.04491  0.91320  1.0000
  C   C683      1.0  0.91566  0.17730  0.89321  1.0000
  H   H671      1.0  0.96206  0.36357  0.81307  1.0000
  S   S231      1.0  0.96372  0.15669  0.52264  1.0000
  H   H672      1.0  0.92609  0.07917  0.51216  1.0000
  H   H673      1.0  0.98285  0.04174  0.71071  1.0000
  C   C684      1.0  0.90739  0.19056  0.92281  1.0000
  C   C685      1.0  0.73638  0.05657  0.79157  1.0000
  C   C686      1.0  0.97652  0.29139  0.57774  1.0000
  C   C687      1.0  0.93069  0.45325  0.96049  1.0000
  H   H674      1.0  0.90177  0.17186  0.87342  1.0000
  S   S232      1.0  0.69303  0.51640  0.71026  1.0000
  C   C688      1.0  0.92328  0.40323  0.54496  1.0000
  S   S233      1.0  0.99052  0.14448  0.59822  1.0000
  S   S234      1.0  0.98848  0.42169  0.92347  1.0000
  S   S235      1.0  0.99260  0.36634  0.87947  1.0000
  C   C689      1.0  0.97483  0.28908  0.97409  1.0000
  H   H675      1.0  0.89263  0.41364  0.95587  1.0000
  H   H676      1.0  0.75861  0.47089  0.78101  1.0000
  S   S236      1.0  0.97929  0.09627  0.54353  1.0000
  S   S237      1.0  0.72886  0.06055  0.67318  1.0000
  H   H677      1.0  0.78707  0.51095  0.69245  1.0000
  C   C690      1.0  0.98938  0.39017  0.79058  1.0000
  H   H678      1.0  0.00303  0.21867  0.98549  1.0000
  C   C691      1.0  0.00255  0.23404  0.52459  1.0000
  Fe  Fe118     1.0  0.68630  0.04992  0.66905  1.0000
  C   C692      1.0  0.89887  0.06417  0.97383  1.0000
  C   C693      1.0  0.79843  0.44757  0.63118  1.0000
  Fe  Fe119     1.0  0.87948  0.51813  0.67243  1.0000
  H   H679      1.0  0.87330  0.05718  0.93069  1.0000
  C   C694      1.0  0.00342  0.04580  0.71270  1.0000
  H   H680      1.0  0.97638  0.08845  0.69626  1.0000
  C   C695      1.0  0.95140  0.18935  0.94409  1.0000
  C   C696      1.0  0.95064  0.40143  0.74316  1.0000
  H   H681      1.0  0.88708  0.19585  0.92604  1.0000
  C   C697      1.0  0.99754  0.28163  0.95685  1.0000
  H   H682      1.0  0.74956  0.44041  0.70526  1.0000
  H   H683      1.0  0.91933  0.20711  0.97160  1.0000
  H   H684      1.0  0.96711  0.30874  0.97140  1.0000
  Fe  Fe120     1.0  0.90290  0.03661  0.75595  1.0000
  C   C698      1.0  0.94383  0.05265  0.96391  1.0000
  H   H685      1.0  0.99230  0.08097  0.65602  1.0000
  Fe  Fe121     1.0  0.00279  0.34691  0.92934  1.0000
  H   H686      1.0  0.85504  0.06201  0.65469  1.0000
  C   C699      1.0  0.71058  0.02019  0.80990  1.0000
  C   C700      1.0  0.97451  0.41414  0.74220  1.0000
  C   C701      1.0  0.00721  0.25593  0.96033  1.0000
  C   C702      1.0  0.92444  0.06259  0.98570  1.0000
  H   H687      1.0  0.73798  0.09671  0.75122  1.0000
  C   C703      1.0  0.79544  0.41757  0.71849  1.0000
  C   C704      1.0  0.75057  0.04618  0.70283  1.0000
  H   H688      1.0  0.96514  0.19396  0.96428  1.0000
  C   C705      1.0  0.89300  0.05577  0.94052  1.0000
  H   H689      1.0  0.99731  0.18556  0.89933  1.0000
  H   H690      1.0  0.93669  0.44371  0.93672  1.0000
  Fe  Fe122     1.0  0.99945  0.16869  0.55164  1.0000
  S   S238      1.0  0.86362  0.03207  0.83945  1.0000
  Fe  Fe123     1.0  0.85036  0.02407  0.78540  1.0000
  H   H691      1.0  0.88919  0.43886  0.92409  1.0000
  C   C706      1.0  0.97239  0.24575  0.99973  1.0000
  H   H692      1.0  0.90819  0.03987  0.89345  1.0000
  H   H693      1.0  0.96375  0.05198  0.97302  1.0000
  Fe  Fe124     1.0  0.97436  0.12909  0.00246  1.0000
  C   C707      1.0  0.76334  0.44210  0.68439  1.0000
  C   C708      1.0  0.91289  0.04605  0.91943  1.0000
  H   H694      1.0  0.97395  0.45515  0.54641  1.0000
  H   H695      1.0  0.99589  0.16428  0.93624  1.0000
  H   H696      1.0  0.94807  0.15965  0.86689  1.0000
  N   N57       1.0  0.78794  0.43190  0.68743  1.0000
  C   C709      1.0  0.94229  0.30688  0.52642  1.0000
  C   C710      1.0  0.72464  0.50556  0.72108  1.0000
  N   N58       1.0  0.99353  0.40836  0.76566  1.0000
  H   H697      1.0  0.92729  0.37404  0.77084  1.0000
  H   H698      1.0  0.89035  0.50813  0.54902  1.0000
  H   H699      1.0  0.92647  0.45994  0.55409  1.0000
  C   C711      1.0  0.84438  0.04458  0.66134  1.0000
  C   C712      1.0  0.95855  0.03440  0.90879  1.0000
  C   C713      1.0  0.68894  0.03167  0.79411  1.0000
  C   C714      1.0  0.73445  0.03277  0.80887  1.0000
  N   N59       1.0  0.92803  0.50014  0.56878  1.0000
  S   S239      1.0  0.87545  0.51153  0.72925  1.0000
  C   C715      1.0  0.74553  0.51299  0.70038  1.0000
  H   H700      1.0  0.96886  0.46842  0.97126  1.0000
  H   H701      1.0  0.01064  0.32578  0.59604  1.0000
  H   H702      1.0  0.98535  0.35070  0.59451  1.0000
  C   C716      1.0  0.85561  0.02587  0.68287  1.0000
  C   C717      1.0  0.98138  0.49555  0.55923  1.0000
  H   H703      1.0  0.00360  0.10732  0.68269  1.0000
  H   H704      1.0  0.00224  0.49368  0.55602  1.0000
  Fe  Fe125     1.0  0.01340  0.11221  0.57248  1.0000
  S   S240      1.0  0.01321  0.21076  0.55498  1.0000
  C   C718      1.0  0.81096  0.00988  0.16760  1.0000
  S   S241      1.0  0.89504  0.99478  0.28072  1.0000
  S   S242      1.0  0.98817  0.87529  0.37227  1.0000
  Fe  Fe126     1.0  0.90253  0.52237  0.16985  1.0000
  H   H705      1.0  0.97722  0.61312  0.09261  1.0000
  H   H706      1.0  0.98914  0.68963  0.45828  1.0000
  S   S243      1.0  0.93787  0.98950  0.37271  1.0000
  S   S244      1.0  0.98501  0.58454  0.02875  1.0000
  H   H707      1.0  0.88034  0.01657  0.20375  1.0000
  C   C719      1.0  0.99245  0.54183  0.15368  1.0000
  H   H708      1.0  0.95164  0.54134  0.20624  1.0000
  H   H709      1.0  0.92660  0.63940  0.08032  1.0000
  H   H710      1.0  0.79130  0.00837  0.15772  1.0000
  S   S245      1.0  0.91499  0.56356  0.15889  1.0000
  H   H711      1.0  0.92506  0.53235  0.09720  1.0000
  H   H712      1.0  0.01266  0.95772  0.33691  1.0000
  H   H713      1.0  0.76602  0.99079  0.27600  1.0000
  H   H714      1.0  0.93342  0.61269  0.02745  1.0000
  C   C720      1.0  0.96670  0.57782  0.06578  1.0000
  C   C721      1.0  0.95201  0.55493  0.06733  1.0000
  C   C722      1.0  0.93650  0.54994  0.09620  1.0000
  C   C723      1.0  0.93514  0.56822  0.12316  1.0000
  C   C724      1.0  0.94990  0.59099  0.12162  1.0000
  C   C725      1.0  0.96589  0.59558  0.09328  1.0000
  Fe  Fe127     1.0  0.91245  0.00736  0.33124  1.0000
  C   C726      1.0  0.84482  0.99467  0.20423  1.0000
  H   H715      1.0  0.94906  0.60508  0.14253  1.0000
  C   C727      1.0  0.93495  0.64820  0.05764  1.0000
  S   S246      1.0  0.01349  0.71366  0.01792  1.0000
  N   N60       1.0  0.98897  0.54988  0.18700  1.0000
  H   H716      1.0  0.95249  0.54114  0.04610  1.0000
  H   H717      1.0  0.94029  0.68601  0.08147  1.0000
  C   C728      1.0  0.97412  0.90703  0.37227  1.0000
  C   C729      1.0  0.98085  0.92544  0.39740  1.0000
  C   C730      1.0  0.96963  0.95064  0.39696  1.0000
  C   C731      1.0  0.95182  0.95778  0.37121  1.0000
  C   C732      1.0  0.94543  0.93957  0.34562  1.0000
  C   C733      1.0  0.95647  0.91418  0.34628  1.0000
  C   C734      1.0  0.79552  0.01850  0.26289  1.0000
  C   C735      1.0  0.77060  0.00773  0.26074  1.0000
  H   H718      1.0  0.93167  0.94488  0.32571  1.0000
  H   H719      1.0  0.95126  0.90003  0.32669  1.0000
  C   C736      1.0  0.93872  0.63319  0.02794  1.0000
  H   H720      1.0  0.73261  0.00994  0.23694  1.0000
  H   H721      1.0  0.97458  0.96458  0.41692  1.0000
  H   H722      1.0  0.99426  0.92008  0.41767  1.0000
  H   H723      1.0  0.80851  0.95298  0.18649  1.0000
  H   H724      1.0  0.01100  0.54963  0.10509  1.0000
  C   C737      1.0  0.95363  0.68511  0.02889  1.0000
  H   H725      1.0  0.80752  0.96607  0.22986  1.0000
  C   C738      1.0  0.00800  0.68854  0.44596  1.0000
  H   H726      1.0  0.78300  0.97559  0.19977  1.0000
  C   C739      1.0  0.94258  0.67430  0.05827  1.0000
  C   C740      1.0  0.80401  0.97064  0.20228  1.0000
  N   N61       1.0  0.82017  0.99247  0.19143  1.0000
  H   H727      1.0  0.85207  0.98099  0.22332  1.0000
  S   S247      1.0  0.81906  0.00352  0.28960  1.0000
  S   S248      1.0  0.01057  0.65162  0.06948  1.0000
  C   C741      1.0  0.00839  0.55588  0.13159  1.0000
  H   H728      1.0  0.97763  0.53759  0.23717  1.0000
  C   C742      1.0  0.86086  0.01487  0.19345  1.0000
  H   H729      1.0  0.99682  0.57927  0.22480  1.0000
  C   C743      1.0  0.75167  0.01851  0.23865  1.0000
  H   H730      1.0  0.98264  0.52462  0.14393  1.0000
  C   C744      1.0  0.00015  0.57243  0.19873  1.0000
  H   H731      1.0  0.00794  0.72928  0.43185  1.0000
  C   C745      1.0  0.97217  0.53494  0.20974  1.0000
  H   H732      1.0  0.01397  0.64748  0.45647  1.0000
  H   H733      1.0  0.95976  0.70535  0.02974  1.0000
  H   H734      1.0  0.97046  0.01785  0.42804  1.0000
  C   C746      1.0  0.68128  0.58038  0.75182  1.0000
  H   H735      1.0  0.75982  0.99216  0.75230  1.0000
  H   H736      1.0  0.99730  0.75227  0.51259  1.0000
  H   H737      1.0  0.78195  0.97845  0.68335  1.0000
  C   C747      1.0  0.94332  0.52162  0.57283  1.0000
  C   C748      1.0  0.97023  0.51963  0.56845  1.0000
  S   S249      1.0  0.91908  0.98807  0.86979  1.0000
  H   H738      1.0  0.72729  0.55852  0.74770  1.0000
  H   H739      1.0  0.73729  0.56637  0.79059  1.0000
  H   H740      1.0  0.93412  0.53451  0.67376  1.0000
  N   N62       1.0  0.69786  0.57651  0.77894  1.0000
  N   N63       1.0  0.95706  0.67028  0.99975  1.0000
  C   C749      1.0  0.72070  0.55934  0.77489  1.0000
  S   S250      1.0  0.88651  0.55668  0.64611  1.0000
  S   S251      1.0  0.88547  0.99881  0.77342  1.0000
  H   H741      1.0  0.78639  0.01554  0.64767  1.0000
  H   H742      1.0  0.80619  0.97107  0.71485  1.0000
  H   H743      1.0  0.70493  0.58319  0.83233  1.0000
  C   C750      1.0  0.97193  0.57481  0.62628  1.0000
  C   C751      1.0  0.96517  0.55493  0.64908  1.0000
  C   C752      1.0  0.93903  0.54987  0.65610  1.0000
  C   C753      1.0  0.91939  0.56471  0.64044  1.0000
  C   C754      1.0  0.92612  0.58509  0.61826  1.0000
  C   C755      1.0  0.95237  0.59003  0.61097  1.0000
  C   C756      1.0  0.69231  0.58709  0.81054  1.0000
  H   H744      1.0  0.81044  0.95955  0.67105  1.0000
  H   H745      1.0  0.91099  0.59670  0.60614  1.0000
  H   H746      1.0  0.95743  0.60546  0.59343  1.0000
  H   H747      1.0  0.98232  0.53667  0.57236  1.0000
  H   H748      1.0  0.00726  0.89460  0.77409  1.0000
  H   H749      1.0  0.85036  0.98933  0.70862  1.0000
  N   N64       1.0  0.81708  0.00003  0.67884  1.0000
  C   C757      1.0  0.97735  0.92015  0.85611  1.0000
  C   C758      1.0  0.96313  0.92939  0.82769  1.0000
  C   C759      1.0  0.94562  0.95064  0.83127  1.0000
  C   C760      1.0  0.94188  0.96240  0.86348  1.0000
  C   C761      1.0  0.95616  0.95321  0.89183  1.0000
  C   C762      1.0  0.97403  0.93233  0.88811  1.0000
  H   H750      1.0  0.96541  0.91989  0.80294  1.0000
  H   H751      1.0  0.93455  0.95747  0.80936  1.0000
  Fe  Fe128     1.0  0.90022  0.01007  0.82582  1.0000
  H   H752      1.0  0.95319  0.96204  0.91688  1.0000
  S   S252      1.0  0.01309  0.70183  0.53800  1.0000
  S   S253      1.0  0.00502  0.57868  0.61652  1.0000
  H   H753      1.0  0.93476  0.54041  0.57963  1.0000
  H   H754      1.0  0.98019  0.54316  0.66115  1.0000
  H   H755      1.0  0.98477  0.92524  0.91017  1.0000
  S   S254      1.0  0.00570  0.62620  0.52945  1.0000
  C   C763      1.0  0.96905  0.68164  0.96927  1.0000
  S   S255      1.0  0.81019  0.00782  0.77490  1.0000
  C   C764      1.0  0.80323  0.97605  0.68729  1.0000
  C   C765      1.0  0.84160  0.00361  0.69147  1.0000
  H   H756      1.0  0.98993  0.67604  0.96826  1.0000
  H   H757      1.0  0.71582  0.53916  0.78287  1.0000
  H   H758      1.0  0.74195  0.52487  0.67792  1.0000
  H   H759      1.0  0.95399  0.63233  0.97675  1.0000
  H   H760      1.0  0.00130  0.76689  0.00106  1.0000
  S   S256      1.0  0.99862  0.89303  0.85099  1.0000
  H   H761      1.0  0.70888  0.00154  0.82279  1.0000
  H   H762      1.0  0.96149  0.01316  0.91372  1.0000
  H   H763      1.0  0.68506  0.57106  0.72713  1.0000
  H   H764      1.0  0.95930  0.67484  0.94538  1.0000
  C   C766      1.0  0.76378  0.01086  0.74067  1.0000
  H   H765      1.0  0.96785  0.70342  0.96982  1.0000
  H   H766      1.0  0.72738  0.01237  0.71280  1.0000
  C   C767      1.0  0.95028  0.64447  0.99927  1.0000
  H   H767      1.0  0.01350  0.92030  0.74408  1.0000
  C   C768      1.0  0.80597  0.01815  0.65740  1.0000
  H   H768      1.0  0.01221  0.00918  0.73794  1.0000
