data_image0
_chemical_formula_structural       CH3CH2NHCNH3C2HSH2C4HC2HSC3H3S2HCHFeCFeHCSCHCHSHFeHFeSFeH2CS2C5FeSHN2H2SH2SC4SH2SCFeH3CHFeC3HCHCSFeSFeS2CH2C3H2CH2C2HFeCH3NFeSC4HCH3CSCHC3H2CHCSHFe2H2CSCSFeNH2C2SCHSHSFeH2SC3HC2HCHFeS3CFeS2FeSFeS3C3HC6H4C6H5CHCN2C4H4CH6FeHC2HCHC3HCSHC2H2NCSCSC2HC3HSHCHC4H5CH4SHCHFeC4HCHNHCH4CSCHNSH2CHCHCHSCHC4SCHCHFeSH2FeS2FeS2FeSFeS3FeS3FeS3C5H4C6H4C6H4CH2C2HNCHC3SC2HC4SHSH3FeH2Fe2NCHC2HCHSHNC2FeC2H4NCHSH2CNCSCH4CH5CHC3SH5C2H3CHCNH4CHCHCSC4HC2HC2HSH2FeHCFeCS3Fe2C3H2C6H2CNHC3HCH2CHCHCSH2NHCHCH3CHCH4S2CS2H2CNCHC3H3C2FeC2HNCFeH2FeCSC4HFeSHC3FeH3SFeHCS2CHC2H2C2HCNSCNH2CHCHCHSHC2HCH3SHCHFeSFeS2FeSFeS3FeS2FeCSHC3HC6H5C2H3C4NC4H2CHC2H3CHCNH5C2H2CHCH3CSHCH2CH5S2CH3C2HCNC3NHCHCH2CFeS2FeS2FeSFeS3FeS2C2FeS2C2HC3H6C6H4C6H6SHCSNC6H8C2H2NCHC3H2CFeH4SC2H2CHCSC2H2CFeS2FeS2FeSFeCS2FeS2FeCFeS2H2C6H3C7H4C6H7S2H2CH4SH2CHC2H6C4H5SHCNCSHC2HC2NCH2NC2HNHCH2CHCH2CHCFeCSFeS2FeSC2HSCH2SFeS2FeS2FeSFeS3HC3HC6H8C7H4C6H4C6H2CHC4HCH3SCHNHCH2CHCH4NH4SCS2CHC4H4FeHNHC2NC2H2C2HFeH2C2SHCH3CNC2H2C2HC2HC2HC2SFeCFeHCHCHCHCHFeCSHS2FeSCHNSH2CSFeS2FeS2FeSFeS3C3H2C6H4SHFeC8H4C6H4C6H3C4FeC3H2CH2CNC6H9CSCH3CNH2CH2CH2CH4C2FeCSHCSCH5CNC4H2CFeCHC3H2S2HCHCNHSHC2HNFeH2FeS2FeHSHFeHS2FeS2NFeSCHSHC7H3C7H5CH5NHC2HC2HC2H2CH2SH2CH2C2HCHFeS2FeS2Fe2CS2FeS2HFeSCH3C6H6C3HSCHCHC3HC2H5NCHNHC2SCHCHC3HCH2C2H5
_chemical_formula_sum              "C576 H576 N48 S192 Fe96"
_cell_length_a       50.5638
_cell_length_b       50.4643
_cell_length_c       40.0721
_cell_angle_alpha    90.3117
_cell_angle_beta     89.5991
_cell_angle_gamma    120.333

_space_group_name_H-M_alt    "P 1"
_space_group_IT_number       1

loop_
  _space_group_symop_operation_xyz
  'x, y, z'

loop_
  _atom_site_type_symbol
  _atom_site_label
  _atom_site_symmetry_multiplicity
  _atom_site_fract_x
  _atom_site_fract_y
  _atom_site_fract_z
  _atom_site_occupancy
  C   C1        1.0  0.28816  0.28955  0.35251  1.0000
  H   H1        1.0  0.26450  0.26969  0.35463  1.0000
  H   H2        1.0  0.28788  0.30726  0.33629  1.0000
  H   H3        1.0  0.30300  0.28913  0.28852  1.0000
  C   C2        1.0  0.31333  0.28001  0.30519  1.0000
  H   H4        1.0  0.31861  0.26824  0.38678  1.0000
  H   H5        1.0  0.29597  0.30025  0.37754  1.0000
  N   N1        1.0  0.30866  0.27948  0.33893  1.0000
  H   H6        1.0  0.40525  0.11806  0.03501  1.0000
  C   C3        1.0  0.32203  0.26841  0.35998  1.0000
  N   N2        1.0  0.50560  0.32479  0.02093  1.0000
  H   H7        1.0  0.39352  0.01437  0.31156  1.0000
  H   H8        1.0  0.43621  0.21705  0.49206  1.0000
  H   H9        1.0  0.36574  0.09579  0.02134  1.0000
  C   C4        1.0  0.46587  0.22533  0.30542  1.0000
  C   C5        1.0  0.34094  0.25786  0.34736  1.0000
  H   H10       1.0  0.34531  0.07850  0.16419  1.0000
  S   S1        1.0  0.45274  0.10948  0.22714  1.0000
  H   H11       1.0  0.35157  0.24911  0.36399  1.0000
  H   H12       1.0  0.38073  0.06759  0.07081  1.0000
  C   C6        1.0  0.42133  0.20065  0.08751  1.0000
  C   C7        1.0  0.44827  0.23339  0.32580  1.0000
  C   C8        1.0  0.42009  0.18724  0.27718  1.0000
  C   C9        1.0  0.36224  0.12054  0.09290  1.0000
  H   H13       1.0  0.38869  0.33233  0.33958  1.0000
  C   C10       1.0  0.33240  0.26993  0.29179  1.0000
  C   C11       1.0  0.34625  0.25877  0.31310  1.0000
  H   H14       1.0  0.33657  0.27102  0.26510  1.0000
  S   S2        1.0  0.40991  0.25130  0.01555  1.0000
  C   C12       1.0  0.38316  0.02757  0.26438  1.0000
  C   C13       1.0  0.45723  0.02806  0.22872  1.0000
  C   C14       1.0  0.42144  0.17856  0.38899  1.0000
  H   H15       1.0  0.36119  0.25088  0.30326  1.0000
  H   H16       1.0  0.44934  0.04722  0.18460  1.0000
  H   H17       1.0  0.48003  0.04764  0.23265  1.0000
  S   S3        1.0  0.37545  0.33535  0.41067  1.0000
  S   S4        1.0  0.43853  0.32453  0.45733  1.0000
  H   H18       1.0  0.46983  0.16664  0.34068  1.0000
  C   C15       1.0  0.35251  0.08575  0.13861  1.0000
  H   H19       1.0  0.45895  0.30978  0.03313  1.0000
  Fe  Fe1       1.0  0.41526  0.26182  0.38973  1.0000
  C   C16       1.0  0.44204  0.19297  0.03631  1.0000
  Fe  Fe2       1.0  0.46806  0.32090  0.41782  1.0000
  H   H20       1.0  0.36261  0.14079  0.08328  1.0000
  C   C17       1.0  0.40243  0.19515  0.29773  1.0000
  S   S5        1.0  0.44231  0.15883  0.08968  1.0000
  C   C18       1.0  0.42057  0.22674  0.03609  1.0000
  H   H21       1.0  0.40282  0.23091  0.08368  1.0000
  C   C19       1.0  0.43525  0.18655  0.07051  1.0000
  H   H22       1.0  0.40240  0.05077  0.26542  1.0000
  S   S6        1.0  0.38228  0.26117  0.42822  1.0000
  H   H23       1.0  0.42158  0.19365  0.40850  1.0000
  Fe  Fe3       1.0  0.44365  0.14318  0.14316  1.0000
  H   H24       1.0  0.47058  0.19954  0.38709  1.0000
  Fe  Fe4       1.0  0.40344  0.31144  0.41660  1.0000
  S   S7        1.0  0.45203  0.27093  0.42719  1.0000
  Fe  Fe5       1.0  0.47974  0.11783  0.17972  1.0000
  H   H25       1.0  0.40499  0.12101  0.28932  1.0000
  H   H26       1.0  0.37780  0.18321  0.29493  1.0000
  C   C20       1.0  0.44002  0.02782  0.20157  1.0000
  S   S8        1.0  0.48766  0.16535  0.17252  1.0000
  S   S9        1.0  0.39331  0.22490  0.35005  1.0000
  C   C21       1.0  0.48256  0.32840  0.03409  1.0000
  C   C22       1.0  0.35250  0.11141  0.12578  1.0000
  C   C23       1.0  0.41643  0.21792  0.32241  1.0000
  C   C24       1.0  0.39377  0.15643  0.37500  1.0000
  C   C25       1.0  0.43493  0.21301  0.01924  1.0000
  Fe  Fe6       1.0  0.42043  0.27383  0.46496  1.0000
  S   S10       1.0  0.43434  0.31135  0.37645  1.0000
  H   H27       1.0  0.37240  0.15432  0.38364  1.0000
  N   N3        1.0  0.37187  0.10462  0.07343  1.0000
  N   N4        1.0  0.42105  0.14170  0.33689  1.0000
  H   H28       1.0  0.38237  0.13573  0.03252  1.0000
  H   H29       1.0  0.40910  0.16934  0.25862  1.0000
  S   S11       1.0  0.36850  0.04363  0.20357  1.0000
  H   H30       1.0  0.44360  0.13143  0.29775  1.0000
  H   H31       1.0  0.37241  0.12109  0.33787  1.0000
  S   S12       1.0  0.43802  0.09588  0.14741  1.0000
  C   C26       1.0  0.39398  0.13794  0.34894  1.0000
  C   C27       1.0  0.45183  0.20195  0.28141  1.0000
  C   C28       1.0  0.36314  0.01832  0.23721  1.0000
  C   C29       1.0  0.42057  0.12213  0.30942  1.0000
  S   S13       1.0  0.41320  0.13581  0.18796  1.0000
  H   H32       1.0  0.34541  0.12439  0.14134  1.0000
  H   H33       1.0  0.45927  0.25103  0.34465  1.0000
  S   S14       1.0  0.47445  0.18998  0.25968  1.0000
  C   C30       1.0  0.44831  0.16315  0.35070  1.0000
  Fe  Fe7       1.0  0.41141  0.09032  0.19460  1.0000
  H   H34       1.0  0.36328  0.05028  0.12883  1.0000
  H   H35       1.0  0.50484  0.28241  0.02309  1.0000
  H   H36       1.0  0.49045  0.23687  0.30871  1.0000
  C   C31       1.0  0.36259  0.06984  0.11869  1.0000
  H   H37       1.0  0.41587  0.19599  0.11374  1.0000
  Fe  Fe8       1.0  0.45698  0.15528  0.21746  1.0000
  C   C32       1.0  0.44891  0.18188  0.37695  1.0000
  C   C33       1.0  0.37237  0.07971  0.08599  1.0000
  C   C34       1.0  0.38163  0.11392  0.03881  1.0000
  H   H38       1.0  0.41274  0.09857  0.31865  1.0000
  C   C35       1.0  0.41391  0.22044  0.07033  1.0000
  H   H39       1.0  0.45272  0.18218  0.02281  1.0000
  C   C36       1.0  0.49872  0.29552  0.00573  1.0000
  S   S15       1.0  0.41332  0.13526  0.68676  1.0000
  Fe  Fe9       1.0  0.41080  0.08932  0.69297  1.0000
  S   S16       1.0  0.36843  0.04290  0.70492  1.0000
  Fe  Fe10      1.0  0.41564  0.31906  0.91592  1.0000
  S   S17       1.0  0.40435  0.23412  0.84365  1.0000
  S   S18       1.0  0.38887  0.26765  0.92226  1.0000
  C   C37       1.0  0.41406  0.20864  0.78782  1.0000
  H   H40       1.0  0.41958  0.18462  0.74589  1.0000
  H   H41       1.0  0.39150  0.20371  0.78032  1.0000
  C   C38       1.0  0.41820  0.22652  0.53639  1.0000
  C   C39       1.0  0.41124  0.21922  0.57041  1.0000
  C   C40       1.0  0.41745  0.19802  0.58630  1.0000
  H   H42       1.0  0.41220  0.19289  0.61251  1.0000
  H   H43       1.0  0.39501  0.04957  0.77180  1.0000
  C   C41       1.0  0.37726  0.02592  0.76833  1.0000
  H   H44       1.0  0.36438  0.31306  0.85304  1.0000
  H   H45       1.0  0.40134  0.23035  0.58470  1.0000
  C   C42       1.0  0.36935  0.11915  0.79050  1.0000
  C   C43       1.0  0.39107  0.11111  0.78097  1.0000
  H   H46       1.0  0.38682  0.09598  0.75974  1.0000
  Fe  Fe11      1.0  0.42400  0.26781  0.88697  1.0000
  C   C44       1.0  0.41846  0.12316  0.79862  1.0000
  H   H47       1.0  0.43598  0.11799  0.79097  1.0000
  H   H48       1.0  0.33163  0.31742  0.80990  1.0000
  H   H49       1.0  0.34825  0.10995  0.77643  1.0000
  N   N5        1.0  0.37486  0.13872  0.81676  1.0000
  Fe  Fe12      1.0  0.42192  0.27286  0.96309  1.0000
  S   S19       1.0  0.41285  0.25580  0.51864  1.0000
  C   C45       1.0  0.42991  0.19785  0.76826  1.0000
  C   C46       1.0  0.42691  0.22515  0.81742  1.0000
  C   C47       1.0  0.42363  0.14260  0.82574  1.0000
  C   C48       1.0  0.35182  0.14697  0.82604  1.0000
  H   H50       1.0  0.33262  0.12777  0.83975  1.0000
  C   C49       1.0  0.40137  0.15005  0.83467  1.0000
  H   H51       1.0  0.36174  0.16789  0.84208  1.0000
  H   H52       1.0  0.34290  0.15248  0.80345  1.0000
  H   H53       1.0  0.40602  0.16598  0.85514  1.0000
  C   C50       1.0  0.43069  0.18379  0.56828  1.0000
  S   S20       1.0  0.43504  0.09369  0.64421  1.0000
  C   C51       1.0  0.36042  0.33223  0.85362  1.0000
  H   H54       1.0  0.44529  0.15284  0.83889  1.0000
  C   C52       1.0  0.43075  0.21174  0.51819  1.0000
  C   C53       1.0  0.43690  0.19051  0.53406  1.0000
  C   C54       1.0  0.34186  0.33480  0.82912  1.0000
  H   H55       1.0  0.47401  0.28112  0.99975  1.0000
  H   H56       1.0  0.46201  0.02079  0.77918  1.0000
  C   C55       1.0  0.43906  0.02904  0.70254  1.0000
  H   H57       1.0  0.49124  0.29493  0.51858  1.0000
  C   C56       1.0  0.49299  0.23023  0.62249  1.0000
  S   S21       1.0  0.44170  0.15898  0.58730  1.0000
  H   H58       1.0  0.44010  0.21740  0.99291  1.0000
  Fe  Fe13      1.0  0.44153  0.14131  0.64020  1.0000
  Fe  Fe14      1.0  0.45833  0.15429  0.71381  1.0000
  H   H59       1.0  0.44624  0.04521  0.68197  1.0000
  H   H60       1.0  0.44699  0.17953  0.51983  1.0000
  C   C57       1.0  0.45889  0.20383  0.77808  1.0000
  S   S22       1.0  0.48676  0.16315  0.66729  1.0000
  C   C58       1.0  0.45748  0.03600  0.73070  1.0000
  S   S23       1.0  0.44934  0.31900  0.87904  1.0000
  Fe  Fe15      1.0  0.47698  0.32100  0.92383  1.0000
  N   N6        1.0  0.49310  0.24831  0.59390  1.0000
  H   H61       1.0  0.49464  0.22601  0.81470  1.0000
  H   H62       1.0  0.46971  0.21754  0.63385  1.0000
  C   C59       1.0  0.48114  0.28488  0.57085  1.0000
  C   C60       1.0  0.47216  0.22122  0.80706  1.0000
  S   S24       1.0  0.47865  0.18869  0.75607  1.0000
  C   C61       1.0  0.48171  0.26764  0.59779  1.0000
  H   H63       1.0  0.47913  0.05753  0.73184  1.0000
  S   S25       1.0  0.45359  0.10820  0.72301  1.0000
  H   H64       1.0  0.47070  0.29903  0.57348  1.0000
  S   S26       1.0  0.44533  0.32450  0.96043  1.0000
  Fe  Fe16      1.0  0.47821  0.11542  0.67416  1.0000
  H   H65       1.0  0.46628  0.24447  0.84950  1.0000
  H   H66       1.0  0.47202  0.26899  0.62153  1.0000
  S   S27       1.0  0.45500  0.26953  0.92809  1.0000
  C   C62       1.0  0.45621  0.23179  0.82675  1.0000
  C   C63       1.0  0.50455  0.24593  0.56368  1.0000
  C   C64       1.0  0.49259  0.28249  0.53992  1.0000
  H   H67       1.0  0.49882  0.21254  0.61492  1.0000
  C   C65       1.0  0.50454  0.26303  0.53628  1.0000
  C   C66       1.0  0.36137  0.01670  0.73808  1.0000
  H   H68       1.0  0.38091  0.01227  0.81837  1.0000
  C   C67       1.0  0.44769  0.01516  0.75725  1.0000
  H   H69       1.0  0.50966  0.24539  0.64157  1.0000
  Fe  Fe17      1.0  0.25667  0.41066  0.29604  1.0000
  S   S28       1.0  0.25433  0.37571  0.25900  1.0000
  S   S29       1.0  0.21725  0.39277  0.33295  1.0000
  S   S30       1.0  0.25634  0.41507  0.16635  1.0000
  C   C68       1.0  0.10745  0.54129  0.04845  1.0000
  Fe  Fe18      1.0  0.13339  0.42078  0.04438  1.0000
  S   S31       1.0  0.13943  0.40936  0.09800  1.0000
  S   S32       1.0  0.11454  0.45215  0.46916  1.0000
  Fe  Fe19      1.0  0.15917  0.45474  0.48109  1.0000
  S   S33       1.0  0.20038  0.47139  0.44665  1.0000
  Fe  Fe20      1.0  0.11924  0.64046  0.07684  1.0000
  S   S34       1.0  0.10801  0.44593  0.03454  1.0000
  S   S35       1.0  0.10074  0.58986  0.06533  1.0000
  S   S36       1.0  0.11449  0.65107  0.13049  1.0000
  C   C69       1.0  0.15022  0.59096  0.03346  1.0000
  C   C70       1.0  0.12141  0.57339  0.04841  1.0000
  C   C71       1.0  0.12170  0.52672  0.03297  1.0000
  H   H70       1.0  0.24726  0.43337  0.10170  1.0000
  C   C72       1.0  0.21272  0.41524  0.36391  1.0000
  C   C73       1.0  0.18622  0.40168  0.38400  1.0000
  C   C74       1.0  0.18184  0.41870  0.40914  1.0000
  C   C75       1.0  0.20407  0.44943  0.41442  1.0000
  C   C76       1.0  0.23066  0.46297  0.39447  1.0000
  C   C77       1.0  0.23496  0.44599  0.36922  1.0000
  H   H71       1.0  0.16893  0.37789  0.37997  1.0000
  H   H72       1.0  0.16131  0.40802  0.42437  1.0000
  H   H73       1.0  0.24798  0.48672  0.39856  1.0000
  H   H74       1.0  0.25545  0.45658  0.35396  1.0000
  C   C78       1.0  0.22453  0.41621  0.14902  1.0000
  C   C79       1.0  0.22623  0.42565  0.11565  1.0000
  C   C80       1.0  0.20077  0.42456  0.09992  1.0000
  C   C81       1.0  0.17309  0.41368  0.11733  1.0000
  C   C82       1.0  0.17161  0.40488  0.15087  1.0000
  C   C83       1.0  0.19715  0.40623  0.16668  1.0000
  H   H75       1.0  0.15037  0.39644  0.16466  1.0000
  H   H76       1.0  0.19536  0.39874  0.19228  1.0000
  H   H77       1.0  0.20234  0.43129  0.07408  1.0000
  H   H78       1.0  0.08516  0.52757  0.05997  1.0000
  H   H79       1.0  0.04189  0.62231  0.16978  1.0000
  C   C84       1.0  0.03000  0.37179  0.43128  1.0000
  H   H80       1.0  0.16112  0.61574  0.03321  1.0000
  C   C85       1.0  0.17117  0.54049  0.09294  1.0000
  N   N7        1.0  0.02321  0.43510  0.46791  1.0000
  N   N8        1.0  0.15067  0.51225  0.10567  1.0000
  C   C86       1.0  0.20443  0.52156  0.07565  1.0000
  C   C87       1.0  0.19828  0.54552  0.07763  1.0000
  C   C88       1.0  0.18373  0.49307  0.08934  1.0000
  C   C89       1.0  0.15672  0.48872  0.10420  1.0000
  H   H81       1.0  0.22493  0.52489  0.06300  1.0000
  H   H82       1.0  0.18821  0.47424  0.08788  1.0000
  H   H83       1.0  0.14039  0.46622  0.11405  1.0000
  H   H84       1.0  0.21378  0.56751  0.06620  1.0000
  C   C90       1.0  0.12138  0.50647  0.11974  1.0000
  H   H85       1.0  0.11781  0.49611  0.14496  1.0000
  H   H86       1.0  0.16617  0.55903  0.09339  1.0000
  H   H87       1.0  0.12037  0.52792  0.12211  1.0000
  H   H88       1.0  0.11021  0.50204  0.03239  1.0000
  H   H89       1.0  0.10235  0.49045  0.10320  1.0000
  H   H90       1.0  0.06723  0.46707  0.44810  1.0000
  Fe  Fe21      1.0  0.26841  0.41366  0.22127  1.0000
  H   H91       1.0  0.05449  0.38487  0.42704  1.0000
  C   C91       1.0  0.15029  0.54412  0.01758  1.0000
  C   C92       1.0  0.21248  0.36974  0.04962  1.0000
  H   H92       1.0  0.23644  0.37623  0.04823  1.0000
  C   C93       1.0  0.01865  0.36378  0.46385  1.0000
  H   H93       1.0  0.11200  0.61428  0.46065  1.0000
  C   C94       1.0  0.13179  0.62515  0.47688  1.0000
  C   C95       1.0  0.40307  0.56747  0.23974  1.0000
  C   C96       1.0  0.14729  0.60981  0.48529  1.0000
  H   H94       1.0  0.13946  0.58675  0.47601  1.0000
  C   C97       1.0  0.50991  0.42009  0.39949  1.0000
  S   S37       1.0  0.26795  0.44709  0.25776  1.0000
  H   H95       1.0  0.47635  0.62815  0.23245  1.0000
  C   C98       1.0  0.16461  0.57631  0.01808  1.0000
  C   C99       1.0  0.14170  0.65443  0.48974  1.0000
  H   H96       1.0  0.05003  0.45699  0.38930  1.0000
  H   H97       1.0  0.23586  0.43658  0.46708  1.0000
  N   N9        1.0  0.19802  0.37300  0.02251  1.0000
  C   C100      1.0  0.16806  0.36566  0.02475  1.0000
  S   S38       1.0  0.10691  0.38595  0.00425  1.0000
  C   C101      1.0  0.02220  0.62486  0.17441  1.0000
  S   S39       1.0  0.17318  0.45137  0.01157  1.0000
  C   C102      1.0  0.36096  0.48833  0.29306  1.0000
  C   C103      1.0  0.04340  0.45072  0.44262  1.0000
  H   H98       1.0  0.01883  0.36748  0.37884  1.0000
  C   C104      1.0  0.02016  0.64849  0.15875  1.0000
  C   C105      1.0  0.15172  0.35461  0.05465  1.0000
  C   C106      1.0  0.19672  0.35844  0.07982  1.0000
  H   H99       1.0  0.21967  0.39946  0.48702  1.0000
  S   S40       1.0  0.09465  0.66377  0.05660  1.0000
  H   H100      1.0  0.15676  0.36863  0.00338  1.0000
  C   C107      1.0  0.34793  0.36170  0.37561  1.0000
  H   H101      1.0  0.12826  0.34976  0.05668  1.0000
  C   C108      1.0  0.22110  0.42215  0.48797  1.0000
  C   C109      1.0  0.03374  0.44542  0.40935  1.0000
  C   C110      1.0  0.39423  0.56570  0.20632  1.0000
  C   C111      1.0  0.37481  0.34298  0.34180  1.0000
  H   H102      1.0  0.12986  0.66666  0.48343  1.0000
  H   H103      1.0  0.18676  0.58998  0.00622  1.0000
  H   H104      1.0  0.50606  0.41001  0.33384  1.0000
  H   H105      1.0  0.19756  0.41797  0.48384  1.0000
  H   H106      1.0  0.20845  0.35670  0.10160  1.0000
  C   C112      1.0  0.50730  0.42911  0.43185  1.0000
  H   H107      1.0  0.40764  0.58493  0.15694  1.0000
  H   H108      1.0  0.03139  0.50127  0.01931  1.0000
  H   H109      1.0  0.05457  0.54185  0.01417  1.0000
  H   H110      1.0  0.47051  0.35938  0.05782  1.0000
  S   S41       1.0  0.04325  0.37423  0.49922  1.0000
  H   H111      1.0  0.37098  0.34646  0.28850  1.0000
  C   C113      1.0  0.16616  0.35091  0.08229  1.0000
  H   H112      1.0  0.49416  0.37260  0.35105  1.0000
  Fe  Fe22      1.0  0.32003  0.46608  0.26789  1.0000
  C   C114      1.0  0.36598  0.34776  0.37340  1.0000
  C   C115      1.0  0.48779  0.39061  0.34833  1.0000
  C   C116      1.0  0.41485  0.58627  0.18255  1.0000
  C   C117      1.0  0.48899  0.35640  0.04834  1.0000
  H   H113      1.0  0.38276  0.48383  0.24574  1.0000
  C   C118      1.0  0.43279  0.59027  0.24893  1.0000
  H   H114      1.0  0.46626  0.38087  0.33370  1.0000
  N   N10       1.0  0.32507  0.50419  0.24737  1.0000
  H   H115      1.0  0.47594  0.42414  0.47130  1.0000
  C   C119      1.0  0.36558  0.48844  0.25594  1.0000
  H   H116      1.0  0.50279  0.36516  0.47844  1.0000
  H   H117      1.0  0.43543  0.37479  0.38093  1.0000
  H   H118      1.0  0.32406  0.54011  0.22178  1.0000
  H   H119      1.0  0.30523  0.50330  0.20032  1.0000
  C   C120      1.0  0.47828  0.41810  0.44588  1.0000
  S   S42       1.0  0.33009  0.36945  0.27771  1.0000
  C   C121      1.0  0.36465  0.35096  0.31283  1.0000
  H   H120      1.0  0.37133  0.54945  0.19856  1.0000
  N   N11       1.0  0.48432  0.40098  0.38147  1.0000
  S   S43       1.0  0.31815  0.42988  0.22990  1.0000
  H   H121      1.0  0.33520  0.49735  0.33364  1.0000
  H   H122      1.0  0.32311  0.37948  0.34880  1.0000
  C   C122      1.0  0.45230  0.39869  0.42729  1.0000
  H   H123      1.0  0.30455  0.51134  0.29305  1.0000
  C   C123      1.0  0.33776  0.36965  0.34664  1.0000
  H   H124      1.0  0.28709  0.50977  0.23547  1.0000
  C   C124      1.0  0.32001  0.50424  0.28319  1.0000
  H   H125      1.0  0.37482  0.48362  0.30978  1.0000
  S   S44       1.0  0.46927  0.63484  0.16119  1.0000
  C   C125      1.0  0.44455  0.60882  0.19175  1.0000
  H   H126      1.0  0.35036  0.49702  0.20635  1.0000
  C   C126      1.0  0.33792  0.49624  0.30693  1.0000
  C   C127      1.0  0.45577  0.39028  0.39494  1.0000
  C   C128      1.0  0.34557  0.36377  0.31501  1.0000
  C   C129      1.0  0.30958  0.51488  0.22502  1.0000
  S   S45       1.0  0.30577  0.42890  0.30988  1.0000
  C   C130      1.0  0.45356  0.61069  0.22502  1.0000
  H   H127      1.0  0.34107  0.36568  0.39990  1.0000
  C   C131      1.0  0.34681  0.49644  0.23307  1.0000
  H   H128      1.0  0.42956  0.38964  0.43802  1.0000
  Fe  Fe23      1.0  0.30431  0.39580  0.27159  1.0000
  S   S46       1.0  0.37711  0.54375  0.27143  1.0000
  H   H129      1.0  0.43979  0.59223  0.27470  1.0000
  H   H130      1.0  0.15403  0.34334  0.10594  1.0000
  Fe  Fe24      1.0  0.34643  0.46868  0.75444  1.0000
  S   S47       1.0  0.32608  0.42252  0.72968  1.0000
  S   S48       1.0  0.39765  0.50197  0.75068  1.0000
  Fe  Fe25      1.0  0.28779  0.44956  0.79392  1.0000
  S   S49       1.0  0.26386  0.40174  0.77273  1.0000
  S   S50       1.0  0.26558  0.46993  0.82632  1.0000
  Fe  Fe26      1.0  0.30886  0.40323  0.78097  1.0000
  S   S51       1.0  0.31460  0.36269  0.79628  1.0000
  Fe  Fe27      1.0  0.28324  0.42544  0.72354  1.0000
  S   S52       1.0  0.25465  0.40846  0.67566  1.0000
  S   S53       1.0  0.33106  0.44929  0.80601  1.0000
  S   S54       1.0  0.30523  0.47332  0.74437  1.0000
  Fe  Fe28      1.0  0.14678  0.44602  0.55597  1.0000
  S   S55       1.0  0.16993  0.45315  0.60710  1.0000
  S   S56       1.0  0.12303  0.44437  0.95448  1.0000
  S   S57       1.0  0.03571  0.40181  0.98106  1.0000
  Fe  Fe29      1.0  0.14594  0.41825  0.97068  1.0000
  S   S58       1.0  0.16614  0.39573  0.93856  1.0000
  S   S59       1.0  0.10055  0.44214  0.55022  1.0000
  S   S60       1.0  0.15828  0.63187  0.60680  1.0000
  C   C132      1.0  0.11929  0.54584  0.54070  1.0000
  C   C133      1.0  0.14519  0.55446  0.56030  1.0000
  C   C134      1.0  0.15644  0.58041  0.58121  1.0000
  C   C135      1.0  0.14185  0.59782  0.58272  1.0000
  C   C136      1.0  0.11547  0.58864  0.56380  1.0000
  H   H131      1.0  0.15686  0.54147  0.55892  1.0000
  H   H132      1.0  0.17674  0.58722  0.59596  1.0000
  H   H133      1.0  0.10379  0.60154  0.56505  1.0000
  H   H134      1.0  0.21398  0.41750  0.78792  1.0000
  C   C137      1.0  0.23826  0.44892  0.85764  1.0000
  C   C138      1.0  0.22846  0.41806  0.86379  1.0000
  C   C139      1.0  0.20627  0.40199  0.88864  1.0000
  C   C140      1.0  0.19377  0.41665  0.90747  1.0000
  C   C141      1.0  0.20358  0.44750  0.90131  1.0000
  C   C142      1.0  0.22570  0.46353  0.87642  1.0000
  H   H135      1.0  0.23807  0.40662  0.84955  1.0000
  H   H136      1.0  0.19879  0.37812  0.89330  1.0000
  H   H137      1.0  0.19413  0.45900  0.91570  1.0000
  H   H138      1.0  0.23321  0.48742  0.87179  1.0000
  C   C143      1.0  0.23162  0.42154  0.65664  1.0000
  C   C144      1.0  0.21232  0.40458  0.63001  1.0000
  C   C145      1.0  0.19366  0.41409  0.61410  1.0000
  C   C146      1.0  0.19401  0.44071  0.62477  1.0000
  C   C147      1.0  0.21348  0.45777  0.65123  1.0000
  C   C148      1.0  0.23220  0.44832  0.66706  1.0000
  H   H139      1.0  0.21171  0.38384  0.62169  1.0000
  H   H140      1.0  0.17874  0.40064  0.59389  1.0000
  H   H141      1.0  0.21405  0.47848  0.65961  1.0000
  H   H142      1.0  0.24701  0.46172  0.68738  1.0000
  C   C149      1.0  0.39730  0.53938  0.70041  1.0000
  H   H143      1.0  0.37257  0.52530  0.70065  1.0000
  H   H144      1.0  0.39840  0.57054  0.66291  1.0000
  C   C150      1.0  0.33670  0.35976  0.82909  1.0000
  C   C151      1.0  0.34983  0.38181  0.85440  1.0000
  H   H145      1.0  0.34598  0.40104  0.85490  1.0000
  N   N12       1.0  0.18794  0.40236  0.74290  1.0000
  C   C152      1.0  0.36789  0.37890  0.87929  1.0000
  H   H146      1.0  0.37780  0.39604  0.89878  1.0000
  C   C153      1.0  0.20219  0.45020  0.77030  1.0000
  C   C154      1.0  0.10428  0.56278  0.54285  1.0000
  C   C155      1.0  0.17395  0.40932  0.71813  1.0000
  S   S61       1.0  0.02932  0.64030  0.61494  1.0000
  C   C156      1.0  0.17319  0.43665  0.71923  1.0000
  C   C157      1.0  0.20226  0.42255  0.76858  1.0000
  H   H147      1.0  0.16381  0.39401  0.69695  1.0000
  C   C158      1.0  0.18885  0.37382  0.74088  1.0000
  C   C159      1.0  0.18752  0.45723  0.74546  1.0000
  C   C160      1.0  0.25036  0.43022  0.53953  1.0000
  C   C161      1.0  0.26277  0.44582  0.56954  1.0000
  S   S62       1.0  0.16960  0.48801  0.52344  1.0000
  H   H148      1.0  0.27560  0.43914  0.58567  1.0000
  S   S63       1.0  0.10423  0.65851  0.56649  1.0000
  H   H149      1.0  0.25429  0.41177  0.53227  1.0000
  H   H150      1.0  0.21375  0.46615  0.79068  1.0000
  H   H151      1.0  0.18760  0.47876  0.74632  1.0000
  Fe  Fe30      1.0  0.12306  0.48154  0.51467  1.0000
  H   H152      1.0  0.23545  0.49502  0.56668  1.0000
  H   H153      1.0  0.26661  0.48131  0.60277  1.0000
  Fe  Fe31      1.0  0.08552  0.41431  0.99055  1.0000
  Fe  Fe32      1.0  0.13884  0.66359  0.60434  1.0000
  N   N13       1.0  0.18136  0.65224  0.52014  1.0000
  C   C162      1.0  0.25777  0.46954  0.57918  1.0000
  H   H154      1.0  0.13319  0.55563  0.94166  1.0000
  C   C163      1.0  0.11151  0.53596  0.94918  1.0000
  C   C164      1.0  0.10487  0.50635  0.94092  1.0000
  H   H155      1.0  0.12127  0.50290  0.92675  1.0000
  C   C165      1.0  0.07733  0.48118  0.95156  1.0000
  H   H156      1.0  0.16233  0.44217  0.69928  1.0000
  S   S64       1.0  0.13796  0.41263  0.51388  1.0000
  H   H157      1.0  0.03797  0.36290  0.92716  1.0000
  N   N14       1.0  0.39399  0.40169  0.77637  1.0000
  C   C166      1.0  0.09061  0.53997  0.96848  1.0000
  C   C167      1.0  0.24036  0.47728  0.55893  1.0000
  Fe  Fe33      1.0  0.09341  0.41261  0.50487  1.0000
  C   C168      1.0  0.37774  0.38101  0.74846  1.0000
  C   C169      1.0  0.37363  0.35431  0.87889  1.0000
  H   H158      1.0  0.04299  0.66179  0.68452  1.0000
  H   H159      1.0  0.20825  0.37729  0.72466  1.0000
  H   H160      1.0  0.19182  0.36633  0.76593  1.0000
  H   H161      1.0  0.35967  0.38520  0.73858  1.0000
  N   N15       1.0  0.23326  0.43795  0.51985  1.0000
  C   C170      1.0  0.22844  0.46132  0.52906  1.0000
  H   H162      1.0  0.09630  0.56307  0.97547  1.0000
  S   S65       1.0  0.39831  0.35306  0.90972  1.0000
  H   H163      1.0  0.36553  0.35669  0.75689  1.0000
  H   H164      1.0  0.40123  0.59727  0.73814  1.0000
  C   C171      1.0  0.05712  0.48595  0.97116  1.0000
  N   N16       1.0  0.06412  0.51508  0.97979  1.0000
  C   C172      1.0  0.01843  0.64736  0.68196  1.0000
  S   S66       1.0  0.11485  0.67141  0.64757  1.0000
  C   C173      1.0  0.20773  0.66670  0.54262  1.0000
  H   H165      1.0  0.03601  0.46607  0.97972  1.0000
  H   H166      1.0  0.05857  0.44852  0.50399  1.0000
  H   H167      1.0  0.01640  0.58495  0.66429  1.0000
  H   H168      1.0  0.39407  0.38417  0.72814  1.0000
  C   C174      1.0  0.39570  0.42958  0.77864  1.0000
  H   H169      1.0  0.21512  0.46760  0.51338  1.0000
  H   H170      1.0  0.38499  0.43659  0.76004  1.0000
  H   H171      1.0  0.02190  0.41894  0.51731  1.0000
  H   H172      1.0  0.20970  0.64909  0.55725  1.0000
  H   H173      1.0  0.07176  0.45802  0.94505  1.0000
  C   C175      1.0  0.01608  0.36184  0.92615  1.0000
  H   H174      1.0  0.49263  0.67312  0.73643  1.0000
  C   C176      1.0  0.41197  0.56502  0.67910  1.0000
  C   C177      1.0  0.42457  0.60872  0.74731  1.0000
  C   C178      1.0  0.41472  0.53230  0.72160  1.0000
  S   S67       1.0  0.10632  0.51553  0.51150  1.0000
  H   H175      1.0  0.20156  0.37020  0.96985  1.0000
  H   H176      1.0  0.48603  0.59032  0.69983  1.0000
  H   H177      1.0  0.42811  0.66503  0.72179  1.0000
  H   H178      1.0  0.08415  0.55616  0.52788  1.0000
  H   H179      1.0  0.16726  0.35489  0.73026  1.0000
  C   C179      1.0  0.43726  0.65158  0.70947  1.0000
  C   C180      1.0  0.40815  0.39329  0.79952  1.0000
  H   H180      1.0  0.40653  0.37104  0.79799  1.0000
  H   H181      1.0  0.41978  0.63431  0.69229  1.0000
  H   H182      1.0  0.50168  0.38569  0.95553  1.0000
  C   C181      1.0  0.46277  0.60800  0.78240  1.0000
  H   H183      1.0  0.18362  0.61136  0.51412  1.0000
  C   C182      1.0  0.47561  0.65082  0.74602  1.0000
  N   N17       1.0  0.44613  0.63652  0.73457  1.0000
  H   H184      1.0  0.41129  0.47107  0.80734  1.0000
  H   H185      1.0  0.46042  0.54527  0.73719  1.0000
  H   H186      1.0  0.41563  0.57133  0.78031  1.0000
  H   H187      1.0  0.50805  0.64794  0.77826  1.0000
  C   C183      1.0  0.41077  0.44934  0.80537  1.0000
  H   H188      1.0  0.45710  0.66705  0.69336  1.0000
  C   C184      1.0  0.44678  0.55068  0.72097  1.0000
  H   H189      1.0  0.43337  0.40502  0.84573  1.0000
  C   C185      1.0  0.44405  0.58384  0.67911  1.0000
  S   S68       1.0  0.46156  0.61729  0.65419  1.0000
  C   C186      1.0  0.48443  0.63671  0.76989  1.0000
  C   C187      1.0  0.04260  0.51966  0.00027  1.0000
  C   C188      1.0  0.46138  0.57636  0.69990  1.0000
  C   C189      1.0  0.43256  0.59398  0.77130  1.0000
  H   H190      1.0  0.43562  0.45529  0.85094  1.0000
  C   C190      1.0  0.42355  0.41254  0.82653  1.0000
  C   C191      1.0  0.42457  0.44060  0.82958  1.0000
  H   H191      1.0  0.46942  0.59646  0.80036  1.0000
  C   C192      1.0  0.17225  0.62383  0.50700  1.0000
  C   C193      1.0  0.16680  0.66779  0.51131  1.0000
  H   H192      1.0  0.02481  0.51964  0.98416  1.0000
  S   S69       1.0  0.16851  0.52630  0.99760  1.0000
  H   H193      1.0  0.21771  0.40848  0.98636  1.0000
  H   H194      1.0  0.02991  0.45835  0.51415  1.0000
  Fe  Fe34      1.0  0.08167  0.66936  0.60917  1.0000
  H   H195      1.0  0.23764  0.38747  0.99111  1.0000
  C   C194      1.0  0.21470  0.38540  0.99107  1.0000
  Fe  Fe35      1.0  0.14619  0.47441  0.99907  1.0000
  C   C195      1.0  0.03374  0.44053  0.50258  1.0000
  S   S70       1.0  0.22917  0.81807  0.26377  1.0000
  S   S71       1.0  0.13691  0.72122  0.10575  1.0000
  S   S72       1.0  0.19874  0.71240  0.15844  1.0000
  Fe  Fe36      1.0  0.14158  0.70644  0.05378  1.0000
  Fe  Fe37      1.0  0.15922  0.69484  0.12207  1.0000
  C   C196      1.0  0.23411  0.79883  0.45095  1.0000
  C   C197      1.0  0.17957  0.76072  0.45068  1.0000
  C   C198      1.0  0.20632  0.78279  0.43387  1.0000
  H   H196      1.0  0.15808  0.74911  0.43734  1.0000
  H   H197      1.0  0.20525  0.78795  0.40790  1.0000
  C   C199      1.0  0.22431  0.79178  0.23178  1.0000
  C   C200      1.0  0.20181  0.78474  0.20745  1.0000
  C   C201      1.0  0.19433  0.76106  0.18413  1.0000
  C   C202      1.0  0.20952  0.74437  0.18486  1.0000
  C   C203      1.0  0.23297  0.75231  0.20823  1.0000
  C   C204      1.0  0.24032  0.77588  0.23170  1.0000
  H   H198      1.0  0.18951  0.79713  0.20724  1.0000
  H   H199      1.0  0.17633  0.75528  0.16621  1.0000
  C   C205      1.0  0.13793  0.74281  0.24607  1.0000
  N   N18       1.0  0.24095  0.78659  0.05637  1.0000
  H   H200      1.0  0.15046  0.76092  0.26423  1.0000
  C   C206      1.0  0.23252  0.80539  0.04118  1.0000
  C   C207      1.0  0.11550  0.74373  0.22663  1.0000
  C   C208      1.0  0.09957  0.72076  0.20295  1.0000
  H   H201      1.0  0.11058  0.76217  0.22984  1.0000
  C   C209      1.0  0.10634  0.69738  0.19886  1.0000
  H   H202      1.0  0.08199  0.72097  0.18766  1.0000
  H   H203      1.0  0.22256  0.77910  0.10556  1.0000
  C   C210      1.0  0.22139  0.76585  0.08282  1.0000
  H   H204      1.0  0.19730  0.75280  0.07412  1.0000
  C   C211      1.0  0.18020  0.75414  0.48469  1.0000
  H   H205      1.0  0.22807  0.74874  0.08987  1.0000
  C   C212      1.0  0.23488  0.79176  0.48480  1.0000
  S   S73       1.0  0.15707  0.74297  0.01266  1.0000
  H   H206      1.0  0.24496  0.73961  0.20881  1.0000
  H   H207      1.0  0.25773  0.78115  0.25029  1.0000
  N   N19       1.0  0.14467  0.71994  0.24154  1.0000
  H   H208      1.0  0.21113  0.80425  0.04797  1.0000
  C   C213      1.0  0.12923  0.69740  0.21828  1.0000
  H   H209      1.0  0.15589  0.70251  0.28376  1.0000
  C   C214      1.0  0.16747  0.71862  0.26278  1.0000
  H   H210      1.0  0.18113  0.71089  0.24813  1.0000
  H   H211      1.0  0.18403  0.74162  0.27315  1.0000
  H   H212      1.0  0.27400  0.77222  0.05896  1.0000
  C   C215      1.0  0.26733  0.78717  0.04701  1.0000
  H   H213      1.0  0.16726  0.83383  0.49940  1.0000
  C   C216      1.0  0.20819  0.76943  0.50153  1.0000
  H   H214      1.0  0.45828  0.00335  0.27172  1.0000
  H   H215      1.0  0.25623  0.80394  0.49831  1.0000
  H   H216      1.0  0.19163  0.82057  0.48198  1.0000
  H   H217      1.0  0.49510  0.70458  0.03753  1.0000
  S   S74       1.0  0.26797  0.82908  0.43207  1.0000
  S   S75       1.0  0.26766  0.86950  0.34040  1.0000
  C   C217      1.0  0.44483  0.00302  0.25059  1.0000
  S   S76       1.0  0.04982  0.67586  0.13217  1.0000
  S   S77       1.0  0.16623  0.68203  0.07009  1.0000
  H   H218      1.0  0.43266  0.90068  0.40920  1.0000
  H   H219      1.0  0.31999  0.77834  0.39634  1.0000
  C   C218      1.0  0.32137  0.79962  0.40615  1.0000
  N   N20       1.0  0.50580  0.73568  0.38500  1.0000
  C   C219      1.0  0.25048  0.82519  0.01556  1.0000
  H   H220      1.0  0.30615  0.80638  0.01314  1.0000
  C   C220      1.0  0.50767  0.70027  0.34598  1.0000
  C   C221      1.0  0.28574  0.80657  0.02131  1.0000
  C   C222      1.0  0.41080  0.00262  0.19647  1.0000
  H   H221      1.0  0.49395  0.75253  0.42798  1.0000
  H   H222      1.0  0.48094  0.69873  0.11659  1.0000
  H   H223      1.0  0.41511  0.93858  0.26405  1.0000
  C   C223      1.0  0.33830  0.98793  0.23640  1.0000
  C   C224      1.0  0.50445  0.77596  0.03554  1.0000
  Fe  Fe38      1.0  0.09216  0.67631  0.11014  1.0000
  C   C225      1.0  0.39485  0.82532  0.45184  1.0000
  C   C226      1.0  0.36944  0.80855  0.43125  1.0000
  H   H224      1.0  0.48782  0.69749  0.29778  1.0000
  N   N21       1.0  0.34759  0.81678  0.42829  1.0000
  C   C227      1.0  0.44476  0.86657  0.39650  1.0000
  Fe  Fe39      1.0  0.26811  0.83701  0.30144  1.0000
  H   H225      1.0  0.37866  0.87982  0.47776  1.0000
  H   H226      1.0  0.13476  0.67943  0.21441  1.0000
  Fe  Fe40      1.0  0.50791  0.86315  0.42849  1.0000
  C   C228      1.0  0.27715  0.82560  0.00546  1.0000
  S   S78       1.0  0.31783  0.86756  0.28753  1.0000
  C   C229      1.0  0.50349  0.71121  0.10363  1.0000
  C   C230      1.0  0.39418  0.84322  0.35269  1.0000
  C   C231      1.0  0.42713  0.88082  0.39391  1.0000
  C   C232      1.0  0.49121  0.74358  0.36189  1.0000
  H   H227      1.0  0.36784  0.78952  0.41690  1.0000
  Fe  Fe41      1.0  0.31801  0.89881  0.32780  1.0000
  S   S79       1.0  0.36160  0.82690  0.32648  1.0000
  H   H228      1.0  0.39694  0.00259  0.17590  1.0000
  C   C233      1.0  0.49922  0.74759  0.02403  1.0000
  C   C234      1.0  0.40198  0.86922  0.37215  1.0000
  C   C235      1.0  0.40386  0.95233  0.26852  1.0000
  Fe  Fe42      1.0  0.27989  0.84330  0.37691  1.0000
  H   H229      1.0  0.48575  0.76138  0.36745  1.0000
  H   H230      1.0  0.37866  0.93700  0.26574  1.0000
  H   H231      1.0  0.45084  0.82977  0.37831  1.0000
  S   S80       1.0  0.47366  0.87968  0.42725  1.0000
  Fe  Fe43      1.0  0.32718  0.84329  0.32883  1.0000
  H   H232      1.0  0.29957  0.79332  0.41939  1.0000
  C   C236      1.0  0.35331  0.97642  0.28968  1.0000
  S   S81       1.0  0.34848  0.95127  0.32328  1.0000
  S   S82       1.0  0.33034  0.87607  0.36833  1.0000
  C   C237      1.0  0.39917  0.97789  0.21869  1.0000
  H   H233      1.0  0.40652  0.80937  0.33956  1.0000
  C   C238      1.0  0.50917  0.78284  0.06951  1.0000
  C   C239      1.0  0.48403  0.72961  0.33041  1.0000
  H   H234      1.0  0.41860  0.86500  0.48350  1.0000
  H   H235      1.0  0.32367  0.81413  0.38444  1.0000
  C   C240      1.0  0.49881  0.72641  0.04676  1.0000
  C   C241      1.0  0.39821  0.85107  0.46874  1.0000
  H   H236      1.0  0.47304  0.73643  0.31194  1.0000
  C   C242      1.0  0.33356  0.96701  0.26226  1.0000
  N   N22       1.0  0.50395  0.73354  0.07998  1.0000
  S   S83       1.0  0.50109  0.81672  0.41655  1.0000
  C   C243      1.0  0.37597  0.85949  0.46529  1.0000
  N   N23       1.0  0.41606  0.97846  0.24552  1.0000
  H   H237      1.0  0.33357  0.84880  0.44181  1.0000
  H   H238      1.0  0.38872  0.88048  0.37048  1.0000
  C   C244      1.0  0.41224  0.82936  0.35470  1.0000
  H   H239      1.0  0.41271  0.81943  0.45332  1.0000
  C   C245      1.0  0.50883  0.76122  0.09153  1.0000
  H   H240      1.0  0.40756  0.96044  0.29488  1.0000
  C   C246      1.0  0.49233  0.70781  0.32247  1.0000
  H   H241      1.0  0.32259  0.98045  0.21560  1.0000
  S   S84       1.0  0.27725  0.80933  0.33862  1.0000
  H   H242      1.0  0.37624  0.95860  0.21480  1.0000
  C   C247      1.0  0.43743  0.84095  0.37653  1.0000
  C   C248      1.0  0.35061  0.84193  0.44486  1.0000
  H   H243      1.0  0.31434  0.94376  0.26125  1.0000
  C   C249      1.0  0.37809  0.00684  0.29051  1.0000
  H   H244      1.0  0.15305  0.79325  0.49313  1.0000
  H   H245      1.0  0.09385  0.67938  0.18068  1.0000
  H   H246      1.0  0.50547  0.79281  0.01801  1.0000
  S   S85       1.0  0.51018  0.78030  0.49421  1.0000
  H   H247      1.0  0.50785  0.69410  0.09102  1.0000
  C   C250      1.0  0.17327  0.81554  0.50062  1.0000
  H   H248      1.0  0.24309  0.83917  0.00268  1.0000
  Fe  Fe44      1.0  0.35995  0.86663  0.83730  1.0000
  S   S86       1.0  0.33834  0.88430  0.87321  1.0000
  Fe  Fe45      1.0  0.30223  0.83585  0.79374  1.0000
  S   S87       1.0  0.27667  0.85205  0.82643  1.0000
  S   S88       1.0  0.28597  0.80319  0.74959  1.0000
  Fe  Fe46      1.0  0.32210  0.89747  0.82705  1.0000
  S   S89       1.0  0.33563  0.94829  0.82545  1.0000
  Fe  Fe47      1.0  0.29542  0.83769  0.86956  1.0000
  S   S90       1.0  0.27244  0.80392  0.91326  1.0000
  S   S91       1.0  0.34568  0.88160  0.79156  1.0000
  S   S92       1.0  0.31882  0.81947  0.83630  1.0000
  Fe  Fe48      1.0  0.14343  0.72132  0.63365  1.0000
  S   S93       1.0  0.10874  0.71991  0.59746  1.0000
  S   S94       1.0  0.16233  0.76059  0.67095  1.0000
  Fe  Fe49      1.0  0.13480  0.70945  0.55869  1.0000
  C   C251      1.0  0.33837  0.98573  0.73416  1.0000
  S   S95       1.0  0.17090  0.71396  0.59418  1.0000
  H   H249      1.0  0.21881  0.78725  0.86707  1.0000
  C   C252      1.0  0.23874  0.78573  0.93860  1.0000
  C   C253      1.0  0.21711  0.79526  0.93928  1.0000
  C   C254      1.0  0.23446  0.76180  0.96001  1.0000
  H   H250      1.0  0.22016  0.81383  0.92333  1.0000
  C   C255      1.0  0.25237  0.79290  0.72691  1.0000
  C   C256      1.0  0.24259  0.76950  0.70285  1.0000
  C   C257      1.0  0.21501  0.75935  0.68551  1.0000
  C   C258      1.0  0.19716  0.77277  0.69196  1.0000
  C   C259      1.0  0.20712  0.79645  0.71571  1.0000
  C   C260      1.0  0.23460  0.80644  0.73326  1.0000
  H   H251      1.0  0.25627  0.75895  0.69781  1.0000
  H   H252      1.0  0.20756  0.74113  0.66722  1.0000
  H   H253      1.0  0.19344  0.80701  0.72070  1.0000
  H   H254      1.0  0.24195  0.82449  0.75175  1.0000
  H   H255      1.0  0.32578  0.97835  0.71099  1.0000
  C   C261      1.0  0.34630  0.97365  0.79071  1.0000
  C   C262      1.0  0.33124  0.96423  0.76005  1.0000
  H   H256      1.0  0.25280  0.76730  0.85153  1.0000
  H   H257      1.0  0.31317  0.94064  0.75673  1.0000
  H   H258      1.0  0.38054  0.82450  0.87767  1.0000
  C   C263      1.0  0.18790  0.75775  0.98329  1.0000
  C   C264      1.0  0.23475  0.76400  0.83454  1.0000
  C   C265      1.0  0.20793  0.74467  0.78359  1.0000
  C   C266      1.0  0.21545  0.77524  0.84356  1.0000
  N   N24       1.0  0.23119  0.74945  0.80459  1.0000
  C   C267      1.0  0.18831  0.75574  0.79174  1.0000
  C   C268      1.0  0.25171  0.73789  0.79566  1.0000
  C   C269      1.0  0.19188  0.78131  0.96146  1.0000
  C   C270      1.0  0.19225  0.77127  0.82188  1.0000
  H   H259      1.0  0.17556  0.78920  0.96214  1.0000
  H   H260      1.0  0.20786  0.81086  0.62492  1.0000
  C   C271      1.0  0.20100  0.81187  0.59951  1.0000
  H   H261      1.0  0.15283  0.78471  0.61048  1.0000
  C   C272      1.0  0.17001  0.79693  0.59135  1.0000
  C   C273      1.0  0.16133  0.79779  0.55848  1.0000
  H   H262      1.0  0.27553  0.75440  0.80371  1.0000
  H   H263      1.0  0.24375  0.71530  0.80759  1.0000
  H   H264      1.0  0.25291  0.73565  0.76813  1.0000
  C   C274      1.0  0.22296  0.82805  0.57492  1.0000
  H   H265      1.0  0.20912  0.76474  0.52767  1.0000
  C   C275      1.0  0.21347  0.82902  0.54241  1.0000
  N   N25       1.0  0.18298  0.81365  0.53449  1.0000
  H   H266      1.0  0.20498  0.73305  0.75987  1.0000
  H   H267      1.0  0.17746  0.78033  0.82838  1.0000
  H   H268      1.0  0.17059  0.75280  0.77441  1.0000
  H   H269      1.0  0.13715  0.78555  0.55225  1.0000
  H   H270      1.0  0.38062  0.95953  0.72661  1.0000
  C   C276      1.0  0.36931  0.00465  0.79466  1.0000
  C   C277      1.0  0.20927  0.74790  0.98223  1.0000
  H   H271      1.0  0.25103  0.75424  0.95977  1.0000
  H   H272      1.0  0.24713  0.83982  0.58105  1.0000
  C   C278      1.0  0.40489  0.83627  0.88260  1.0000
  H   H273      1.0  0.17427  0.69054  0.52123  1.0000
  C   C279      1.0  0.50664  0.85160  0.81858  1.0000
  H   H274      1.0  0.23065  0.84174  0.52342  1.0000
  H   H275      1.0  0.29059  0.83988  0.98463  1.0000
  H   H276      1.0  0.20490  0.68143  0.56136  1.0000
  C   C280      1.0  0.41735  0.82208  0.90205  1.0000
  S   S96       1.0  0.41045  0.88190  0.84009  1.0000
  H   H277      1.0  0.38619  0.94853  0.78203  1.0000
  C   C281      1.0  0.41071  0.96668  0.78385  1.0000
  H   H278      1.0  0.41296  0.97885  0.80780  1.0000
  H   H279      1.0  0.22911  0.68074  0.52812  1.0000
  C   C282      1.0  0.40240  0.98086  0.72786  1.0000
  H   H280      1.0  0.20659  0.72984  0.99879  1.0000
  H   H281      1.0  0.49241  0.87790  0.89939  1.0000
  H   H282      1.0  0.40243  0.79948  0.91230  1.0000
  H   H283      1.0  0.39647  0.99618  0.67963  1.0000
  H   H284      1.0  0.49641  0.74249  0.99751  1.0000
  S   S97       1.0  0.14503  0.72859  0.50534  1.0000
  S   S98       1.0  0.46429  0.81754  0.93026  1.0000
  C   C283      1.0  0.45569  0.88025  0.87528  1.0000
  H   H285      1.0  0.47420  0.77834  0.83010  1.0000
  H   H286      1.0  0.47947  0.79740  0.86994  1.0000
  H   H287      1.0  0.49271  0.73186  0.54152  1.0000
  C   C284      1.0  0.44734  0.83944  0.80833  1.0000
  C   C285      1.0  0.41133  0.00135  0.70106  1.0000
  H   H288      1.0  0.42466  0.95534  0.78480  1.0000
  C   C286      1.0  0.45291  0.81778  0.82333  1.0000
  N   N26       1.0  0.48225  0.82387  0.82788  1.0000
  C   C287      1.0  0.50190  0.87404  0.80411  1.0000
  C   C288      1.0  0.46810  0.86607  0.89464  1.0000
  C   C289      1.0  0.42414  0.86527  0.86880  1.0000
  N   N27       1.0  0.42033  0.98811  0.75569  1.0000
  H   H289      1.0  0.46783  0.88524  0.78867  1.0000
  C   C290      1.0  0.44905  0.83678  0.90778  1.0000
  H   H290      1.0  0.43362  0.79633  0.83200  1.0000
  C   C291      1.0  0.48721  0.80056  0.84350  1.0000
  H   H291      1.0  0.47070  0.90273  0.86482  1.0000
  H   H292      1.0  0.42406  0.83489  0.80548  1.0000
  C   C292      1.0  0.47202  0.86783  0.79895  1.0000
  Fe  Fe50      1.0  0.68302  0.08916  0.08490  1.0000
  S   S99       1.0  0.68303  0.12192  0.04703  1.0000
  S   S100      1.0  0.67232  0.03994  0.07368  1.0000
  Fe  Fe51      1.0  0.71088  0.14048  0.14022  1.0000
  S   S101      1.0  0.71214  0.17577  0.10563  1.0000
  S   S102      1.0  0.72578  0.15136  0.19499  1.0000
  Fe  Fe52      1.0  0.66524  0.13836  0.08969  1.0000
  S   S103      1.0  0.62846  0.15112  0.08351  1.0000
  Fe  Fe53      1.0  0.72961  0.15598  0.06695  1.0000
  S   S104      1.0  0.77451  0.18489  0.03941  1.0000
  S   S105      1.0  0.66268  0.10380  0.12660  1.0000
  S   S106      1.0  0.73101  0.12246  0.10248  1.0000
  Fe  Fe54      1.0  0.84901  0.29208  0.31364  1.0000
  S   S107      1.0  0.82498  0.31327  0.34068  1.0000
  S   S108      1.0  0.83457  0.27406  0.25991  1.0000
  C   C293      1.0  0.61590  0.02537  0.45152  1.0000
  C   C294      1.0  0.80937  0.17344  0.19376  1.0000
  Fe  Fe55      1.0  0.83725  0.29700  0.38728  1.0000
  S   S109      1.0  0.80414  0.28179  0.43100  1.0000
  S   S110      1.0  0.85904  0.27328  0.36023  1.0000
  C   C295      1.0  0.76595  0.23771  0.47520  1.0000
  C   C296      1.0  0.83229  0.21575  0.14219  1.0000
  H   H293      1.0  0.76436  0.08814  0.01736  1.0000
  C   C297      1.0  0.78276  0.19515  0.45551  1.0000
  C   C298      1.0  0.79451  0.22310  0.43827  1.0000
  C   C299      1.0  0.78662  0.24473  0.44854  1.0000
  H   H294      1.0  0.75861  0.11758  0.03583  1.0000
  H   H295      1.0  0.87515  0.25973  0.45895  1.0000
  H   H296      1.0  0.78964  0.17884  0.44811  1.0000
  H   H297      1.0  0.81034  0.22827  0.41771  1.0000
  H   H298      1.0  0.63488  0.04045  0.01778  1.0000
  H   H299      1.0  0.85931  0.23546  0.23713  1.0000
  C   C300      1.0  0.75383  0.18687  0.21320  1.0000
  C   C301      1.0  0.75951  0.18813  0.24770  1.0000
  C   C302      1.0  0.78307  0.21506  0.26280  1.0000
  C   C303      1.0  0.80159  0.24106  0.24346  1.0000
  C   C304      1.0  0.79545  0.24001  0.20907  1.0000
  C   C305      1.0  0.77161  0.21323  0.19406  1.0000
  H   H300      1.0  0.74590  0.16795  0.26283  1.0000
  H   H301      1.0  0.78747  0.21537  0.28924  1.0000
  H   H302      1.0  0.80958  0.25991  0.19379  1.0000
  H   H303      1.0  0.76756  0.21275  0.16754  1.0000
  C   C306      1.0  0.59554  0.13538  0.10949  1.0000
  C   C307      1.0  0.59078  0.11422  0.13456  1.0000
  C   C308      1.0  0.56528  0.10347  0.15602  1.0000
  C   C309      1.0  0.54432  0.11377  0.15267  1.0000
  C   C310      1.0  0.54893  0.13483  0.12753  1.0000
  C   C311      1.0  0.57444  0.14553  0.10601  1.0000
  H   H304      1.0  0.60679  0.10622  0.13756  1.0000
  H   H305      1.0  0.56191  0.08720  0.17541  1.0000
  H   H306      1.0  0.53295  0.14297  0.12473  1.0000
  H   H307      1.0  0.57794  0.16190  0.08668  1.0000
  H   H308      1.0  0.83029  0.19925  0.25249  1.0000
  H   H309      1.0  0.79967  0.15692  0.21393  1.0000
  S   S111      1.0  0.89493  0.33578  0.31650  1.0000
  H   H310      1.0  0.79649  0.18066  0.11194  1.0000
  C   C312      1.0  0.84843  0.26825  0.49492  1.0000
  S   S112      1.0  0.95329  0.33272  0.37307  1.0000
  N   N28       1.0  0.61123  0.16902  0.19937  1.0000
  C   C313      1.0  0.62315  0.15500  0.21818  1.0000
  C   C314      1.0  0.62607  0.18482  0.17113  1.0000
  C   C315      1.0  0.65049  0.15634  0.20864  1.0000
  C   C316      1.0  0.65337  0.18651  0.16083  1.0000
  C   C317      1.0  0.66563  0.17226  0.17983  1.0000
  C   C318      1.0  0.58320  0.16832  0.21055  1.0000
  H   H311      1.0  0.61144  0.14254  0.24059  1.0000
  H   H312      1.0  0.61641  0.19546  0.15581  1.0000
  H   H313      1.0  0.65995  0.14504  0.22327  1.0000
  H   H314      1.0  0.66447  0.19806  0.13774  1.0000
  H   H315      1.0  0.68673  0.17333  0.17218  1.0000
  H   H316      1.0  0.56676  0.14565  0.22163  1.0000
  H   H317      1.0  0.58880  0.18666  0.22929  1.0000
  H   H318      1.0  0.57104  0.17157  0.18934  1.0000
  C   C319      1.0  0.79577  0.16517  0.16226  1.0000
  C   C320      1.0  0.80722  0.18655  0.13637  1.0000
  H   H319      1.0  0.84120  0.23255  0.12223  1.0000
  H   H320      1.0  0.77583  0.14262  0.15840  1.0000
  N   N29       1.0  0.83364  0.20228  0.19940  1.0000
  C   C321      1.0  0.84541  0.22324  0.17402  1.0000
  H   H321      1.0  0.86465  0.24611  0.17850  1.0000
  C   C322      1.0  0.76293  0.18859  0.48290  1.0000
  C   C323      1.0  0.64961  0.01240  0.04246  1.0000
  C   C324      1.0  0.84785  0.21029  0.23248  1.0000
  H   H322      1.0  0.85383  0.29012  0.48411  1.0000
  H   H323      1.0  0.86501  0.20286  0.23472  1.0000
  C   C325      1.0  0.63436  0.01875  0.01752  1.0000
  Fe  Fe56      1.0  0.90305  0.31933  0.36538  1.0000
  H   H324      1.0  0.81368  0.33798  0.22983  1.0000
  H   H325      1.0  0.63503  0.03674  0.43429  1.0000
  H   H326      1.0  0.73285  0.07814  0.04595  1.0000
  H   H327      1.0  0.75959  0.25429  0.48308  1.0000
  S   S113      1.0  0.51388  0.10127  0.18176  1.0000
  C   C326      1.0  0.86018  0.25106  0.48063  1.0000
  C   C327      1.0  0.85172  0.22222  0.49364  1.0000
  H   H328      1.0  0.94180  0.32377  0.44554  1.0000
  H   H329      1.0  0.85591  0.33847  0.26130  1.0000
  C   C328      1.0  0.75400  0.20965  0.49226  1.0000
  H   H330      1.0  0.86011  0.20832  0.48221  1.0000
  C   C329      1.0  0.74681  0.09388  0.02542  1.0000
  S   S114      1.0  0.88164  0.34129  0.39513  1.0000
  C   C330      1.0  0.96627  0.33720  0.44138  1.0000
  C   C331      1.0  0.61424  0.04095  0.47960  1.0000
  H   H331      1.0  0.97760  0.33977  0.49370  1.0000
  H   H332      1.0  0.63206  0.06448  0.48436  1.0000
  C   C332      1.0  0.59017  0.02573  0.50227  1.0000
  Fe  Fe57      1.0  0.66749  0.08111  0.57902  1.0000
  S   S115      1.0  0.66718  0.11241  0.53965  1.0000
  S   S116      1.0  0.63472  0.02915  0.57586  1.0000
  Fe  Fe58      1.0  0.71124  0.13645  0.62480  1.0000
  S   S117      1.0  0.71375  0.17103  0.58794  1.0000
  S   S118      1.0  0.73109  0.14805  0.67771  1.0000
  Fe  Fe59      1.0  0.66279  0.13920  0.58219  1.0000
  S   S119      1.0  0.63065  0.15825  0.58112  1.0000
  Fe  Fe60      1.0  0.71783  0.14085  0.54905  1.0000
  C   C333      1.0  0.61584  0.16638  0.68370  1.0000
  S   S120      1.0  0.65993  0.10641  0.62125  1.0000
  S   S121      1.0  0.71866  0.10791  0.58635  1.0000
  Fe  Fe61      1.0  0.84486  0.28805  0.79764  1.0000
  S   S122      1.0  0.81304  0.29893  0.82595  1.0000
  S   S123      1.0  0.83666  0.27305  0.74273  1.0000
  Fe  Fe62      1.0  0.89143  0.31051  0.85620  1.0000
  C   C334      1.0  0.83143  0.21092  0.52078  1.0000
  Fe  Fe63      1.0  0.82238  0.27721  0.86987  1.0000
  S   S124      1.0  0.77917  0.24415  0.89831  1.0000
  S   S125      1.0  0.85208  0.26389  0.84065  1.0000
  H   H333      1.0  0.82484  0.22452  0.99661  1.0000
  H   H334      1.0  0.75487  0.32766  0.86190  1.0000
  C   C335      1.0  0.69069  0.08482  0.94280  1.0000
  C   C336      1.0  0.80397  0.22054  0.98476  1.0000
  C   C337      1.0  0.80550  0.23370  0.95338  1.0000
  C   C338      1.0  0.77861  0.22827  0.93768  1.0000
  C   C339      1.0  0.75029  0.20995  0.95372  1.0000
  C   C340      1.0  0.74878  0.19702  0.98519  1.0000
  H   H335      1.0  0.78832  0.28891  0.94855  1.0000
  H   H336      1.0  0.82743  0.24778  0.94124  1.0000
  H   H337      1.0  0.72941  0.20582  0.94178  1.0000
  C   C341      1.0  0.62462  0.14790  0.70064  1.0000
  C   C342      1.0  0.75960  0.18364  0.69523  1.0000
  C   C343      1.0  0.77845  0.20927  0.67555  1.0000
  C   C344      1.0  0.80161  0.23653  0.69053  1.0000
  C   C345      1.0  0.80586  0.23877  0.72537  1.0000
  C   C346      1.0  0.78661  0.21333  0.74509  1.0000
  C   C347      1.0  0.76381  0.18591  0.73006  1.0000
  H   H338      1.0  0.77559  0.20790  0.64876  1.0000
  H   H339      1.0  0.81641  0.25601  0.67502  1.0000
  H   H340      1.0  0.78959  0.21458  0.77187  1.0000
  H   H341      1.0  0.74946  0.16623  0.74555  1.0000
  C   C348      1.0  0.59591  0.13950  0.60401  1.0000
  C   C349      1.0  0.58770  0.11296  0.62242  1.0000
  C   C350      1.0  0.56138  0.10007  0.64279  1.0000
  C   C351      1.0  0.54288  0.11341  0.64473  1.0000
  C   C352      1.0  0.55063  0.13956  0.62576  1.0000
  C   C353      1.0  0.57708  0.15255  0.60546  1.0000
  H   H342      1.0  0.60168  0.10244  0.62121  1.0000
  H   H343      1.0  0.55542  0.07972  0.65720  1.0000
  H   H344      1.0  0.53646  0.14996  0.62701  1.0000
  H   H345      1.0  0.58321  0.17301  0.59119  1.0000
  H   H346      1.0  0.60817  0.13012  0.71707  1.0000
  H   H347      1.0  0.64622  0.11926  0.73430  1.0000
  H   H348      1.0  0.62923  0.20188  0.64679  1.0000
  S   S126      1.0  0.86183  0.32177  0.88844  1.0000
  S   S127      1.0  0.75257  0.15555  0.50691  1.0000
  H   H349      1.0  0.69571  0.17594  0.66963  1.0000
  H   H350      1.0  0.76604  0.29411  0.89602  1.0000
  C   C354      1.0  0.66233  0.13237  0.71375  1.0000
  H   H351      1.0  0.95342  0.31357  0.75944  1.0000
  H   H352      1.0  0.78772  0.19064  0.56508  1.0000
  H   H353      1.0  0.99962  0.33025  0.88451  1.0000
  H   H354      1.0  0.67613  0.08241  0.92187  1.0000
  S   S128      1.0  0.51133  0.09763  0.67249  1.0000
  H   H355      1.0  0.58940  0.03734  0.52486  1.0000
  H   H356      1.0  0.59288  0.16272  0.68680  1.0000
  C   C355      1.0  0.71335  0.11390  0.95340  1.0000
  H   H357      1.0  0.93651  0.26677  0.83347  1.0000
  C   C356      1.0  0.87137  0.21581  0.79345  1.0000
  C   C357      1.0  0.77564  0.20218  0.00076  1.0000
  H   H358      1.0  0.89327  0.21355  0.83850  1.0000
  H   H359      1.0  0.51151  0.29956  0.98181  1.0000
  H   H360      1.0  0.82413  0.18805  0.53004  1.0000
  H   H361      1.0  0.68550  0.14663  0.72478  1.0000
  H   H362      1.0  0.51283  0.26048  0.51214  1.0000
  H   H363      1.0  0.68061  0.20795  0.63778  1.0000
  C   C358      1.0  0.91897  0.25764  0.81435  1.0000
  C   C359      1.0  0.89751  0.26451  0.76493  1.0000
  C   C360      1.0  0.78279  0.31467  0.90906  1.0000
  C   C361      1.0  0.94563  0.30747  0.78571  1.0000
  H   H364      1.0  0.72683  0.18298  0.99730  1.0000
  H   H365      1.0  0.74952  0.13909  0.98836  1.0000
  H   H366      1.0  0.66939  0.03603  0.95121  1.0000
  H   H367      1.0  0.67215  0.03535  0.51670  1.0000
  H   H368      1.0  0.89789  0.27910  0.74488  1.0000
  S   S129      1.0  0.93847  0.31689  0.86948  1.0000
  H   H369      1.0  0.85457  0.22587  0.74876  1.0000
  C   C362      1.0  0.87285  0.23439  0.76704  1.0000
  N   N30       1.0  0.65325  0.15185  0.69603  1.0000
  C   C363      1.0  0.67334  0.17332  0.67399  1.0000
  S   S130      1.0  0.88681  0.33360  0.81041  1.0000
  H   H370      1.0  0.85196  0.19266  0.79573  1.0000
  C   C364      1.0  0.79547  0.31154  0.93868  1.0000
  C   C365      1.0  0.89453  0.22748  0.81736  1.0000
  H   H371      1.0  0.66328  0.11583  0.69605  1.0000
  C   C366      1.0  0.66513  0.19184  0.65624  1.0000
  C   C367      1.0  0.63627  0.18844  0.66134  1.0000
  N   N31       1.0  0.72722  0.09089  0.99719  1.0000
  C   C368      1.0  0.82830  0.25632  0.52213  1.0000
  H   H372      1.0  0.93802  0.32322  0.79537  1.0000
  H   H373      1.0  0.96565  0.31138  0.80085  1.0000
  N   N32       1.0  0.92037  0.27562  0.78815  1.0000
  C   C369      1.0  0.96543  0.34131  0.90021  1.0000
  C   C370      1.0  0.73173  0.11648  0.98057  1.0000
  H   H374      1.0  0.78027  0.22134  0.56077  1.0000
  N   N33       1.0  0.81989  0.22790  0.53453  1.0000
  H   H375      1.0  0.81862  0.26949  0.53247  1.0000
  C   C371      1.0  0.79902  0.21608  0.56330  1.0000
  H   H376      1.0  0.81175  0.22638  0.58674  1.0000
  H   H377      1.0  0.70188  0.04197  0.99976  1.0000
  C   C372      1.0  0.68686  0.05881  0.95927  1.0000
  H   H378      1.0  0.51288  0.23004  0.56035  1.0000
  C   C373      1.0  0.65274  0.01220  0.51737  1.0000
  H   H379      1.0  0.71673  0.13438  0.94076  1.0000
  H   H380      1.0  0.73849  0.20467  0.51311  1.0000
  C   C374      1.0  0.70537  0.06229  0.98667  1.0000
  H   H381      1.0  0.82869  0.33539  0.97723  1.0000
  C   C375      1.0  0.81808  0.33766  0.95482  1.0000
  Fe  Fe64      1.0  0.69286  0.54235  0.46382  1.0000
  C   C376      1.0  0.59148  0.54610  0.05058  1.0000
  S   S131      1.0  0.70781  0.54473  0.40923  1.0000
  Fe  Fe65      1.0  0.67786  0.57728  0.03191  1.0000
  S   S132      1.0  0.65615  0.53341  0.06127  1.0000
  S   S133      1.0  0.67321  0.61932  0.04327  1.0000
  Fe  Fe66      1.0  0.69771  0.53067  0.04609  1.0000
  S   S134      1.0  0.71992  0.51058  0.07825  1.0000
  C   C377      1.0  0.00305  0.42462  0.40218  1.0000
  C   C378      1.0  0.82863  0.43805  0.37146  1.0000
  H   H382      1.0  0.90517  0.38745  0.26854  1.0000
  S   S135      1.0  0.64764  0.53899  0.47643  1.0000
  C   C379      1.0  0.58377  0.59022  0.04849  1.0000
  H   H383      1.0  0.84731  0.52200  0.36436  1.0000
  H   H384      1.0  0.99251  0.66961  0.15350  1.0000
  S   S136      1.0  0.88663  0.40557  0.33898  1.0000
  Fe  Fe67      1.0  0.84635  0.56171  0.29787  1.0000
  S   S137      1.0  0.80738  0.52973  0.26535  1.0000
  S   S138      1.0  0.83695  0.57269  0.35040  1.0000
  Fe  Fe68      1.0  0.89531  0.56861  0.24463  1.0000
  S   S139      1.0  0.85845  0.53685  0.20909  1.0000
  S   S140      1.0  0.94480  0.58180  0.23214  1.0000
  Fe  Fe69      1.0  0.83447  0.56244  0.22425  1.0000
  S   S141      1.0  0.81528  0.58531  0.19212  1.0000
  Fe  Fe70      1.0  0.83570  0.50771  0.25442  1.0000
  S   S142      1.0  0.81430  0.45598  0.25733  1.0000
  S   S143      1.0  0.87267  0.59611  0.25731  1.0000
  S   S144      1.0  0.87330  0.53795  0.28941  1.0000
  H   H385      1.0  0.81633  0.59646  0.28146  1.0000
  C   C380      1.0  0.97065  0.63080  0.18699  1.0000
  C   C381      1.0  0.97289  0.60740  0.20296  1.0000
  C   C382      1.0  0.85454  0.60922  0.11485  1.0000
  H   H386      1.0  0.95122  0.63365  0.19211  1.0000
  C   C383      1.0  0.86584  0.41842  0.31586  1.0000
  C   C384      1.0  0.83561  0.39867  0.30575  1.0000
  C   C385      1.0  0.81982  0.41037  0.28791  1.0000
  C   C386      1.0  0.83423  0.44175  0.28006  1.0000
  C   C387      1.0  0.86456  0.46120  0.28975  1.0000
  C   C388      1.0  0.88022  0.44963  0.30769  1.0000
  H   H387      1.0  0.82436  0.37452  0.31195  1.0000
  H   H388      1.0  0.79639  0.39511  0.28030  1.0000
  H   H389      1.0  0.87633  0.48509  0.28291  1.0000
  H   H390      1.0  0.90368  0.46497  0.31520  1.0000
  H   H391      1.0  0.88583  0.51087  0.38748  1.0000
  H   H392      1.0  0.71497  0.59009  0.33618  1.0000
  H   H393      1.0  0.82339  0.41440  0.37300  1.0000
  H   H394      1.0  0.91181  0.43521  0.24385  1.0000
  C   C389      1.0  0.54194  0.40694  0.49630  1.0000
  C   C390      1.0  0.74400  0.53089  0.11192  1.0000
  C   C391      1.0  0.75266  0.56145  0.11852  1.0000
  C   C392      1.0  0.77382  0.57764  0.14401  1.0000
  C   C393      1.0  0.78644  0.56340  0.16290  1.0000
  C   C394      1.0  0.77717  0.53262  0.15691  1.0000
  C   C395      1.0  0.75605  0.51646  0.13142  1.0000
  H   H395      1.0  0.74343  0.57271  0.10365  1.0000
  H   H396      1.0  0.78085  0.60144  0.14865  1.0000
  H   H397      1.0  0.78668  0.52144  0.17143  1.0000
  H   H398      1.0  0.74930  0.49277  0.12644  1.0000
  C   C396      1.0  0.74291  0.54813  0.39529  1.0000
  C   C397      1.0  0.74506  0.53969  0.36228  1.0000
  C   C398      1.0  0.77340  0.54585  0.34862  1.0000
  C   C399      1.0  0.80010  0.56088  0.36776  1.0000
  C   C400      1.0  0.79780  0.56839  0.40110  1.0000
  C   C401      1.0  0.76938  0.56195  0.41487  1.0000
  H   H399      1.0  0.72475  0.52903  0.34691  1.0000
  H   H400      1.0  0.77464  0.53990  0.32296  1.0000
  H   H401      1.0  0.81824  0.57995  0.41622  1.0000
  H   H402      1.0  0.76816  0.56870  0.44027  1.0000
  C   C402      1.0  0.62386  0.63760  0.13020  1.0000
  C   C403      1.0  0.62887  0.61258  0.13153  1.0000
  C   C404      1.0  0.64417  0.60681  0.10540  1.0000
  C   C405      1.0  0.65506  0.62629  0.07772  1.0000
  C   C406      1.0  0.65066  0.65170  0.07671  1.0000
  C   C407      1.0  0.80181  0.62010  0.33198  1.0000
  H   H403      1.0  0.62053  0.59735  0.15280  1.0000
  H   H404      1.0  0.64761  0.58735  0.10674  1.0000
  C   C408      1.0  0.98242  0.40972  0.42822  1.0000
  H   H405      1.0  0.97701  0.40271  0.48118  1.0000
  C   C409      1.0  0.53859  0.38476  0.44137  1.0000
  C   C410      1.0  0.56827  0.40902  0.43426  1.0000
  C   C411      1.0  0.58468  0.43228  0.45798  1.0000
  C   C412      1.0  0.87115  0.44197  0.20819  1.0000
  H   H406      1.0  0.95867  0.39301  0.42275  1.0000
  C   C413      1.0  0.52555  0.38371  0.47259  1.0000
  H   H407      1.0  0.82179  0.61095  0.08181  1.0000
  H   H408      1.0  0.80665  0.62110  0.25846  1.0000
  H   H409      1.0  0.79850  0.55635  0.06467  1.0000
  S   S145      1.0  0.68188  0.50103  0.49472  1.0000
  C   C414      1.0  0.88684  0.38691  0.25405  1.0000
  H   H410      1.0  0.81764  0.52414  0.08912  1.0000
  N   N34       1.0  0.86526  0.59143  0.12788  1.0000
  H   H411      1.0  0.80116  0.50634  0.33696  1.0000
  C   C415      1.0  0.73952  0.59924  0.33483  1.0000
  H   H412      1.0  0.56631  0.39494  0.03819  1.0000
  H   H413      1.0  0.86000  0.54677  0.13006  1.0000
  C   C416      1.0  0.75768  0.61358  0.36267  1.0000
  H   H414      1.0  0.65917  0.66705  0.05553  1.0000
  C   C417      1.0  0.85228  0.56120  0.11890  1.0000
  H   H415      1.0  0.87396  0.45661  0.39163  1.0000
  H   H416      1.0  0.74720  0.61528  0.38574  1.0000
  H   H417      1.0  0.82605  0.62750  0.33151  1.0000
  H   H418      1.0  0.82092  0.38645  0.20572  1.0000
  N   N35       1.0  0.57971  0.56485  0.06521  1.0000
  H   H419      1.0  0.78584  0.42651  0.34857  1.0000
  H   H420      1.0  0.84921  0.44209  0.20755  1.0000
  H   H421      1.0  0.56127  0.53670  0.10844  1.0000
  H   H422      1.0  0.57716  0.62931  0.04935  1.0000
  S   S146      1.0  0.60224  0.64205  0.16279  1.0000
  C   C418      1.0  0.57152  0.43134  0.48909  1.0000
  S   S147      1.0  0.72152  0.57659  0.02013  1.0000
  S   S148      1.0  0.54587  0.65635  0.21135  1.0000
  C   C419      1.0  0.79744  0.60065  0.27490  1.0000
  H   H423      1.0  0.55015  0.61537  0.10417  1.0000
  C   C420      1.0  0.56426  0.55663  0.09501  1.0000
  C   C421      1.0  0.83965  0.38669  0.21903  1.0000
  C   C422      1.0  0.85912  0.35948  0.25025  1.0000
  C   C423      1.0  0.83082  0.59707  0.09145  1.0000
  H   H424      1.0  0.90857  0.62757  0.14449  1.0000
  H   H425      1.0  0.59499  0.53243  0.06984  1.0000
  H   H426      1.0  0.54229  0.56897  0.13372  1.0000
  H   H427      1.0  0.88736  0.46244  0.22303  1.0000
  Fe  Fe71      1.0  0.58229  0.67361  0.17099  1.0000
  H   H428      1.0  0.99530  0.41948  0.37651  1.0000
  N   N36       1.0  0.86681  0.41359  0.22324  1.0000
  H   H429      1.0  0.57859  0.40998  0.41021  1.0000
  C   C424      1.0  0.75303  0.59549  0.30593  1.0000
  C   C425      1.0  0.99884  0.60466  0.19651  1.0000
  N   N37       1.0  0.81439  0.47487  0.35502  1.0000
  C   C426      1.0  0.84193  0.49832  0.36610  1.0000
  C   C427      1.0  0.80753  0.44504  0.35769  1.0000
  H   H430      1.0  0.80319  0.63457  0.38311  1.0000
  H   H431      1.0  0.88055  0.60736  0.17697  1.0000
  C   C428      1.0  0.81774  0.56639  0.08182  1.0000
  C   C429      1.0  0.79170  0.48135  0.34060  1.0000
  H   H432      1.0  0.86382  0.63275  0.12316  1.0000
  Fe  Fe72      1.0  0.87124  0.35534  0.34625  1.0000
  H   H433      1.0  0.53256  0.42751  0.38938  1.0000
  H   H434      1.0  0.90020  0.59010  0.15686  1.0000
  C   C430      1.0  0.83536  0.35926  0.23257  1.0000
  C   C431      1.0  0.99423  0.65129  0.16523  1.0000
  S   S149      1.0  0.58542  0.47752  0.00742  1.0000
  H   H435      1.0  0.78434  0.47015  0.31573  1.0000
  C   C432      1.0  0.82845  0.54828  0.09564  1.0000
  H   H436      1.0  0.77146  0.47284  0.35740  1.0000
  H   H437      1.0  0.60748  0.45094  0.45218  1.0000
  H   H438      1.0  0.57531  0.53013  0.03159  1.0000
  C   C433      1.0  0.88982  0.60470  0.15275  1.0000
  N   N38       1.0  0.78370  0.60535  0.30505  1.0000
  C   C434      1.0  0.99296  0.41521  0.46115  1.0000
  C   C435      1.0  0.53540  0.34813  0.02273  1.0000
  H   H439      1.0  0.61416  0.56093  0.03855  1.0000
  H   H440      1.0  0.73868  0.58389  0.28457  1.0000
  C   C436      1.0  0.89038  0.41390  0.24016  1.0000
  C   C437      1.0  0.78906  0.62429  0.36123  1.0000
  H   H441      1.0  0.88020  0.44436  0.18239  1.0000
  C   C438      1.0  0.98666  0.34635  0.46867  1.0000
  C   C439      1.0  0.63502  0.65727  0.10267  1.0000
  H   H442      1.0  0.78050  0.58024  0.26047  1.0000
  C   C440      1.0  0.85705  0.46181  0.38202  1.0000
  C   C441      1.0  0.86378  0.49217  0.37944  1.0000
  H   H443      1.0  0.59672  0.59714  0.02530  1.0000
  C   C442      1.0  0.55315  0.57453  0.10928  1.0000
  C   C443      1.0  0.54271  0.37624  0.03740  1.0000
  S   S150      1.0  0.51780  0.35744  0.40988  1.0000
  Fe  Fe73      1.0  0.63662  0.50988  0.01229  1.0000
  C   C444      1.0  0.97768  0.34462  0.40873  1.0000
  Fe  Fe74      1.0  0.51880  0.66633  0.17480  1.0000
  H   H444      1.0  0.52773  0.44352  0.44636  1.0000
  C   C445      1.0  0.57272  0.60846  0.06191  1.0000
  H   H445      1.0  0.55360  0.34532  0.01204  1.0000
  C   C446      1.0  0.55748  0.60061  0.09260  1.0000
  H   H446      1.0  0.52465  0.40254  0.06027  1.0000
  C   C447      1.0  0.00967  0.36181  0.40394  1.0000
  H   H447      1.0  0.00093  0.58677  0.20878  1.0000
  C   C448      1.0  0.51929  0.38048  0.04986  1.0000
  H   H448      1.0  0.55814  0.52909  0.50197  1.0000
  Fe  Fe75      1.0  0.69753  0.54906  0.97422  1.0000
  C   C449      1.0  0.00598  0.63489  0.65075  1.0000
  S   S151      1.0  0.71397  0.55417  0.91998  1.0000
  H   H449      1.0  0.58186  0.51277  0.50933  1.0000
  S   S152      1.0  0.66090  0.53096  0.55523  1.0000
  S   S153      1.0  0.65566  0.60510  0.52898  1.0000
  Fe  Fe76      1.0  0.70497  0.53529  0.53622  1.0000
  S   S154      1.0  0.73979  0.52706  0.56257  1.0000
  C   C450      1.0  0.58437  0.52624  0.60769  1.0000
  H   H450      1.0  0.67181  0.45612  0.89410  1.0000
  N   N39       1.0  0.57610  0.53602  0.55120  1.0000
  S   S155      1.0  0.65608  0.55376  0.98362  1.0000
  H   H451      1.0  0.90445  0.51251  0.74289  1.0000
  H   H452      1.0  0.55489  0.57359  0.60561  1.0000
  C   C451      1.0  0.85080  0.63101  0.85807  1.0000
  S   S156      1.0  0.85848  0.38874  0.84809  1.0000
  Fe  Fe77      1.0  0.84132  0.55246  0.80345  1.0000
  S   S157      1.0  0.80682  0.51821  0.76791  1.0000
  S   S158      1.0  0.83169  0.55503  0.85882  1.0000
  Fe  Fe78      1.0  0.89246  0.57959  0.74888  1.0000
  S   S159      1.0  0.86086  0.54777  0.70941  1.0000
  S   S160      1.0  0.94389  0.61374  0.74387  1.0000
  Fe  Fe79      1.0  0.82554  0.55748  0.73163  1.0000
  S   S161      1.0  0.79138  0.56818  0.70842  1.0000
  Fe  Fe80      1.0  0.84509  0.51150  0.74937  1.0000
  S   S162      1.0  0.83886  0.46523  0.73498  1.0000
  S   S163      1.0  0.85828  0.59231  0.76826  1.0000
  S   S164      1.0  0.87854  0.54270  0.78769  1.0000
  C   C452      1.0  0.97394  0.61608  0.64806  1.0000
  C   C453      1.0  0.95459  0.60958  0.67613  1.0000
  C   C454      1.0  0.96705  0.62210  0.70732  1.0000
  H   H453      1.0  0.96401  0.60636  0.62405  1.0000
  H   H454      1.0  0.93006  0.59496  0.67358  1.0000
  C   C455      1.0  0.85273  0.40921  0.81600  1.0000
  C   C456      1.0  0.84605  0.39824  0.78319  1.0000
  C   C457      1.0  0.84173  0.41551  0.75851  1.0000
  C   C458      1.0  0.84397  0.44374  0.76649  1.0000
  C   C459      1.0  0.85037  0.45449  0.79935  1.0000
  C   C460      1.0  0.85475  0.43731  0.82394  1.0000
  H   H455      1.0  0.84442  0.37660  0.77679  1.0000
  H   H456      1.0  0.83674  0.40699  0.73316  1.0000
  H   H457      1.0  0.85189  0.47601  0.80593  1.0000
  H   H458      1.0  0.85986  0.44595  0.84925  1.0000
  S   S165      1.0  0.60629  0.64101  0.65901  1.0000
  H   H459      1.0  0.61279  0.44236  0.98208  1.0000
  Fe  Fe81      1.0  0.57728  0.66414  0.66269  1.0000
  C   C461      1.0  0.99905  0.64112  0.70998  1.0000
  C   C462      1.0  0.81381  0.36892  0.91228  1.0000
  C   C463      1.0  0.75693  0.54311  0.60122  1.0000
  C   C464      1.0  0.78114  0.53930  0.61219  1.0000
  C   C465      1.0  0.79282  0.54804  0.64464  1.0000
  C   C466      1.0  0.78032  0.56068  0.66626  1.0000
  C   C467      1.0  0.75689  0.56556  0.65489  1.0000
  C   C468      1.0  0.74518  0.55678  0.62243  1.0000
  H   H460      1.0  0.79036  0.52884  0.59576  1.0000
  H   H461      1.0  0.81103  0.54446  0.65310  1.0000
  H   H462      1.0  0.74724  0.57545  0.67155  1.0000
  H   H463      1.0  0.72652  0.55976  0.61417  1.0000
  C   C469      1.0  0.74640  0.55333  0.90370  1.0000
  C   C470      1.0  0.76814  0.55240  0.92431  1.0000
  C   C471      1.0  0.79386  0.55248  0.91017  1.0000
  C   C472      1.0  0.79796  0.55310  0.87534  1.0000
  C   C473      1.0  0.77599  0.55361  0.85473  1.0000
  C   C474      1.0  0.75048  0.55387  0.86887  1.0000
  H   H464      1.0  0.76535  0.55199  0.95113  1.0000
  H   H465      1.0  0.81071  0.55214  0.92636  1.0000
  H   H466      1.0  0.77886  0.55424  0.82791  1.0000
  H   H467      1.0  0.73390  0.55472  0.85266  1.0000
  C   C475      1.0  0.61824  0.62965  0.62243  1.0000
  C   C476      1.0  0.63554  0.61503  0.62580  1.0000
  C   C477      1.0  0.64632  0.60643  0.59752  1.0000
  C   C478      1.0  0.64042  0.61290  0.56545  1.0000
  C   C479      1.0  0.62295  0.62736  0.56205  1.0000
  C   C480      1.0  0.61163  0.63539  0.59031  1.0000
  H   H468      1.0  0.64088  0.61054  0.65049  1.0000
  H   H469      1.0  0.65992  0.59556  0.60059  1.0000
  H   H470      1.0  0.61833  0.63258  0.53737  1.0000
  C   C481      1.0  0.57825  0.45784  0.90366  1.0000
  C   C482      1.0  0.54413  0.38564  0.95163  1.0000
  C   C483      1.0  0.57552  0.40178  0.95930  1.0000
  C   C484      1.0  0.58859  0.43003  0.97640  1.0000
  Fe  Fe82      1.0  0.51200  0.65241  0.66055  1.0000
  C   C485      1.0  0.92192  0.63685  0.82125  1.0000
  C   C486      1.0  0.52582  0.39778  0.96147  1.0000
  C   C487      1.0  0.91950  0.51101  0.69289  1.0000
  H   H471      1.0  0.68152  0.48566  0.92460  1.0000
  H   H472      1.0  0.59692  0.50136  0.92919  1.0000
  C   C488      1.0  0.53880  0.42585  0.97880  1.0000
  H   H473      1.0  0.65027  0.51219  0.92565  1.0000
  H   H474      1.0  0.55850  0.56619  0.54495  1.0000
  C   C489      1.0  0.67017  0.47675  0.90009  1.0000
  N   N40       1.0  0.75721  0.47336  0.67296  1.0000
  C   C490      1.0  0.74402  0.48657  0.69143  1.0000
  C   C491      1.0  0.74846  0.46464  0.64061  1.0000
  C   C492      1.0  0.72082  0.49052  0.67788  1.0000
  C   C493      1.0  0.72539  0.46836  0.62624  1.0000
  C   C494      1.0  0.71149  0.48134  0.64507  1.0000
  C   C495      1.0  0.78251  0.47079  0.68704  1.0000
  H   H475      1.0  0.75220  0.49523  0.71635  1.0000
  H   H476      1.0  0.75986  0.45552  0.62542  1.0000
  H   H477      1.0  0.71137  0.50217  0.69215  1.0000
  H   H478      1.0  0.71938  0.46274  0.60014  1.0000
  H   H479      1.0  0.69468  0.48572  0.63360  1.0000
  H   H480      1.0  0.77966  0.46674  0.71442  1.0000
  H   H481      1.0  0.78379  0.45122  0.67599  1.0000
  H   H482      1.0  0.80456  0.49226  0.68231  1.0000
  H   H483      1.0  0.82180  0.39146  0.90162  1.0000
  C   C496      1.0  0.92925  0.65899  0.79664  1.0000
  S   S166      1.0  0.59067  0.46062  0.51918  1.0000
  C   C497      1.0  0.57892  0.53271  0.51519  1.0000
  H   H484      1.0  0.62016  0.42637  0.87721  1.0000
  H   H485      1.0  0.52443  0.43508  0.98626  1.0000
  H   H486      1.0  0.68319  0.49470  0.88101  1.0000
  C   C498      1.0  0.56305  0.55861  0.59671  1.0000
  N   N41       1.0  0.87848  0.64126  0.83771  1.0000
  H   H487      1.0  0.58981  0.39246  0.95181  1.0000
  H   H488      1.0  0.56653  0.41497  0.87964  1.0000
  C   C499      1.0  0.89628  0.62817  0.84170  1.0000
  H   H489      1.0  0.94874  0.66546  0.78019  1.0000
  H   H490      1.0  0.84814  0.65071  0.86582  1.0000
  C   C500      1.0  0.56511  0.55429  0.56247  1.0000
  H   H491      1.0  0.98923  0.56859  0.63142  1.0000
  H   H492      1.0  0.59254  0.51559  0.62505  1.0000
  C   C501      1.0  0.92323  0.52298  0.72506  1.0000
  H   H493      1.0  0.53164  0.40603  0.52034  1.0000
  H   H494      1.0  0.93555  0.62587  0.82372  1.0000
  H   H495      1.0  0.93691  0.35710  0.92219  1.0000
  H   H496      1.0  0.55468  0.45260  0.90569  1.0000
  C   C502      1.0  0.00938  0.37856  0.94927  1.0000
  C   C503      1.0  0.82741  0.36659  0.94155  1.0000
  Fe  Fe83      1.0  0.63900  0.50047  0.51054  1.0000
  C   C504      1.0  0.94393  0.52473  0.67014  1.0000
  S   S167      1.0  0.54017  0.64977  0.70177  1.0000
  H   H497      1.0  0.57241  0.54871  0.64597  1.0000
  C   C505      1.0  0.98066  0.37670  0.94744  1.0000
  S   S168      1.0  0.52867  0.35059  0.92962  1.0000
  C   C506      1.0  0.58571  0.52209  0.57330  1.0000
  H   H498      1.0  0.89032  0.61039  0.86022  1.0000
  H   H499      1.0  0.95391  0.55857  0.75876  1.0000
  H   H500      1.0  0.59467  0.50780  0.56440  1.0000
  H   H501      1.0  0.59840  0.64665  0.58727  1.0000
  H   H502      1.0  0.79270  0.34403  0.84361  1.0000
  C   C507      1.0  0.57295  0.54464  0.61940  1.0000
  N   N42       1.0  0.63834  0.46992  0.90142  1.0000
  C   C508      1.0  0.63201  0.49093  0.91532  1.0000
  C   C509      1.0  0.61530  0.44317  0.88811  1.0000
  C   C510      1.0  0.60191  0.48515  0.91689  1.0000
  C   C511      1.0  0.58493  0.43673  0.88903  1.0000
  H   H503      1.0  0.97511  0.38941  0.96517  1.0000
  H   H504      1.0  0.89773  0.49123  0.68579  1.0000
  C   C512      1.0  0.57020  0.44214  0.98617  1.0000
  Fe  Fe84      1.0  0.67118  0.56985  0.52044  1.0000
  C   C513      1.0  0.99421  0.34328  0.90193  1.0000
  H   H505      1.0  0.85139  0.61916  0.88115  1.0000
  C   C514      1.0  0.95110  0.54851  0.73409  1.0000
  C   C515      1.0  0.95888  0.35833  0.92306  1.0000
  C   C516      1.0  0.91080  0.67194  0.79250  1.0000
  H   H506      1.0  0.94088  0.51538  0.64511  1.0000
  H   H507      1.0  0.83035  0.61449  0.84352  1.0000
  S   S169      1.0  0.71757  0.57696  0.50455  1.0000
  S   S170      1.0  0.54794  0.66371  0.62080  1.0000
  H   H508      1.0  0.87052  0.67220  0.80936  1.0000
  C   C517      1.0  0.88524  0.66264  0.81327  1.0000
  H   H509      1.0  0.84553  0.38707  0.95334  1.0000
  C   C518      1.0  0.97511  0.56152  0.71084  1.0000
  N   N43       1.0  0.97129  0.54965  0.67927  1.0000
  H   H510      1.0  0.78058  0.36850  0.86244  1.0000
  S   S171      1.0  0.67599  0.50312  0.99941  1.0000
  H   H511      1.0  0.00901  0.65095  0.73394  1.0000
  C   C519      1.0  0.99668  0.56303  0.65513  1.0000
  C   C520      1.0  0.77925  0.34591  0.86459  1.0000
  H   H512      1.0  0.00495  0.54681  0.64990  1.0000
  N   N44       1.0  0.79181  0.34314  0.89641  1.0000
  Fe  Fe85      1.0  0.85512  0.34240  0.84168  1.0000
  H   H513      1.0  0.99656  0.58160  0.71801  1.0000
  H   H514      1.0  0.59924  0.55375  0.50533  1.0000
  Fe  Fe86      1.0  0.57538  0.88989  0.44585  1.0000
  S   S172      1.0  0.53235  0.86757  0.47678  1.0000
  S   S173      1.0  0.61763  0.93654  0.45718  1.0000
  Fe  Fe87      1.0  0.54624  0.84140  0.38954  1.0000
  H   H515      1.0  0.55756  0.93487  0.45194  1.0000
  S   S174      1.0  0.54769  0.82606  0.33614  1.0000
  H   H516      1.0  0.52860  0.94547  0.44721  1.0000
  Fe  Fe88      1.0  0.52965  0.82309  0.46211  1.0000
  H   H517      1.0  0.53343  0.77501  0.41467  1.0000
  S   S175      1.0  0.55102  0.88779  0.39825  1.0000
  S   S176      1.0  0.57469  0.84540  0.43433  1.0000
  Fe  Fe89      1.0  0.57349  0.72833  0.15631  1.0000
  S   S177      1.0  0.60508  0.72225  0.19075  1.0000
  S   S178      1.0  0.58632  0.77483  0.13503  1.0000
  N   N45       1.0  0.61305  0.81523  0.23849  1.0000
  Fe  Fe90      1.0  0.56603  0.70572  0.22750  1.0000
  S   S179      1.0  0.57424  0.72285  0.28143  1.0000
  C   C521      1.0  0.54704  0.94735  0.46373  1.0000
  H   H518      1.0  0.62233  0.77830  0.24170  1.0000
  S   S180      1.0  0.53575  0.71391  0.19404  1.0000
  H   H519      1.0  0.63359  0.81476  0.28468  1.0000
  C   C522      1.0  0.55433  0.79653  0.32226  1.0000
  C   C523      1.0  0.54547  0.78499  0.28973  1.0000
  C   C524      1.0  0.55143  0.76248  0.27692  1.0000
  C   C525      1.0  0.56653  0.75139  0.29646  1.0000
  C   C526      1.0  0.57550  0.76301  0.32899  1.0000
  C   C527      1.0  0.56936  0.78542  0.34192  1.0000
  C   C528      1.0  0.59897  0.82762  0.22065  1.0000
  H   H520      1.0  0.54430  0.75374  0.25194  1.0000
  H   H521      1.0  0.58728  0.75462  0.34427  1.0000
  H   H522      1.0  0.57671  0.79446  0.36682  1.0000
  C   C529      1.0  0.63261  0.96219  0.01600  1.0000
  C   C530      1.0  0.58275  0.81001  0.04554  1.0000
  C   C531      1.0  0.58615  0.80643  0.07976  1.0000
  C   C532      1.0  0.58358  0.77913  0.09180  1.0000
  C   C533      1.0  0.57806  0.75557  0.06942  1.0000
  C   C534      1.0  0.57508  0.75932  0.03519  1.0000
  C   C535      1.0  0.59314  0.84945  0.23525  1.0000
  H   H523      1.0  0.58452  0.83101  0.03648  1.0000
  H   H524      1.0  0.57633  0.73459  0.07844  1.0000
  H   H525      1.0  0.59683  0.87482  0.28026  1.0000
  H   H526      1.0  0.51528  0.68426  0.33947  1.0000
  H   H527      1.0  0.59736  0.77519  0.20880  1.0000
  C   C536      1.0  0.64835  0.98386  0.04163  1.0000
  H   H528      1.0  0.63774  0.80267  0.20522  1.0000
  H   H529      1.0  0.66491  0.99846  0.47131  1.0000
  H   H530      1.0  0.59171  0.82019  0.19514  1.0000
  H   H531      1.0  0.66000  0.97858  0.06073  1.0000
  H   H532      1.0  0.62378  0.85331  0.31154  1.0000
  N   N46       1.0  0.57018  0.97968  0.46928  1.0000
  H   H533      1.0  0.58126  0.85869  0.22139  1.0000
  C   C537      1.0  0.62315  0.96115  0.49172  1.0000
  C   C538      1.0  0.57714  0.78640  0.02319  1.0000
  H   H534      1.0  0.53672  0.93538  0.48762  1.0000
  C   C539      1.0  0.64856  0.99120  0.49166  1.0000
  C   C540      1.0  0.62270  0.82482  0.27043  1.0000
  H   H535      1.0  0.53399  0.79358  0.27429  1.0000
  C   C541      1.0  0.61739  0.84671  0.28571  1.0000
  C   C542      1.0  0.60219  0.85879  0.26810  1.0000
  H   H536      1.0  0.51388  0.80511  0.07856  1.0000
  H   H537      1.0  0.52683  0.70905  0.39518  1.0000
  C   C543      1.0  0.61807  0.79182  0.22286  1.0000
  H   H538      1.0  0.59055  0.82480  0.09696  1.0000
  H   H539      1.0  0.63243  0.94067  0.01549  1.0000
  S   S181      1.0  0.55376  0.68122  0.13347  1.0000
  H   H540      1.0  0.57094  0.74106  0.01795  1.0000
  H   H541      1.0  0.52179  0.72298  0.12257  1.0000
  C   C544      1.0  0.59351  0.99455  0.44669  1.0000
  H   H542      1.0  0.59559  0.98221  0.42550  1.0000
  H   H543      1.0  0.51977  0.73910  0.43619  1.0000
  C   C545      1.0  0.51431  0.71455  0.37733  1.0000
  C   C546      1.0  0.51371  0.75128  0.41744  1.0000
  H   H544      1.0  0.51334  0.76701  0.11779  1.0000
  C   C547      1.0  0.56807  0.99496  0.49657  1.0000
  H   H545      1.0  0.63155  0.67670  0.10135  1.0000
  Fe  Fe91      1.0  0.57987  0.89263  0.94415  1.0000
  S   S182      1.0  0.54505  0.85465  0.97734  1.0000
  S   S183      1.0  0.60135  0.94440  0.95505  1.0000
  Fe  Fe92      1.0  0.56836  0.84663  0.88563  1.0000
  S   S184      1.0  0.53319  0.80725  0.91525  1.0000
  S   S185      1.0  0.57777  0.83903  0.83143  1.0000
  Fe  Fe93      1.0  0.51579  0.83829  0.93124  1.0000
  Fe  Fe94      1.0  0.56600  0.82725  0.95792  1.0000
  C   C548      1.0  0.65856  0.71284  0.62171  1.0000
  S   S186      1.0  0.54900  0.87691  0.89880  1.0000
  S   S187      1.0  0.60280  0.86601  0.92740  1.0000
  Fe  Fe95      1.0  0.56496  0.71284  0.63522  1.0000
  S   S188      1.0  0.59662  0.71416  0.67550  1.0000
  S   S189      1.0  0.58735  0.75172  0.59784  1.0000
  H   H546      1.0  0.59361  0.75837  0.92346  1.0000
  Fe  Fe96      1.0  0.55647  0.70000  0.71034  1.0000
  S   S190      1.0  0.55444  0.71348  0.76485  1.0000
  C   C549      1.0  0.62791  0.82042  0.87235  1.0000
  H   H547      1.0  0.65570  0.71282  0.64859  1.0000
  H   H548      1.0  0.68495  0.69016  0.62374  1.0000
  H   H549      1.0  0.61360  0.81426  0.92411  1.0000
  C   C550      1.0  0.56770  0.80313  0.81237  1.0000
  C   C551      1.0  0.57458  0.80240  0.77838  1.0000
  C   C552      1.0  0.56972  0.77501  0.76306  1.0000
  C   C553      1.0  0.55785  0.74790  0.78159  1.0000
  C   C554      1.0  0.55002  0.74841  0.81530  1.0000
  C   C555      1.0  0.55481  0.77578  0.83059  1.0000
  H   H550      1.0  0.58442  0.82334  0.76391  1.0000
  H   H551      1.0  0.57582  0.77507  0.73710  1.0000
  H   H552      1.0  0.54076  0.72762  0.82992  1.0000
  H   H553      1.0  0.54940  0.77584  0.85674  1.0000
  H   H554      1.0  0.63766  0.84326  0.81145  1.0000
  H   H555      1.0  0.63538  0.81083  0.79071  1.0000
  C   C556      1.0  0.53382  0.74025  0.56674  1.0000
  C   C557      1.0  0.56551  0.75963  0.56956  1.0000
  C   C558      1.0  0.58042  0.78569  0.54902  1.0000
  H   H556      1.0  0.52210  0.72010  0.58236  1.0000
  S   S191      1.0  0.52612  0.70180  0.67080  1.0000
  C   C559      1.0  0.61948  0.77567  0.84330  1.0000
  H   H557      1.0  0.60491  0.80086  0.55113  1.0000
  C   C560      1.0  0.61514  0.80329  0.90142  1.0000
  H   H558      1.0  0.66909  0.83589  0.81497  1.0000
  C   C561      1.0  0.60404  0.77179  0.90107  1.0000
  C   C562      1.0  0.60675  0.97290  0.54430  1.0000
  C   C563      1.0  0.60625  0.75781  0.87187  1.0000
  H   H559      1.0  0.59052  0.96562  0.56477  1.0000
  C   C564      1.0  0.61896  0.99726  0.99167  1.0000
  C   C565      1.0  0.64379  0.82503  0.81376  1.0000
  H   H560      1.0  0.62059  0.76452  0.82052  1.0000
  H   H561      1.0  0.52996  0.85667  0.82262  1.0000
  H   H562      1.0  0.63739  0.75819  0.55377  1.0000
  H   H563      1.0  0.63582  0.84481  0.87264  1.0000
  H   H564      1.0  0.66445  0.70890  0.52602  1.0000
  N   N47       1.0  0.62970  0.80649  0.84371  1.0000
  C   C566      1.0  0.66311  0.71059  0.55289  1.0000
  H   H565      1.0  0.59742  0.73326  0.87116  1.0000
  N   N48       1.0  0.64725  0.72330  0.56684  1.0000
  H   H566      1.0  0.63824  0.73608  0.51898  1.0000
  C   C567      1.0  0.61812  0.96891  0.99051  1.0000
  C   C568      1.0  0.53207  0.77313  0.52320  1.0000
  S   S192      1.0  0.57171  0.78926  0.98026  1.0000
  C   C569      1.0  0.67744  0.69905  0.57312  1.0000
  H   H567      1.0  0.63188  0.73416  0.61172  1.0000
  C   C570      1.0  0.56377  0.79251  0.52600  1.0000
  H   H568      1.0  0.68931  0.68823  0.56204  1.0000
  C   C571      1.0  0.63165  0.73475  0.54566  1.0000
  C   C572      1.0  0.64482  0.72447  0.60076  1.0000
  C   C573      1.0  0.67504  0.70015  0.60775  1.0000
  H   H569      1.0  0.60639  0.71951  0.54795  1.0000
  C   C574      1.0  0.51722  0.74695  0.54355  1.0000
  H   H570      1.0  0.57544  0.81276  0.51052  1.0000
  H   H571      1.0  0.60776  0.00273  0.97223  1.0000
  C   C575      1.0  0.63170  0.00323  0.54376  1.0000
  C   C576      1.0  0.60236  0.95203  0.51838  1.0000
  H   H572      1.0  0.58294  0.92891  0.51906  1.0000
  H   H573      1.0  0.54991  0.98310  0.51479  1.0000
  H   H574      1.0  0.51175  0.80715  0.84303  1.0000
  H   H575      1.0  0.91588  0.68853  0.77280  1.0000
  H   H576      1.0  0.52127  0.89621  0.79739  1.0000
