data_image0
_chemical_formula_structural       SCSHFeH2CFeSFeS2FeSFeS3FeS2FeSHFeSFeSHSC6H4C6H4C7H4CHC2HCH2CHC3H3NHC3H2SH4C3H6C5HC2SC2SC2H2CSHNC4HC2NHCHSH8CH2NH3FeCH4SNHC3FeCFeSFeS2FeSFeS3FeS2FeSH2SFeSCSC6H4C6H4C6H3CH2SFe2H4CH2SC2HSCNC5H2CH3CH3C2HNC3HSHCH2C3HC5H2SHC2SCHCH3NHNSH2C2HCH5C2HFeS2H2SFeSFeHS2FeSFeS2FeSFeS3HSHFeSCFeSHSHNCHCH2C7H6CH3CH2C6H4C6H3C2NH2C3FeCH2C3HNC6FeH2SH3CHC2NC2HCHC2H3CH3SHSFeH2FeS2H2SFeCFeHS2FeSFeS2FeSFeS3HSH2SHFeSHSCH2CH2C8H5CNC5HC6H4C6H5FeCFeHSHCH2CNH3NC3HFeHSHCFeH3NSH2CHCHCH3C7HCSHCNCH2C2H4CHSHCHC2HCHCHCH2SC4SFeSHS3FeS2FeS2FeSFeS3HC6H4C6H5C4H5CNHC3HCH3CSCHCH2CHC6HNH2CHCH3C2SFeNCNHC3H2CHC2HCHCHCH2CSHNC2H2C4HCH2CHCHCHSCHCH4CSCFeHCSC3H5S2H3C2FeS5FeS2FeS2FeSFeS3HC6H4C6H4C6H3SC5H3CFeHCNHC2HC2SC7H4NH2CHNC6H5C2NHC2NC6H3C2H6C2HCSCH6SH3CHC4H2FeSHCHC3FeH2CHSHCSHFeS2FeHFeS3CSHFeSC2FeH2SC2HCH2FeHC6H4SH2CHC3H3C2HC4H2SH3C4HCHCFeC2NHFeHCNHSC2H2CHCNCH4NCSC3HFeC2FeS2FeHFeS3CS2FeSCHFeCH3FeSHCHCSC6H4C2H2CH2CH2CH2CSH2CH5C2HCHNC2SNC4H2CHCFeHC4SHSFeSCFeSNSCSHSHFeCSCHC6H5C2H3C3HNCHFeNHCFeC2HCFeCHFeHCHSCHSCH3NCH4CHCSH2C2H3C2SFeSHFeSNSCSHSHCFeSH2C6H4CSCFe2CHFeH5C2H2C2HCHC3NCHCH6CH3C2H2CNH2SHSH2SC2HCFeS2FeS2FeSFeS3CSHSFeSHSHFeHCSCHC4H2CHC3H7C4HFeCH3C6H4C6H3SH5NH2C3H3C4H2NC6HCSH2CH3C2HCHCHSNCNC2HC2HC3NH2CH3CH5C2HSC2H2SH4SC3H2FeS2FeS2FeSFeS3HSCSFeSHSH2SCSC2HC4H3SCHCFeH2CH2NC4H4C7H4C6H3N2C5HC4HSH4CHCH2C2H4NH2C2H2NSCHNHCFeHC6HCFeH9CH2CHCHCHCHC2FeS2FeHFeS3FeS2HSFeSFeSCSCFeS2FeNFeHS2HC3FeCHCHCSC6H4C4HC8H4C6H4C2HCNH4SH3SHCH2CH2NCH4CH3C2H6CHCNH2CHC2SCNC3FeHFeC2HCH3SC2SH2SH2C2FeS2FeSFeS3FeS2NSFeSFeSCSFe2S2FeCFeHS2H6C3H2C6H4CHCSHCHC6H4C6H4C2H2NC6H3C5SCH3CFeCSH4FeCH2CHCHCH3NCS2NC2H2CH2C2H4CH3C5H2NHSHCH3CSC2NCHCHCH5SFeS2FeSFeS3FeS2FeCSFeSFeS3CH2C2HC4H3C6H4C6H5C3NC3H2C2SHFeCH4CH4SCHFeH2C3H2C3NCN2CHCHCHC4HC3HCH2CH2C3HC2HSH4CH3SC2HC2H5CFeS2FeSFeS3FeS2FeCHFeSFeHS2NCHCHC6H2C6H4C6H4C2H2CHCHC3HCNC2HCHSCHC2HCHCH6NC4H4CHCH3SFeC3HSCH3CSCNC3HSHCSCH2CHCH4NH3C2H2C2H3CHSCH2SCHC
_chemical_formula_sum              "S288 C864 H864 Fe144 N72"
_cell_length_a       56.4432
_cell_length_b       56.1832
_cell_length_c       48.0378
_cell_angle_alpha    89.8961
_cell_angle_beta     90.3574
_cell_angle_gamma    119.694

_space_group_name_H-M_alt    "P 1"
_space_group_IT_number       1

loop_
  _space_group_symop_operation_xyz
  'x, y, z'

loop_
  _atom_site_type_symbol
  _atom_site_label
  _atom_site_symmetry_multiplicity
  _atom_site_fract_x
  _atom_site_fract_y
  _atom_site_fract_z
  _atom_site_occupancy
  S   S1        1.0  0.24756  0.12421  0.41841  1.0000
  C   C1        1.0  0.22455  0.18590  0.39444  1.0000
  S   S2        1.0  0.05721  0.50247  0.36113  1.0000
  H   H1        1.0  0.24817  0.50567  0.30094  1.0000
  Fe  Fe1       1.0  0.24979  0.15278  0.45265  1.0000
  H   H2        1.0  0.03658  0.48565  0.99129  1.0000
  H   H3        1.0  0.05810  0.26125  0.03027  1.0000
  C   C2        1.0  0.18853  0.11037  0.38006  1.0000
  Fe  Fe2       1.0  0.24308  0.43768  0.28586  1.0000
  S   S3        1.0  0.23342  0.39449  0.27785  1.0000
  Fe  Fe3       1.0  0.18319  0.42287  0.27950  1.0000
  S   S4        1.0  0.16920  0.37825  0.27056  1.0000
  S   S5        1.0  0.15447  0.44051  0.27489  1.0000
  Fe  Fe4       1.0  0.19745  0.38259  0.30614  1.0000
  S   S6        1.0  0.18673  0.34765  0.33672  1.0000
  Fe  Fe5       1.0  0.20591  0.39318  0.24272  1.0000
  S   S7        1.0  0.21363  0.37932  0.20002  1.0000
  S   S8        1.0  0.20911  0.42614  0.31673  1.0000
  S   S9        1.0  0.21791  0.43745  0.24923  1.0000
  Fe  Fe6       1.0  0.17053  0.26631  0.01172  1.0000
  S   S10       1.0  0.18394  0.31048  0.02222  1.0000
  S   S11       1.0  0.20568  0.25698  0.00869  1.0000
  Fe  Fe7       1.0  0.11050  0.25146  0.00681  1.0000
  S   S12       1.0  0.11984  0.29426  0.01680  1.0000
  H   H4        1.0  0.20665  0.31093  0.47262  1.0000
  Fe  Fe8       1.0  0.26570  0.10776  0.44948  1.0000
  S   S13       1.0  0.15938  0.34434  0.46507  1.0000
  Fe  Fe9       1.0  0.14782  0.29435  0.05083  1.0000
  S   S14       1.0  0.14249  0.30891  0.09422  1.0000
  H   H5        1.0  0.23686  0.49931  0.26544  1.0000
  S   S15       1.0  0.13610  0.25023  0.04265  1.0000
  C   C3        1.0  0.19329  0.35964  0.17086  1.0000
  C   C4        1.0  0.20633  0.35590  0.14766  1.0000
  C   C5        1.0  0.19132  0.34059  0.12410  1.0000
  C   C6        1.0  0.16287  0.32869  0.12331  1.0000
  C   C7        1.0  0.14983  0.33241  0.14651  1.0000
  C   C8        1.0  0.16484  0.34773  0.17006  1.0000
  H   H6        1.0  0.22828  0.36492  0.14787  1.0000
  H   H7        1.0  0.20177  0.33801  0.10657  1.0000
  H   H8        1.0  0.12788  0.32342  0.14629  1.0000
  H   H9        1.0  0.15437  0.35031  0.18758  1.0000
  C   C9        1.0  0.17470  0.34619  0.37101  1.0000
  C   C10       1.0  0.16432  0.32146  0.38581  1.0000
  C   C11       1.0  0.15845  0.32031  0.41437  1.0000
  C   C12       1.0  0.16287  0.34394  0.42845  1.0000
  C   C13       1.0  0.17203  0.36840  0.41336  1.0000
  C   C14       1.0  0.17785  0.36954  0.38473  1.0000
  H   H10       1.0  0.16157  0.30324  0.37529  1.0000
  H   H11       1.0  0.15118  0.30131  0.42562  1.0000
  H   H12       1.0  0.17529  0.38673  0.42404  1.0000
  H   H13       1.0  0.18573  0.38869  0.37356  1.0000
  C   C15       1.0  0.10371  0.48413  0.41014  1.0000
  C   C16       1.0  0.12258  0.48547  0.30725  1.0000
  C   C17       1.0  0.12736  0.46761  0.29062  1.0000
  C   C18       1.0  0.14684  0.46010  0.29846  1.0000
  C   C19       1.0  0.16098  0.47005  0.32361  1.0000
  C   C20       1.0  0.15645  0.48816  0.34007  1.0000
  C   C21       1.0  0.06384  0.44287  0.39449  1.0000
  H   H14       1.0  0.22370  0.35848  0.45643  1.0000
  H   H15       1.0  0.17589  0.46433  0.33002  1.0000
  H   H16       1.0  0.12482  0.49971  0.40696  1.0000
  H   H17       1.0  0.24150  0.19165  0.40963  1.0000
  C   C22       1.0  0.03267  0.22773  0.46605  1.0000
  H   H18       1.0  0.18215  0.13682  0.40741  1.0000
  C   C23       1.0  0.10290  0.50945  0.45109  1.0000
  C   C24       1.0  0.22999  0.49874  0.28718  1.0000
  H   H19       1.0  0.24210  0.13188  0.33584  1.0000
  C   C25       1.0  0.02445  0.49558  0.98902  1.0000
  H   H20       1.0  0.10799  0.49153  0.30060  1.0000
  H   H21       1.0  0.25210  0.17642  0.35559  1.0000
  C   C26       1.0  0.04937  0.44493  0.41692  1.0000
  H   H22       1.0  0.22174  0.05506  0.99573  1.0000
  C   C27       1.0  0.21344  0.30231  0.40384  1.0000
  C   C28       1.0  0.23216  0.22884  0.99415  1.0000
  C   C29       1.0  0.08012  0.21409  0.09694  1.0000
  H   H23       1.0  0.14151  0.03645  0.99517  1.0000
  H   H24       1.0  0.23105  0.20205  0.37828  1.0000
  H   H25       1.0  0.05293  0.24197  0.45867  1.0000
  N   N1        1.0  0.05571  0.23794  0.06577  1.0000
  H   H26       1.0  0.10258  0.46132  0.37354  1.0000
  C   C30       1.0  0.07701  0.25378  0.08322  1.0000
  C   C31       1.0  0.23865  0.37781  0.40488  1.0000
  C   C32       1.0  0.08934  0.24206  0.09927  1.0000
  H   H27       1.0  0.23356  0.37886  0.38264  1.0000
  H   H28       1.0  0.22765  0.33444  0.37331  1.0000
  S   S16       1.0  0.06787  0.21429  0.00102  1.0000
  H   H29       1.0  0.08496  0.27575  0.08445  1.0000
  H   H30       1.0  0.17121  0.09182  0.38791  1.0000
  H   H31       1.0  0.10647  0.25482  0.11282  1.0000
  H   H32       1.0  0.22993  0.38844  0.41705  1.0000
  C   C33       1.0  0.23188  0.21092  0.47722  1.0000
  C   C34       1.0  0.18297  0.18309  0.47255  1.0000
  C   C35       1.0  0.17964  0.20513  0.48171  1.0000
  H   H33       1.0  0.26705  0.39759  0.22130  1.0000
  H   H34       1.0  0.03010  0.19799  0.04900  1.0000
  H   H35       1.0  0.09010  0.20497  0.10864  1.0000
  H   H36       1.0  0.02394  0.23581  0.03934  1.0000
  H   H37       1.0  0.25207  0.21336  0.47561  1.0000
  H   H38       1.0  0.20123  0.08910  0.35177  1.0000
  C   C36       1.0  0.20743  0.29563  0.43188  1.0000
  C   C37       1.0  0.22850  0.03392  0.46788  1.0000
  C   C38       1.0  0.23384  0.15800  0.36211  1.0000
  C   C39       1.0  0.20649  0.03485  0.47998  1.0000
  C   C40       1.0  0.19484  0.13593  0.39101  1.0000
  H   H39       1.0  0.20715  0.18518  0.40592  1.0000
  C   C41       1.0  0.02280  0.51078  0.46657  1.0000
  C   C42       1.0  0.05847  0.19810  0.07899  1.0000
  S   S17       1.0  0.26498  0.13382  0.48464  1.0000
  C   C43       1.0  0.04420  0.25100  0.04804  1.0000
  C   C44       1.0  0.06260  0.46668  0.43572  1.0000
  S   S18       1.0  0.21191  0.15725  0.45856  1.0000
  C   C45       1.0  0.22819  0.13280  0.35076  1.0000
  C   C46       1.0  0.20689  0.22815  0.99501  1.0000
  H   H40       1.0  0.02875  0.46459  0.21375  1.0000
  H   H41       1.0  0.05382  0.42628  0.37957  1.0000
  C   C47       1.0  0.13755  0.49630  0.33178  1.0000
  S   S19       1.0  0.25669  0.06340  0.45307  1.0000
  H   H42       1.0  0.11629  0.46000  0.27122  1.0000
  N   N2        1.0  0.22726  0.34932  0.41405  1.0000
  C   C48       1.0  0.22142  0.34293  0.44159  1.0000
  C   C49       1.0  0.22362  0.32948  0.39526  1.0000
  C   C50       1.0  0.21150  0.31605  0.45088  1.0000
  C   C51       1.0  0.09121  0.46250  0.39110  1.0000
  H   H43       1.0  0.20986  0.28652  0.38877  1.0000
  C   C52       1.0  0.20537  0.10885  0.35982  1.0000
  C   C53       1.0  0.04631  0.21040  0.06361  1.0000
  N   N3        1.0  0.21720  0.15934  0.38189  1.0000
  H   H44       1.0  0.25021  0.24661  0.00215  1.0000
  C   C54       1.0  0.20906  0.18576  0.47041  1.0000
  H   H45       1.0  0.16807  0.49634  0.35907  1.0000
  S   S20       1.0  0.13362  0.26466  0.47539  1.0000
  H   H46       1.0  0.02851  0.16871  0.46218  1.0000
  H   H47       1.0  0.16515  0.16373  0.46736  1.0000
  H   H48       1.0  0.04159  0.26646  0.05995  1.0000
  H   H49       1.0  0.05159  0.17647  0.07635  1.0000
  H   H50       1.0  0.15943  0.20262  0.48347  1.0000
  H   H51       1.0  0.26115  0.38892  0.40746  1.0000
  H   H52       1.0  0.19940  0.27466  0.43899  1.0000
  H   H53       1.0  0.05103  0.46839  0.45280  1.0000
  C   C55       1.0  0.21582  0.03437  0.98940  1.0000
  H   H54       1.0  0.20611  0.05391  0.48028  1.0000
  H   H55       1.0  0.19299  0.49940  0.25336  1.0000
  N   N4        1.0  0.08943  0.48597  0.43213  1.0000
  H   H56       1.0  0.02795  0.43010  0.41956  1.0000
  H   H57       1.0  0.21501  0.47721  0.29252  1.0000
  H   H58       1.0  0.25849  0.43319  0.20959  1.0000
  Fe  Fe10      1.0  0.15535  0.30727  0.98770  1.0000
  C   C56       1.0  0.03759  0.21229  0.98709  1.0000
  H   H59       1.0  0.19088  0.01564  0.02559  1.0000
  H   H60       1.0  0.09036  0.50682  0.46983  1.0000
  H   H61       1.0  0.16419  0.20422  0.98491  1.0000
  H   H62       1.0  0.12295  0.51238  0.45810  1.0000
  S   S21       1.0  0.24561  0.05706  0.94090  1.0000
  N   N5        1.0  0.14116  0.38479  0.86984  1.0000
  H   H63       1.0  0.12838  0.33200  0.82693  1.0000
  C   C57       1.0  0.14515  0.50416  0.82909  1.0000
  C   C58       1.0  0.23423  0.33116  0.89987  1.0000
  C   C59       1.0  0.18402  0.07918  0.94581  1.0000
  Fe  Fe11      1.0  0.14606  0.30659  0.49220  1.0000
  C   C60       1.0  0.20600  0.26255  0.93430  1.0000
  Fe  Fe12      1.0  0.24885  0.43709  0.78313  1.0000
  S   S22       1.0  0.23703  0.39465  0.76823  1.0000
  Fe  Fe13      1.0  0.18894  0.42395  0.78711  1.0000
  S   S23       1.0  0.17344  0.38072  0.77193  1.0000
  S   S24       1.0  0.15322  0.43096  0.79708  1.0000
  Fe  Fe14      1.0  0.20465  0.38089  0.80147  1.0000
  S   S25       1.0  0.19204  0.34348  0.82890  1.0000
  Fe  Fe15      1.0  0.20665  0.39783  0.73987  1.0000
  S   S26       1.0  0.20371  0.39194  0.69212  1.0000
  S   S27       1.0  0.21843  0.42307  0.81835  1.0000
  S   S28       1.0  0.22014  0.44131  0.75307  1.0000
  Fe  Fe16      1.0  0.16246  0.26417  0.50779  1.0000
  S   S29       1.0  0.17663  0.30717  0.52286  1.0000
  S   S30       1.0  0.21252  0.15469  0.95936  1.0000
  Fe  Fe17      1.0  0.10203  0.25004  0.50961  1.0000
  S   S31       1.0  0.11280  0.29220  0.52459  1.0000
  H   H64       1.0  0.10185  0.36066  0.70802  1.0000
  H   H65       1.0  0.22257  0.29040  0.88640  1.0000
  S   S32       1.0  0.16863  0.34347  0.95829  1.0000
  Fe  Fe18      1.0  0.14270  0.28935  0.55397  1.0000
  S   S33       1.0  0.14630  0.29527  0.60171  1.0000
  C   C61       1.0  0.14249  0.39327  0.69947  1.0000
  S   S34       1.0  0.13017  0.24612  0.54073  1.0000
  C   C62       1.0  0.18664  0.36473  0.66744  1.0000
  C   C63       1.0  0.16996  0.33742  0.67540  1.0000
  C   C64       1.0  0.15731  0.31667  0.65497  1.0000
  C   C65       1.0  0.16107  0.32281  0.62631  1.0000
  C   C66       1.0  0.17742  0.35019  0.61836  1.0000
  C   C67       1.0  0.19010  0.37094  0.63878  1.0000
  H   H66       1.0  0.16695  0.33221  0.69727  1.0000
  H   H67       1.0  0.14468  0.29561  0.66145  1.0000
  H   H68       1.0  0.18053  0.35535  0.59648  1.0000
  H   H69       1.0  0.20281  0.39198  0.63228  1.0000
  C   C68       1.0  0.18601  0.34377  0.86496  1.0000
  C   C69       1.0  0.17335  0.31889  0.87967  1.0000
  C   C70       1.0  0.16797  0.31838  0.90834  1.0000
  C   C71       1.0  0.17530  0.34283  0.92249  1.0000
  C   C72       1.0  0.18809  0.36769  0.90781  1.0000
  C   C73       1.0  0.19344  0.36819  0.87919  1.0000
  H   H70       1.0  0.16751  0.29990  0.86879  1.0000
  H   H71       1.0  0.15803  0.29911  0.91942  1.0000
  H   H72       1.0  0.19390  0.38669  0.91865  1.0000
  H   H73       1.0  0.20337  0.38746  0.86820  1.0000
  C   C74       1.0  0.18591  0.18290  0.97357  1.0000
  C   C75       1.0  0.12212  0.47910  0.82244  1.0000
  C   C76       1.0  0.12509  0.45704  0.81268  1.0000
  C   C77       1.0  0.15105  0.45971  0.80936  1.0000
  C   C78       1.0  0.17412  0.48475  0.81593  1.0000
  C   C79       1.0  0.22776  0.33600  0.94869  1.0000
  H   H74       1.0  0.19897  0.25067  0.91460  1.0000
  H   H75       1.0  0.10706  0.43778  0.80771  1.0000
  H   H76       1.0  0.19424  0.48716  0.81353  1.0000
  C   C80       1.0  0.17114  0.50681  0.82576  1.0000
  H   H77       1.0  0.16784  0.16508  0.96570  1.0000
  H   H78       1.0  0.19542  0.47153  0.71616  1.0000
  S   S35       1.0  0.06132  0.50047  0.85842  1.0000
  Fe  Fe19      1.0  0.25005  0.14983  0.95271  1.0000
  Fe  Fe20      1.0  0.26305  0.10338  0.94553  1.0000
  H   H79       1.0  0.13735  0.41954  0.85997  1.0000
  H   H80       1.0  0.15862  0.42394  0.89006  1.0000
  H   H81       1.0  0.18038  0.46810  0.74981  1.0000
  H   H82       1.0  0.16800  0.47888  0.72030  1.0000
  C   C81       1.0  0.17264  0.03236  0.93748  1.0000
  H   H83       1.0  0.14696  0.38216  0.82639  1.0000
  H   H84       1.0  0.13307  0.38155  0.91351  1.0000
  S   S36       1.0  0.19965  0.25874  0.50073  1.0000
  C   C82       1.0  0.22527  0.02991  0.96417  1.0000
  C   C83       1.0  0.02611  0.50973  0.96417  1.0000
  H   H85       1.0  0.22096  0.31576  0.56399  1.0000
  S   S37       1.0  0.04654  0.50876  0.93624  1.0000
  C   C84       1.0  0.16784  0.07072  0.96955  1.0000
  N   N6        1.0  0.20376  0.29153  0.60036  1.0000
  C   C85       1.0  0.21927  0.31561  0.58647  1.0000
  C   C86       1.0  0.20138  0.29141  0.62870  1.0000
  C   C87       1.0  0.21474  0.31585  0.64390  1.0000
  C   C88       1.0  0.23036  0.34053  0.62990  1.0000
  C   C89       1.0  0.18928  0.26556  0.58508  1.0000
  H   H86       1.0  0.18833  0.27243  0.63956  1.0000
  H   H87       1.0  0.21204  0.31582  0.66625  1.0000
  C   C90       1.0  0.15414  0.04292  0.97673  1.0000
  H   H88       1.0  0.16710  0.25546  0.58969  1.0000
  H   H89       1.0  0.19158  0.26853  0.56215  1.0000
  H   H90       1.0  0.19717  0.25171  0.59121  1.0000
  C   C91       1.0  0.21115  0.18351  0.97288  1.0000
  H   H91       1.0  0.09088  0.38971  0.73856  1.0000
  H   H92       1.0  0.18185  0.42906  0.69539  1.0000
  H   H93       1.0  0.22244  0.25960  0.94363  1.0000
  C   C92       1.0  0.13034  0.42570  0.73321  1.0000
  C   C93       1.0  0.17588  0.46518  0.72709  1.0000
  H   H94       1.0  0.12562  0.43813  0.74689  1.0000
  N   N7        1.0  0.15558  0.43651  0.72139  1.0000
  C   C94       1.0  0.23268  0.34047  0.60099  1.0000
  C   C95       1.0  0.13159  0.37077  0.89430  1.0000
  C   C96       1.0  0.11065  0.39828  0.72867  1.0000
  H   H95       1.0  0.23989  0.35972  0.64137  1.0000
  S   S38       1.0  0.14430  0.26443  0.97534  1.0000
  H   H96       1.0  0.14758  0.38076  0.68632  1.0000
  C   C97       1.0  0.18660  0.05996  0.92972  1.0000
  H   H97       1.0  0.19982  0.06645  0.91168  1.0000
  H   H98       1.0  0.11126  0.30626  0.87127  1.0000
  C   C98       1.0  0.16180  0.42069  0.70466  1.0000
  C   C99       1.0  0.22855  0.23296  0.48637  1.0000
  C   C100      1.0  0.23598  0.34764  0.92237  1.0000
  H   H99       1.0  0.23981  0.33990  0.87915  1.0000
  C   C101      1.0  0.12858  0.34263  0.84585  1.0000
  C   C102      1.0  0.12045  0.34230  0.89513  1.0000
  C   C103      1.0  0.21796  0.30794  0.95216  1.0000
  C   C104      1.0  0.15257  0.41458  0.86902  1.0000
  C   C105      1.0  0.02955  0.21326  0.49075  1.0000
  H   H100      1.0  0.10200  0.47670  0.82487  1.0000
  H   H101      1.0  0.17112  0.42431  0.85580  1.0000
  S   S39       1.0  0.26136  0.12633  0.98318  1.0000
  H   H102      1.0  0.11385  0.33138  0.91476  1.0000
  C   C106      1.0  0.11904  0.32821  0.87073  1.0000
  C   C107      1.0  0.13946  0.37106  0.84576  1.0000
  S   S40       1.0  0.05787  0.21447  0.50851  1.0000
  C   C108      1.0  0.22414  0.30311  0.90407  1.0000
  H   H103      1.0  0.17525  0.01771  0.92508  1.0000
  C   C109      1.0  0.11682  0.38200  0.71166  1.0000
  H   H104      1.0  0.26176  0.06998  0.51389  1.0000
  H   H105      1.0  0.18839  0.25369  0.94878  1.0000
  H   H106      1.0  0.24428  0.35961  0.58985  1.0000
  N   N8        1.0  0.21595  0.29183  0.92995  1.0000
  H   H107      1.0  0.24289  0.36923  0.91926  1.0000
  N   N9        1.0  0.15672  0.02417  0.96078  1.0000
  S   S41       1.0  0.24927  0.12502  0.91540  1.0000
  H   H108      1.0  0.19464  0.10064  0.94001  1.0000
  H   H109      1.0  0.24635  0.25226  0.49174  1.0000
  C   C110      1.0  0.20244  0.23020  0.48880  1.0000
  C   C111      1.0  0.03705  0.23520  0.97642  1.0000
  H   H110      1.0  0.05564  0.25479  0.97578  1.0000
  C   C112      1.0  0.02503  0.50081  0.49288  1.0000
  H   H111      1.0  0.25388  0.20753  0.98274  1.0000
  H   H112      1.0  0.21168  0.29908  0.97270  1.0000
  H   H113      1.0  0.22822  0.34843  0.96620  1.0000
  H   H114      1.0  0.04152  0.49667  0.49677  1.0000
  H   H115      1.0  0.16608  0.08577  0.98221  1.0000
  C   C113      1.0  0.23433  0.20672  0.98313  1.0000
  C   C114      1.0  0.18377  0.20509  0.98447  1.0000
  H   H116      1.0  0.26571  0.07197  0.56552  1.0000
  Fe  Fe21      1.0  0.14360  0.86430  0.05374  1.0000
  S   S42       1.0  0.11675  0.88178  0.04061  1.0000
  S   S43       1.0  0.14117  0.85348  0.10045  1.0000
  H   H117      1.0  0.13006  0.83995  0.15846  1.0000
  H   H118      1.0  0.07995  0.65215  0.31945  1.0000
  S   S44       1.0  0.18792  0.85648  0.46413  1.0000
  Fe  Fe22      1.0  0.15246  0.91163  0.01447  1.0000
  S   S45       1.0  0.16583  0.95723  0.01890  1.0000
  Fe  Fe23      1.0  0.10389  0.85351  0.00352  1.0000
  H   H119      1.0  0.08775  0.63293  0.23546  1.0000
  S   S46       1.0  0.17982  0.89562  0.02953  1.0000
  S   S47       1.0  0.12835  0.83406  0.01832  1.0000
  Fe  Fe24      1.0  0.24658  0.83371  0.29163  1.0000
  S   S48       1.0  0.22024  0.85152  0.27844  1.0000
  Fe  Fe25      1.0  0.19820  0.77458  0.28525  1.0000
  S   S49       1.0  0.16930  0.78906  0.27112  1.0000
  S   S50       1.0  0.18687  0.72938  0.28245  1.0000
  Fe  Fe26      1.0  0.20351  0.82001  0.24423  1.0000
  S   S51       1.0  0.20750  0.83169  0.19749  1.0000
  Fe  Fe27      1.0  0.18858  0.81966  0.30641  1.0000
  S   S52       1.0  0.16336  0.83089  0.33482  1.0000
  S   S53       1.0  0.23141  0.80359  0.25629  1.0000
  S   S54       1.0  0.21573  0.80360  0.32187  1.0000
  H   H120      1.0  0.09261  0.68193  0.25638  1.0000
  S   S55       1.0  0.09190  0.55691  0.32016  1.0000
  H   H121      1.0  0.13566  0.79439  0.46197  1.0000
  Fe  Fe28      1.0  0.05922  0.53132  0.39500  1.0000
  S   S56       1.0  0.10397  0.56023  0.38763  1.0000
  C   C115      1.0  0.07483  0.63729  0.30284  1.0000
  Fe  Fe29      1.0  0.09158  0.58211  0.35652  1.0000
  S   S57       1.0  0.10722  0.62826  0.35919  1.0000
  H   H122      1.0  0.08293  0.83656  0.44461  1.0000
  S   S58       1.0  0.04687  0.55487  0.36603  1.0000
  H   H123      1.0  0.14369  0.94424  0.07508  1.0000
  N   N10       1.0  0.21710  0.51571  0.29013  1.0000
  C   C116      1.0  0.07935  0.62648  0.25613  1.0000
  H   H124      1.0  0.20698  0.96583  0.47888  1.0000
  C   C117      1.0  0.12813  0.78777  0.41783  1.0000
  H   H125      1.0  0.26644  0.87453  0.19412  1.0000
  H   H126      1.0  0.05539  0.53643  0.20976  1.0000
  C   C118      1.0  0.10324  0.67459  0.27054  1.0000
  C   C119      1.0  0.16604  0.70184  0.30509  1.0000
  C   C120      1.0  0.15365  0.70550  0.32857  1.0000
  C   C121      1.0  0.13624  0.68281  0.34517  1.0000
  C   C122      1.0  0.13093  0.65620  0.33855  1.0000
  C   C123      1.0  0.14334  0.65251  0.31510  1.0000
  C   C124      1.0  0.16089  0.67524  0.29858  1.0000
  H   H127      1.0  0.15741  0.72579  0.33386  1.0000
  H   H128      1.0  0.12672  0.68589  0.36324  1.0000
  H   H129      1.0  0.13938  0.63218  0.30967  1.0000
  H   H130      1.0  0.17038  0.67218  0.28048  1.0000
  H   H131      1.0  0.05020  0.60317  0.32981  1.0000
  H   H132      1.0  0.10377  0.81217  0.46800  1.0000
  C   C125      1.0  0.20884  0.54699  0.31687  1.0000
  H   H133      1.0  0.10935  0.68743  0.28968  1.0000
  H   H134      1.0  0.03840  0.56844  0.29247  1.0000
  H   H135      1.0  0.12244  0.67805  0.26058  1.0000
  C   C126      1.0  0.19833  0.01194  0.00630  1.0000
  H   H136      1.0  0.08644  0.80362  0.38100  1.0000
  H   H137      1.0  0.11780  0.78532  0.37426  1.0000
  C   C127      1.0  0.18288  0.85210  0.42761  1.0000
  C   C128      1.0  0.19609  0.84057  0.41273  1.0000
  C   C129      1.0  0.19113  0.83496  0.38405  1.0000
  C   C130      1.0  0.17291  0.84087  0.36995  1.0000
  C   C131      1.0  0.16030  0.85315  0.38468  1.0000
  C   C132      1.0  0.16521  0.85872  0.41338  1.0000
  H   H138      1.0  0.20986  0.83545  0.42350  1.0000
  H   H139      1.0  0.20095  0.82548  0.37301  1.0000
  H   H140      1.0  0.14630  0.85796  0.37391  1.0000
  H   H141      1.0  0.15510  0.86785  0.42450  1.0000
  C   C133      1.0  0.15973  0.84677  0.12683  1.0000
  C   C134      1.0  0.18468  0.84793  0.12174  1.0000
  C   C135      1.0  0.19885  0.84328  0.14358  1.0000
  C   C136      1.0  0.18836  0.83728  0.17086  1.0000
  C   C137      1.0  0.16346  0.83622  0.17596  1.0000
  C   C138      1.0  0.14933  0.84096  0.15413  1.0000
  H   H142      1.0  0.19299  0.85216  0.10094  1.0000
  H   H143      1.0  0.21801  0.84408  0.13923  1.0000
  H   H144      1.0  0.15502  0.83165  0.19672  1.0000
  C   C139      1.0  0.02309  0.83664  0.99161  1.0000
  C   C140      1.0  0.03645  0.52745  0.22119  1.0000
  N   N11       1.0  0.08556  0.64543  0.27680  1.0000
  H   H145      1.0  0.05608  0.53267  0.26136  1.0000
  H   H146      1.0  0.07161  0.82861  0.40932  1.0000
  C   C141      1.0  0.05784  0.60952  0.30885  1.0000
  C   C142      1.0  0.20676  0.98496  0.47936  1.0000
  C   C143      1.0  0.19010  0.98482  0.99825  1.0000
  Fe  Fe30      1.0  0.10109  0.53277  0.35202  1.0000
  C   C144      1.0  0.05148  0.59005  0.28796  1.0000
  H   H147      1.0  0.14262  0.78062  0.41485  1.0000
  H   H148      1.0  0.11548  0.92480  0.11752  1.0000
  C   C145      1.0  0.03691  0.52548  0.25043  1.0000
  C   C146      1.0  0.07467  0.81984  0.42885  1.0000
  C   C147      1.0  0.18969  0.54498  0.29714  1.0000
  H   H149      1.0  0.05463  0.80329  0.43634  1.0000
  N   N12       1.0  0.18231  0.92248  0.10869  1.0000
  C   C148      1.0  0.17417  0.93407  0.08842  1.0000
  C   C149      1.0  0.16709  0.91198  0.13224  1.0000
  C   C150      1.0  0.15024  0.93542  0.09147  1.0000
  C   C151      1.0  0.14291  0.91277  0.13585  1.0000
  C   C152      1.0  0.13446  0.92453  0.11527  1.0000
  C   C153      1.0  0.20629  0.91937  0.10408  1.0000
  Fe  Fe31      1.0  0.04805  0.52826  0.33156  1.0000
  H   H150      1.0  0.17290  0.90177  0.14780  1.0000
  H   H151      1.0  0.13046  0.90353  0.15410  1.0000
  S   S59       1.0  0.13211  0.88018  0.47710  1.0000
  H   H152      1.0  0.20024  0.90069  0.09137  1.0000
  H   H153      1.0  0.22251  0.93743  0.09301  1.0000
  H   H154      1.0  0.17820  0.55552  0.30049  1.0000
  C   C154      1.0  0.11414  0.79036  0.39504  1.0000
  H   H155      1.0  0.26083  0.87138  0.23109  1.0000
  C   C155      1.0  0.12427  0.79554  0.44424  1.0000
  C   C156      1.0  0.06217  0.59853  0.26135  1.0000
  N   N13       1.0  0.09333  0.80903  0.42489  1.0000
  C   C157      1.0  0.10654  0.80602  0.44744  1.0000
  C   C158      1.0  0.09669  0.80108  0.39897  1.0000
  H   H156      1.0  0.18589  0.94193  0.06946  1.0000
  C   C159      1.0  0.19826  0.51353  0.27074  1.0000
  H   H157      1.0  0.21501  0.91710  0.12406  1.0000
  C   C160      1.0  0.22853  0.00887  0.46777  1.0000
  C   C161      1.0  0.22239  0.53205  0.31307  1.0000
  H   H158      1.0  0.16873  0.52560  0.25901  1.0000
  H   H159      1.0  0.23665  0.53309  0.32892  1.0000
  H   H160      1.0  0.14111  0.99208  0.99091  1.0000
  C   C162      1.0  0.18438  0.52820  0.27387  1.0000
  H   H161      1.0  0.03854  0.85481  0.00206  1.0000
  H   H162      1.0  0.05723  0.58354  0.24491  1.0000
  H   H163      1.0  0.24541  0.00787  0.45845  1.0000
  S   S60       1.0  0.04726  0.51578  0.44021  1.0000
  H   H164      1.0  0.10594  0.52827  0.44028  1.0000
  S   S61       1.0  0.13503  0.52156  0.35171  1.0000
  Fe  Fe32      1.0  0.16231  0.86657  0.99294  1.0000
  H   H165      1.0  0.21239  0.55930  0.33545  1.0000
  H   H166      1.0  0.25540  0.82729  0.18955  1.0000
  Fe  Fe33      1.0  0.15384  0.87420  0.55417  1.0000
  S   S62       1.0  0.12133  0.88527  0.54392  1.0000
  S   S63       1.0  0.17164  0.87754  0.59845  1.0000
  H   H167      1.0  0.14593  0.81766  0.60745  1.0000
  H   H168      1.0  0.18184  0.83824  0.56579  1.0000
  S   S64       1.0  0.18755  0.85446  0.96574  1.0000
  Fe  Fe34      1.0  0.15002  0.91287  0.51048  1.0000
  C   C163      1.0  0.24705  0.89283  0.90311  1.0000
  Fe  Fe35      1.0  0.10609  0.85201  0.51123  1.0000
  H   H169      1.0  0.24629  0.89626  0.92526  1.0000
  S   S65       1.0  0.18316  0.90376  0.52249  1.0000
  S   S66       1.0  0.13674  0.83907  0.52382  1.0000
  Fe  Fe36      1.0  0.24296  0.83227  0.78709  1.0000
  S   S67       1.0  0.21274  0.84603  0.77513  1.0000
  Fe  Fe37      1.0  0.19804  0.77163  0.78736  1.0000
  S   S68       1.0  0.16544  0.78189  0.77654  1.0000
  S   S69       1.0  0.18916  0.72717  0.78726  1.0000
  Fe  Fe38      1.0  0.19460  0.81100  0.74452  1.0000
  S   S70       1.0  0.17634  0.80487  0.70013  1.0000
  Fe  Fe39      1.0  0.18625  0.81603  0.80775  1.0000
  S   S71       1.0  0.16218  0.82807  0.83675  1.0000
  S   S72       1.0  0.22673  0.79928  0.75408  1.0000
  S   S73       1.0  0.21689  0.80380  0.82114  1.0000
  H   H170      1.0  0.12054  0.72784  0.75896  1.0000
  S   S74       1.0  0.08902  0.55483  0.81708  1.0000
  H   H171      1.0  0.16183  0.73025  0.69983  1.0000
  H   H172      1.0  0.16994  0.57597  0.92984  1.0000
  S   S75       1.0  0.10325  0.56023  0.88428  1.0000
  H   H173      1.0  0.15610  0.68634  0.71775  1.0000
  Fe  Fe40      1.0  0.08635  0.57838  0.85363  1.0000
  S   S76       1.0  0.09978  0.62408  0.85526  1.0000
  H   H174      1.0  0.09206  0.64312  0.77683  1.0000
  S   S77       1.0  0.04266  0.54725  0.86411  1.0000
  C   C164      1.0  0.15808  0.73452  0.72143  1.0000
  H   H175      1.0  0.17788  0.74514  0.73277  1.0000
  H   H176      1.0  0.09005  0.68571  0.78512  1.0000
  C   C165      1.0  0.20362  0.84389  0.56814  1.0000
  H   H177      1.0  0.07259  0.81085  0.92797  1.0000
  H   H178      1.0  0.12518  0.64346  0.74275  1.0000
  C   C166      1.0  0.13379  0.78472  0.95892  1.0000
  C   C167      1.0  0.17310  0.58966  0.88729  1.0000
  C   C168      1.0  0.16426  0.69885  0.80650  1.0000
  C   C169      1.0  0.14728  0.70157  0.82577  1.0000
  C   C170      1.0  0.12754  0.67842  0.84029  1.0000
  C   C171      1.0  0.12429  0.65225  0.83551  1.0000
  C   C172      1.0  0.14101  0.64944  0.81595  1.0000
  C   C173      1.0  0.16111  0.67269  0.80182  1.0000
  H   H179      1.0  0.14950  0.72155  0.82963  1.0000
  H   H180      1.0  0.11476  0.68082  0.85543  1.0000
  H   H181      1.0  0.13859  0.62943  0.81186  1.0000
  H   H182      1.0  0.17412  0.67039  0.78690  1.0000
  H   H183      1.0  0.26225  0.93908  0.51571  1.0000
  C   C174      1.0  0.10108  0.79876  0.94337  1.0000
  N   N14       1.0  0.22083  0.87003  0.55406  1.0000
  C   C175      1.0  0.10386  0.68545  0.76968  1.0000
  C   C176      1.0  0.18468  0.01092  0.49151  1.0000
  C   C177      1.0  0.10499  0.66154  0.76501  1.0000
  C   C178      1.0  0.16238  0.62493  0.87888  1.0000
  C   C179      1.0  0.12085  0.78300  0.90979  1.0000
  H   H184      1.0  0.15558  0.60848  0.94759  1.0000
  C   C180      1.0  0.18053  0.84749  0.92983  1.0000
  C   C181      1.0  0.19273  0.83473  0.91525  1.0000
  C   C182      1.0  0.18767  0.82899  0.88661  1.0000
  C   C183      1.0  0.17026  0.83592  0.87236  1.0000
  C   C184      1.0  0.15817  0.84878  0.88692  1.0000
  C   C185      1.0  0.16320  0.85447  0.91553  1.0000
  H   H185      1.0  0.20622  0.82930  0.92616  1.0000
  H   H186      1.0  0.19708  0.81905  0.87564  1.0000
  H   H187      1.0  0.14458  0.85411  0.87607  1.0000
  H   H188      1.0  0.15366  0.86428  0.92647  1.0000
  C   C186      1.0  0.17198  0.85675  0.62668  1.0000
  C   C187      1.0  0.18749  0.86968  0.65073  1.0000
  C   C188      1.0  0.18901  0.85432  0.67339  1.0000
  C   C189      1.0  0.17510  0.82565  0.67234  1.0000
  C   C190      1.0  0.15970  0.81271  0.64821  1.0000
  C   C191      1.0  0.15806  0.82806  0.62561  1.0000
  H   H189      1.0  0.19835  0.89182  0.65194  1.0000
  H   H190      1.0  0.20095  0.86469  0.69167  1.0000
  H   H191      1.0  0.14880  0.79058  0.64706  1.0000
  H   H192      1.0  0.14975  0.74875  0.71985  1.0000
  H   H193      1.0  0.21750  0.90484  0.89239  1.0000
  Fe  Fe41      1.0  0.10333  0.53448  0.84834  1.0000
  C   C192      1.0  0.14119  0.99501  0.96799  1.0000
  Fe  Fe42      1.0  0.05989  0.52754  0.89240  1.0000
  H   H194      1.0  0.24188  0.89520  0.48930  1.0000
  S   S78       1.0  0.14257  0.53259  0.84174  1.0000
  H   H195      1.0  0.22805  0.89390  0.59092  1.0000
  C   C193      1.0  0.24725  0.88283  0.84665  1.0000
  H   H196      1.0  0.20661  0.82733  0.55929  1.0000
  H   H197      1.0  0.15367  0.78791  0.95117  1.0000
  C   C194      1.0  0.19985  0.98041  0.97321  1.0000
  N   N15       1.0  0.23066  0.89213  0.85663  1.0000
  H   H198      1.0  0.21492  0.85139  0.51403  1.0000
  H   H199      1.0  0.18912  0.52608  0.83083  1.0000
  H   H200      1.0  0.02277  0.83684  0.54616  1.0000
  N   N16       1.0  0.13932  0.70921  0.73605  1.0000
  C   C195      1.0  0.14099  0.68602  0.73180  1.0000
  C   C196      1.0  0.12129  0.70925  0.75495  1.0000
  C   C197      1.0  0.12362  0.66175  0.74592  1.0000
  H   H201      1.0  0.15947  0.63822  0.86462  1.0000
  Fe  Fe43      1.0  0.16340  0.86925  0.49147  1.0000
  H   H202      1.0  0.19362  0.95971  0.96662  1.0000
  S   S79       1.0  0.13746  0.88468  0.97629  1.0000
  H   H203      1.0  0.25500  0.93821  0.56691  1.0000
  C   C198      1.0  0.21724  0.00281  0.95627  1.0000
  Fe  Fe44      1.0  0.04674  0.52241  0.82957  1.0000
  H   H204      1.0  0.18677  0.59598  0.83488  1.0000
  H   H205      1.0  0.15015  0.63962  0.91439  1.0000
  H   H206      1.0  0.15317  0.59122  0.82966  1.0000
  N   N17       1.0  0.11850  0.78930  0.93678  1.0000
  S   S80       1.0  0.06345  0.81555  0.50286  1.0000
  H   H207      1.0  0.19460  0.89404  0.84735  1.0000
  H   H208      1.0  0.18265  0.62536  0.82918  1.0000
  C   C199      1.0  0.17344  0.60489  0.83927  1.0000
  H   H209      1.0  0.15042  0.98336  0.95877  1.0000
  C   C200      1.0  0.24704  0.91923  0.55527  1.0000
  H   H210      1.0  0.10895  0.78302  0.86693  1.0000
  C   C201      1.0  0.16824  0.59018  0.91576  1.0000
  H   H211      1.0  0.11987  0.98603  0.96034  1.0000
  H   H212      1.0  0.13474  0.77563  0.90448  1.0000
  H   H213      1.0  0.17842  0.57477  0.87958  1.0000
  C   C202      1.0  0.08609  0.80298  0.92258  1.0000
  C   C203      1.0  0.16014  0.60837  0.92569  1.0000
  C   C204      1.0  0.10616  0.78697  0.88845  1.0000
  C   C205      1.0  0.15717  0.62589  0.90715  1.0000
  C   C206      1.0  0.23975  0.89512  0.51177  1.0000
  C   C207      1.0  0.08879  0.79716  0.89494  1.0000
  C   C208      1.0  0.23069  0.89753  0.88441  1.0000
  H   H214      1.0  0.04232  0.54358  0.76656  1.0000
  C   C209      1.0  0.02536  0.52839  0.75445  1.0000
  S   S81       1.0  0.06296  0.82140  0.98465  1.0000
  H   H215      1.0  0.13879  0.79966  0.97620  1.0000
  C   C210      1.0  0.23175  0.89406  0.56875  1.0000
  N   N18       1.0  0.17023  0.60699  0.86927  1.0000
  C   C211      1.0  0.25107  0.91970  0.52659  1.0000
  H   H216      1.0  0.07762  0.80077  0.87856  1.0000
  H   H217      1.0  0.20838  0.84528  0.59079  1.0000
  C   C212      1.0  0.22443  0.87034  0.52590  1.0000
  C   C213      1.0  0.21374  0.89758  0.83725  1.0000
  H   H218      1.0  0.12164  0.76364  0.96726  1.0000
  H   H219      1.0  0.09885  0.80333  0.96480  1.0000
  H   H220      1.0  0.22528  0.91900  0.82962  1.0000
  H   H221      1.0  0.24764  0.87905  0.82458  1.0000
  C   C214      1.0  0.26364  0.88283  0.89315  1.0000
  H   H222      1.0  0.03589  0.55342  0.71744  1.0000
  S   S82       1.0  0.15633  0.95619  0.50578  1.0000
  H   H223      1.0  0.20732  0.88337  0.81913  1.0000
  C   C215      1.0  0.02971  0.81737  0.98136  1.0000
  H   H224      1.0  0.04983  0.85890  0.49192  1.0000
  C   C216      1.0  0.18460  0.98580  0.49123  1.0000
  C   C217      1.0  0.02165  0.53392  0.72660  1.0000
  H   H225      1.0  0.22438  0.99912  0.93678  1.0000
  C   C218      1.0  0.03375  0.81530  0.48996  1.0000
  H   H226      1.0  0.03243  0.81170  0.55317  1.0000
  C   C219      1.0  0.26386  0.87789  0.86473  1.0000
  H   H227      1.0  0.16765  0.01181  0.50062  1.0000
  C   C220      1.0  0.03217  0.83925  0.48722  1.0000
  H   H228      1.0  0.41153  0.28002  0.11312  1.0000
  H   H229      1.0  0.51050  0.47568  0.35890  1.0000
  S   S83       1.0  0.50165  0.03921  0.10432  1.0000
  C   C221      1.0  0.37224  0.24696  0.12520  1.0000
  C   C222      1.0  0.31156  0.20566  0.07935  1.0000
  C   C223      1.0  0.43073  0.27551  0.24858  1.0000
  C   C224      1.0  0.33978  0.50303  0.30278  1.0000
  S   S84       1.0  0.50222  0.44890  0.10900  1.0000
  Fe  Fe45      1.0  0.29056  0.15639  0.40738  1.0000
  S   S85       1.0  0.29920  0.16989  0.36123  1.0000
  H   H230      1.0  0.46918  0.50586  0.20350  1.0000
  S   S86       1.0  0.34222  0.18189  0.99998  1.0000
  S   S87       1.0  0.30874  0.13810  0.43635  1.0000
  S   S88       1.0  0.29146  0.18593  0.43990  1.0000
  Fe  Fe46      1.0  0.43659  0.20000  0.17614  1.0000
  S   S89       1.0  0.39508  0.16668  0.18892  1.0000
  S   S90       1.0  0.47344  0.19526  0.16554  1.0000
  Fe  Fe47      1.0  0.42046  0.24481  0.17972  1.0000
  S   S91       1.0  0.37751  0.21429  0.19283  1.0000
  S   S92       1.0  0.42784  0.28852  0.17521  1.0000
  Fe  Fe48      1.0  0.39612  0.19631  0.22149  1.0000
  S   S93       1.0  0.38714  0.18508  0.26800  1.0000
  Fe  Fe49      1.0  0.37978  0.18743  0.15939  1.0000
  S   S94       1.0  0.34409  0.16248  0.13021  1.0000
  S   S95       1.0  0.43919  0.22860  0.21052  1.0000
  S   S96       1.0  0.42114  0.21895  0.14448  1.0000
  H   H231      1.0  0.43617  0.46360  0.03069  1.0000
  C   C225      1.0  0.32334  0.17286  0.33542  1.0000
  C   C226      1.0  0.32062  0.18037  0.30803  1.0000
  C   C227      1.0  0.33935  0.18344  0.28694  1.0000
  C   C228      1.0  0.36136  0.17930  0.29297  1.0000
  C   C229      1.0  0.36404  0.17177  0.32034  1.0000
  C   C230      1.0  0.34522  0.16853  0.34137  1.0000
  H   H232      1.0  0.30381  0.18376  0.30304  1.0000
  H   H233      1.0  0.33688  0.18922  0.26609  1.0000
  H   H234      1.0  0.38086  0.16839  0.32535  1.0000
  H   H235      1.0  0.34768  0.16269  0.36221  1.0000
  C   C231      1.0  0.34324  0.17456  0.03566  1.0000
  C   C232      1.0  0.36693  0.19123  0.05127  1.0000
  C   C233      1.0  0.36781  0.18735  0.08015  1.0000
  C   C234      1.0  0.34497  0.16663  0.09364  1.0000
  C   C235      1.0  0.32160  0.14944  0.07788  1.0000
  C   C236      1.0  0.32068  0.15340  0.04902  1.0000
  H   H236      1.0  0.38451  0.20759  0.04106  1.0000
  H   H237      1.0  0.38590  0.20080  0.09201  1.0000
  H   H238      1.0  0.30388  0.13329  0.08813  1.0000
  H   H239      1.0  0.30236  0.14035  0.03722  1.0000
  H   H240      1.0  0.30299  0.18676  0.09226  1.0000
  C   C237      1.0  0.47802  0.36665  0.14827  1.0000
  C   C238      1.0  0.45568  0.34261  0.15892  1.0000
  C   C239      1.0  0.45655  0.31807  0.16123  1.0000
  C   C240      1.0  0.48007  0.31782  0.15264  1.0000
  H   H241      1.0  0.35506  0.46394  0.26459  1.0000
  H   H242      1.0  0.36918  0.11369  0.10680  1.0000
  H   H243      1.0  0.43763  0.34310  0.16550  1.0000
  H   H244      1.0  0.48114  0.29916  0.15429  1.0000
  H   H245      1.0  0.43004  0.44446  0.07859  1.0000
  C   C241      1.0  0.36431  0.48240  0.32474  1.0000
  N   N19       1.0  0.33935  0.22545  0.08840  1.0000
  H   H246      1.0  0.44520  0.18920  0.10833  1.0000
  C   C242      1.0  0.31502  0.47806  0.30403  1.0000
  C   C243      1.0  0.31498  0.45529  0.31592  1.0000
  C   C244      1.0  0.33950  0.45747  0.32613  1.0000
  H   H247      1.0  0.39972  0.28161  0.22907  1.0000
  C   C245      1.0  0.32009  0.45822  0.24060  1.0000
  H   H248      1.0  0.29616  0.43593  0.31695  1.0000
  H   H249      1.0  0.33928  0.43969  0.33510  1.0000
  H   H250      1.0  0.49053  0.45871  0.47310  1.0000
  C   C246      1.0  0.33598  0.44925  0.25472  1.0000
  S   S97       1.0  0.39474  0.48337  0.33656  1.0000
  C   C247      1.0  0.40431  0.11188  0.09187  1.0000
  H   H251      1.0  0.32709  0.48002  0.23976  1.0000
  C   C248      1.0  0.44933  0.47601  0.04756  1.0000
  H   H252      1.0  0.31124  0.19916  0.05742  1.0000
  H   H253      1.0  0.36564  0.25680  0.26631  1.0000
  C   C249      1.0  0.48831  0.51051  0.21329  1.0000
  H   H254      1.0  0.28944  0.45921  0.19401  1.0000
  C   C250      1.0  0.47723  0.11830  0.13967  1.0000
  C   C251      1.0  0.50108  0.14354  0.14290  1.0000
  C   C252      1.0  0.49963  0.16663  0.15206  1.0000
  C   C253      1.0  0.47441  0.16474  0.15825  1.0000
  C   C254      1.0  0.45069  0.13919  0.15631  1.0000
  C   C255      1.0  0.45213  0.11614  0.14695  1.0000
  H   H255      1.0  0.47065  0.07096  0.23556  1.0000
  N   N20       1.0  0.44676  0.15443  0.09284  1.0000
  H   H256      1.0  0.43117  0.13734  0.16121  1.0000
  H   H257      1.0  0.39545  0.16328  0.11712  1.0000
  C   C256      1.0  0.40495  0.27306  0.24681  1.0000
  H   H258      1.0  0.44278  0.11652  0.07900  1.0000
  C   C257      1.0  0.36428  0.50523  0.31308  1.0000
  H   H259      1.0  0.44554  0.28597  0.23223  1.0000
  H   H260      1.0  0.45676  0.26488  0.27181  1.0000
  H   H261      1.0  0.47703  0.38536  0.14673  1.0000
  C   C258      1.0  0.39302  0.24810  0.29015  1.0000
  C   C259      1.0  0.49817  0.48047  0.47546  1.0000
  S   S98       1.0  0.47731  0.08950  0.12457  1.0000
  Fe  Fe50      1.0  0.30660  0.16514  0.46967  1.0000
  N   N21       1.0  0.46049  0.02905  0.23280  1.0000
  C   C260      1.0  0.43375  0.16753  0.10327  1.0000
  N   N22       1.0  0.41826  0.25027  0.29151  1.0000
  H   H262      1.0  0.39879  0.27639  0.06289  1.0000
  C   C261      1.0  0.30157  0.40256  0.24502  1.0000
  C   C262      1.0  0.38590  0.25922  0.26768  1.0000
  C   C263      1.0  0.35780  0.24297  0.06946  1.0000
  H   H263      1.0  0.29384  0.38069  0.24688  1.0000
  H   H264      1.0  0.47937  0.17792  0.06532  1.0000
  C   C264      1.0  0.46866  0.03792  0.17588  1.0000
  H   H265      1.0  0.46167  0.47291  0.11648  1.0000
  C   C265      1.0  0.38409  0.26271  0.07796  1.0000
  C   C266      1.0  0.32647  0.42123  0.25720  1.0000
  H   H266      1.0  0.48480  0.48479  0.43433  1.0000
  C   C267      1.0  0.34625  0.22725  0.11599  1.0000
  H   H267      1.0  0.35235  0.24143  0.04756  1.0000
  C   C268      1.0  0.42543  0.23792  0.31466  1.0000
  H   H268      1.0  0.42960  0.22183  0.30652  1.0000
  C   C269      1.0  0.28641  0.41227  0.23066  1.0000
  H   H269      1.0  0.43356  0.09665  0.14475  1.0000
  H   H270      1.0  0.37799  0.23713  0.30614  1.0000
  C   C270      1.0  0.43240  0.12700  0.08690  1.0000
  S   S99       1.0  0.47044  0.50719  0.35124  1.0000
  H   H271      1.0  0.33828  0.41408  0.26885  1.0000
  N   N23       1.0  0.29557  0.43979  0.22899  1.0000
  C   C271      1.0  0.50164  0.36649  0.13988  1.0000
  C   C272      1.0  0.43699  0.26368  0.27106  1.0000
  H   H272      1.0  0.44374  0.25375  0.32582  1.0000
  H   H273      1.0  0.37764  0.24854  0.14706  1.0000
  C   C273      1.0  0.39128  0.26473  0.10606  1.0000
  C   C274      1.0  0.39093  0.12506  0.10268  1.0000
  C   C275      1.0  0.45634  0.02475  0.26290  1.0000
  C   C276      1.0  0.47194  0.05911  0.19340  1.0000
  H   H274      1.0  0.40853  0.22779  0.32987  1.0000
  C   C277      1.0  0.40570  0.15303  0.10844  1.0000
  H   H275      1.0  0.47543  0.03894  0.27426  1.0000
  H   H276      1.0  0.39310  0.09005  0.08762  1.0000
  C   C278      1.0  0.46779  0.05430  0.22201  1.0000
  H   H277      1.0  0.43962  0.02833  0.26975  1.0000
  C   C279      1.0  0.50247  0.34191  0.14213  1.0000
  H   H278      1.0  0.29819  0.21487  0.08105  1.0000
  C   C280      1.0  0.49511  0.49532  0.45323  1.0000
  H   H279      1.0  0.34771  0.13893  0.48391  1.0000
  S   S100      1.0  0.28515  0.47598  0.28895  1.0000
  C   C281      1.0  0.47604  0.17006  0.08697  1.0000
  H   H280      1.0  0.33177  0.21318  0.13101  1.0000
  C   C282      1.0  0.27959  0.44991  0.21410  1.0000
  H   H281      1.0  0.48665  0.18763  0.10163  1.0000
  H   H282      1.0  0.48571  0.15711  0.08980  1.0000
  H   H283      1.0  0.47792  0.07919  0.18481  1.0000
  H   H284      1.0  0.47205  0.04146  0.15371  1.0000
  C   C283      1.0  0.46381  0.48112  0.09558  1.0000
  S   S101      1.0  0.50555  0.46892  0.03154  1.0000
  C   C284      1.0  0.48514  0.50738  0.08950  1.0000
  Fe  Fe51      1.0  0.51348  0.08231  0.11771  1.0000
  H   H285      1.0  0.51814  0.18626  0.15366  1.0000
  C   C285      1.0  0.47068  0.50250  0.04229  1.0000
  S   S102      1.0  0.50160  0.49874  0.16217  1.0000
  C   C286      1.0  0.44602  0.46524  0.07437  1.0000
  C   C287      1.0  0.50943  0.49041  0.00244  1.0000
  C   C288      1.0  0.50812  0.50817  0.19777  1.0000
  H   H286      1.0  0.47363  0.51031  0.02116  1.0000
  H   H287      1.0  0.27784  0.46541  0.22695  1.0000
  H   H288      1.0  0.51781  0.48072  0.30419  1.0000
  H   H289      1.0  0.51778  0.50581  0.39926  1.0000
  H   H290      1.0  0.45041  0.16366  0.76605  1.0000
  S   S103      1.0  0.47953  0.09537  0.61908  1.0000
  S   S104      1.0  0.50180  0.04078  0.60723  1.0000
  H   H291      1.0  0.45223  0.10527  0.68923  1.0000
  H   H292      1.0  0.51651  0.18276  0.67102  1.0000
  H   H293      1.0  0.43164  0.43112  0.80787  1.0000
  C   C289      1.0  0.30457  0.09861  0.50779  1.0000
  C   C290      1.0  0.50029  0.50064  0.70021  1.0000
  Fe  Fe52      1.0  0.29370  0.15578  0.90943  1.0000
  S   S105      1.0  0.31362  0.17953  0.86909  1.0000
  S   S106      1.0  0.49498  0.49648  0.66385  1.0000
  S   S107      1.0  0.34372  0.18922  0.49765  1.0000
  S   S108      1.0  0.30767  0.13262  0.93693  1.0000
  S   S109      1.0  0.29329  0.18219  0.94467  1.0000
  Fe  Fe53      1.0  0.43505  0.19967  0.67760  1.0000
  S   S110      1.0  0.39244  0.16567  0.68544  1.0000
  S   S111      1.0  0.47314  0.19549  0.67446  1.0000
  Fe  Fe54      1.0  0.41899  0.24393  0.68451  1.0000
  S   S112      1.0  0.37514  0.21282  0.69366  1.0000
  S   S113      1.0  0.43059  0.28903  0.68598  1.0000
  Fe  Fe55      1.0  0.39118  0.19135  0.72099  1.0000
  S   S114      1.0  0.37636  0.16846  0.76280  1.0000
  Fe  Fe56      1.0  0.37962  0.18972  0.65767  1.0000
  S   S115      1.0  0.34350  0.16897  0.62793  1.0000
  S   S116      1.0  0.43484  0.22421  0.71461  1.0000
  S   S117      1.0  0.42248  0.22205  0.64701  1.0000
  H   H294      1.0  0.42750  0.45715  0.82555  1.0000
  C   C291      1.0  0.32922  0.17477  0.83884  1.0000
  C   C292      1.0  0.33864  0.19490  0.81782  1.0000
  C   C293      1.0  0.35255  0.19308  0.79422  1.0000
  C   C294      1.0  0.35752  0.17115  0.79136  1.0000
  C   C295      1.0  0.34814  0.15102  0.81241  1.0000
  C   C296      1.0  0.33394  0.15268  0.83586  1.0000
  H   H295      1.0  0.33516  0.21211  0.81979  1.0000
  H   H296      1.0  0.35958  0.20878  0.77836  1.0000
  H   H297      1.0  0.35176  0.13391  0.81052  1.0000
  H   H298      1.0  0.32693  0.13702  0.85176  1.0000
  C   C297      1.0  0.34338  0.18290  0.53374  1.0000
  C   C298      1.0  0.36814  0.19510  0.54867  1.0000
  C   C299      1.0  0.36860  0.19100  0.57755  1.0000
  C   C300      1.0  0.34424  0.17470  0.59171  1.0000
  C   C301      1.0  0.31950  0.16260  0.57680  1.0000
  C   C302      1.0  0.31905  0.16657  0.54791  1.0000
  H   H299      1.0  0.38705  0.20783  0.53783  1.0000
  H   H300      1.0  0.38777  0.20041  0.58882  1.0000
  H   H301      1.0  0.30054  0.15005  0.58765  1.0000
  H   H302      1.0  0.29985  0.15720  0.53672  1.0000
  C   C303      1.0  0.49357  0.36363  0.63601  1.0000
  C   C304      1.0  0.47766  0.36652  0.65647  1.0000
  C   C305      1.0  0.45800  0.34334  0.67101  1.0000
  C   C306      1.0  0.45380  0.31699  0.66512  1.0000
  C   C307      1.0  0.46905  0.31395  0.64398  1.0000
  C   C308      1.0  0.48896  0.33720  0.62968  1.0000
  H   H303      1.0  0.48104  0.38671  0.66166  1.0000
  H   H304      1.0  0.44626  0.34592  0.68725  1.0000
  H   H305      1.0  0.46604  0.29384  0.63917  1.0000
  S   S118      1.0  0.29316  0.47216  0.78315  1.0000
  C   C309      1.0  0.36710  0.48057  0.83276  1.0000
  C   C310      1.0  0.34051  0.46052  0.84016  1.0000
  C   C311      1.0  0.31768  0.45711  0.82475  1.0000
  C   C312      1.0  0.32123  0.47377  0.80171  1.0000
  C   C313      1.0  0.34789  0.49341  0.79392  1.0000
  H   H306      1.0  0.45848  0.46657  0.80730  1.0000
  H   H307      1.0  0.33749  0.44766  0.85810  1.0000
  H   H308      1.0  0.29731  0.44191  0.83098  1.0000
  C   C314      1.0  0.30904  0.10039  0.56533  1.0000
  Fe  Fe57      1.0  0.30485  0.15721  0.97245  1.0000
  H   H309      1.0  0.49083  0.25897  0.68376  1.0000
  C   C315      1.0  0.50715  0.32409  0.70113  1.0000
  N   N24       1.0  0.32926  0.11516  0.52018  1.0000
  H   H310      1.0  0.46062  0.18359  0.73420  1.0000
  C   C316      1.0  0.38828  0.17528  0.88368  1.0000
  C   C317      1.0  0.38861  0.19722  0.86970  1.0000
  H   H311      1.0  0.39398  0.20069  0.84782  1.0000
  C   C318      1.0  0.49147  0.49631  0.95770  1.0000
  C   C319      1.0  0.37212  0.18732  0.92477  1.0000
  S   S119      1.0  0.49707  0.44735  0.60488  1.0000
  C   C320      1.0  0.47883  0.12412  0.63362  1.0000
  C   C321      1.0  0.50109  0.14490  0.64801  1.0000
  C   C322      1.0  0.49917  0.16685  0.65990  1.0000
  C   C323      1.0  0.47501  0.16825  0.65768  1.0000
  C   C324      1.0  0.45277  0.14752  0.64324  1.0000
  C   C325      1.0  0.45473  0.12563  0.63127  1.0000
  C   C326      1.0  0.38901  0.46127  0.75753  1.0000
  H   H312      1.0  0.42796  0.17332  0.74882  1.0000
  H   H313      1.0  0.43403  0.14823  0.64140  1.0000
  H   H314      1.0  0.43739  0.10967  0.62019  1.0000
  H   H315      1.0  0.47661  0.48775  0.94102  1.0000
  N   N25       1.0  0.37199  0.20846  0.91072  1.0000
  H   H316      1.0  0.50034  0.04570  0.75407  1.0000
  H   H317      1.0  0.37899  0.22963  0.87211  1.0000
  C   C327      1.0  0.50126  0.28124  0.68353  1.0000
  H   H318      1.0  0.45577  0.45818  0.75553  1.0000
  N   N26       1.0  0.43179  0.14123  0.72926  1.0000
  C   C328      1.0  0.44895  0.13447  0.71585  1.0000
  C   C329      1.0  0.40418  0.12390  0.72852  1.0000
  C   C330      1.0  0.43854  0.11018  0.70046  1.0000
  C   C331      1.0  0.39305  0.09959  0.71306  1.0000
  C   C332      1.0  0.41040  0.09281  0.69883  1.0000
  C   C333      1.0  0.44328  0.16667  0.74546  1.0000
  H   H319      1.0  0.47083  0.14824  0.71635  1.0000
  H   H320      1.0  0.39054  0.12907  0.73947  1.0000
  H   H321      1.0  0.50066  0.33487  0.71512  1.0000
  H   H322      1.0  0.40212  0.07425  0.68640  1.0000
  H   H323      1.0  0.43642  0.46481  0.71176  1.0000
  C   C334      1.0  0.33183  0.11582  0.54856  1.0000
  C   C335      1.0  0.43600  0.45265  0.80670  1.0000
  N   N27       1.0  0.42435  0.45685  0.78107  1.0000
  H   H324      1.0  0.37111  0.08627  0.71196  1.0000
  C   C336      1.0  0.38009  0.17031  0.91144  1.0000
  C   C337      1.0  0.43698  0.45903  0.75623  1.0000
  N   N28       1.0  0.36566  0.24811  0.60069  1.0000
  C   C338      1.0  0.38139  0.26186  0.57827  1.0000
  C   C339      1.0  0.33832  0.23041  0.59741  1.0000
  C   C340      1.0  0.36979  0.25775  0.55162  1.0000
  C   C341      1.0  0.32603  0.22602  0.57111  1.0000
  C   C342      1.0  0.34195  0.23966  0.54807  1.0000
  C   C343      1.0  0.37792  0.25180  0.62845  1.0000
  H   H325      1.0  0.40310  0.27579  0.58079  1.0000
  H   H326      1.0  0.32605  0.21889  0.61508  1.0000
  H   H327      1.0  0.38237  0.26804  0.53371  1.0000
  C   C344      1.0  0.40206  0.46406  0.73215  1.0000
  C   C345      1.0  0.28364  0.08391  0.55284  1.0000
  H   H328      1.0  0.37365  0.23162  0.63678  1.0000
  H   H329      1.0  0.40043  0.26546  0.62829  1.0000
  H   H330      1.0  0.36926  0.26092  0.64287  1.0000
  H   H331      1.0  0.39353  0.46715  0.71308  1.0000
  H   H332      1.0  0.39377  0.16181  0.87281  1.0000
  H   H333      1.0  0.33288  0.23554  0.52738  1.0000
  C   C346      1.0  0.42610  0.46274  0.73141  1.0000
  C   C347      1.0  0.37074  0.49681  0.80932  1.0000
  H   H334      1.0  0.37932  0.15306  0.92244  1.0000
  C   C348      1.0  0.36242  0.22546  0.92431  1.0000
  S   S120      1.0  0.39500  0.48405  0.85311  1.0000
  C   C349      1.0  0.40041  0.45744  0.78190  1.0000
  H   H335      1.0  0.37866  0.24729  0.92414  1.0000
  H   H336      1.0  0.35647  0.21926  0.94633  1.0000
  H   H337      1.0  0.31104  0.10170  0.58786  1.0000
  H   H338      1.0  0.47447  0.45848  0.98097  1.0000
  H   H339      1.0  0.37017  0.46205  0.75841  1.0000
  H   H340      1.0  0.34416  0.22331  0.91305  1.0000
  S   S121      1.0  0.47067  0.50273  0.86035  1.0000
  H   H341      1.0  0.30452  0.21133  0.56843  1.0000
  H   H342      1.0  0.39000  0.45497  0.80149  1.0000
  H   H343      1.0  0.36544  0.18307  0.94624  1.0000
  C   C350      1.0  0.38018  0.21360  0.88357  1.0000
  H   H344      1.0  0.35140  0.12894  0.55846  1.0000
  C   C351      1.0  0.51248  0.03218  0.71752  1.0000
  C   C352      1.0  0.50504  0.03066  0.74567  1.0000
  C   C353      1.0  0.35329  0.13126  0.50282  1.0000
  C   C354      1.0  0.28137  0.08287  0.52389  1.0000
  H   H345      1.0  0.36226  0.11847  0.49636  1.0000
  H   H346      1.0  0.50118  0.33476  0.61388  1.0000
  Fe  Fe58      1.0  0.51777  0.48186  0.63601  1.0000
  S   S122      1.0  0.51586  0.47367  0.52718  1.0000
  H   H347      1.0  0.35084  0.50624  0.77599  1.0000
  C   C355      1.0  0.51077  0.49336  0.50075  1.0000
  H   H348      1.0  0.36894  0.14974  0.51404  1.0000
  C   C356      1.0  0.51531  0.49079  0.71450  1.0000
  C   C357      1.0  0.49034  0.47974  0.98042  1.0000
  C   C358      1.0  0.50795  0.50801  0.75840  1.0000
  Fe  Fe59      1.0  0.51393  0.08491  0.61691  1.0000
  H   H349      1.0  0.51346  0.04829  0.70436  1.0000
  H   H350      1.0  0.47719  0.28441  0.71654  1.0000
  C   C359      1.0  0.49379  0.29545  0.70206  1.0000
  H   H351      1.0  0.39110  0.51214  0.80320  1.0000
  S   S123      1.0  0.51341  0.51204  0.79472  1.0000
  H   H352      1.0  0.30267  0.09760  0.48529  1.0000
  C   C360      1.0  0.50460  0.98127  0.21724  1.0000
  S   S124      1.0  0.51523  0.57245  0.35156  1.0000
  H   H353      1.0  0.45998  0.99608  0.17365  1.0000
  Fe  Fe60      1.0  0.44368  0.91295  0.34379  1.0000
  S   S125      1.0  0.45102  0.95511  0.35344  1.0000
  S   S126      1.0  0.40174  0.87480  0.33837  1.0000
  Fe  Fe61      1.0  0.48736  0.96966  0.32516  1.0000
  H   H354      1.0  0.31768  0.88081  0.24576  1.0000
  Fe  Fe62      1.0  0.47886  0.95629  0.38814  1.0000
  S   S127      1.0  0.47028  0.96822  0.43142  1.0000
  S   S128      1.0  0.47807  0.92730  0.31284  1.0000
  S   S129      1.0  0.46946  0.91290  0.37991  1.0000
  C   C361      1.0  0.46142  0.01231  0.18704  1.0000
  S   S130      1.0  0.46304  0.54890  0.30747  1.0000
  H   H355      1.0  0.47606  0.60029  0.27381  1.0000
  Fe  Fe63      1.0  0.48712  0.54133  0.38294  1.0000
  S   S131      1.0  0.45376  0.55174  0.37497  1.0000
  C   C362      1.0  0.49095  0.98962  0.45950  1.0000
  C   C363      1.0  0.49676  0.00344  0.00805  1.0000
  Fe  Fe64      1.0  0.48112  0.58057  0.34164  1.0000
  H   H356      1.0  0.41596  0.94335  0.41021  1.0000
  H   H357      1.0  0.33959  0.92116  0.37002  1.0000
  S   S132      1.0  0.29068  0.86826  0.29805  1.0000
  C   C364      1.0  0.51700  0.67812  0.32193  1.0000
  C   C365      1.0  0.34627  0.88789  0.38150  1.0000
  H   H358      1.0  0.49622  0.57311  0.25370  1.0000
  C   C366      1.0  0.27286  0.83193  0.20274  1.0000
  H   H359      1.0  0.29310  0.89736  0.21742  1.0000
  H   H360      1.0  0.33207  0.84634  0.25306  1.0000
  Fe  Fe65      1.0  0.43843  0.51929  0.34143  1.0000
  H   H361      1.0  0.48778  0.00131  0.02837  1.0000
  C   C367      1.0  0.37144  0.87314  0.32537  1.0000
  C   C368      1.0  0.37060  0.89660  0.31713  1.0000
  C   C369      1.0  0.34570  0.89456  0.30864  1.0000
  C   C370      1.0  0.32138  0.86914  0.30825  1.0000
  C   C371      1.0  0.32229  0.84561  0.31602  1.0000
  C   C372      1.0  0.34720  0.84764  0.32456  1.0000
  H   H362      1.0  0.38904  0.91634  0.31775  1.0000
  H   H363      1.0  0.34522  0.91289  0.30264  1.0000
  H   H364      1.0  0.30376  0.82591  0.31579  1.0000
  H   H365      1.0  0.34764  0.82937  0.33091  1.0000
  S   S133      1.0  0.48720  0.62364  0.33596  1.0000
  H   H366      1.0  0.50077  0.83334  0.29791  1.0000
  H   H367      1.0  0.42802  0.91035  0.42142  1.0000
  C   C373      1.0  0.51696  0.87138  0.32073  1.0000
  H   H368      1.0  0.32700  0.87220  0.37283  1.0000
  C   C374      1.0  0.49115  0.64188  0.26099  1.0000
  C   C375      1.0  0.50029  0.98094  0.24613  1.0000
  C   C376      1.0  0.37863  0.93548  0.39024  1.0000
  H   H369      1.0  0.49101  0.96176  0.25737  1.0000
  H   H370      1.0  0.30788  0.80167  0.22808  1.0000
  H   H371      1.0  0.49797  0.87175  0.32036  1.0000
  C   C377      1.0  0.30753  0.86174  0.23416  1.0000
  C   C378      1.0  0.35342  0.91543  0.37982  1.0000
  H   H372      1.0  0.38316  0.52453  0.31189  1.0000
  C   C379      1.0  0.51189  0.54466  0.05708  1.0000
  C   C380      1.0  0.40797  0.89235  0.41583  1.0000
  C   C381      1.0  0.49299  0.51863  0.24145  1.0000
  C   C382      1.0  0.36468  0.88080  0.39323  1.0000
  H   H373      1.0  0.35948  0.85944  0.39339  1.0000
  H   H374      1.0  0.47394  0.64293  0.26956  1.0000
  S   S134      1.0  0.49940  0.00565  0.29577  1.0000
  H   H375      1.0  0.39899  0.88037  0.43508  1.0000
  H   H376      1.0  0.38457  0.95699  0.38887  1.0000
  H   H377      1.0  0.47746  0.52006  0.25321  1.0000
  C   C383      1.0  0.51693  0.65308  0.32382  1.0000
  C   C384      1.0  0.39638  0.92762  0.40220  1.0000
  C   C385      1.0  0.49251  0.61777  0.26339  1.0000
  C   C386      1.0  0.51590  0.00594  0.20218  1.0000
  H   H378      1.0  0.41186  0.87964  0.40081  1.0000
  C   C387      1.0  0.31576  0.84226  0.23840  1.0000
  H   H379      1.0  0.49944  0.67930  0.32901  1.0000
  C   C388      1.0  0.28063  0.81201  0.20637  1.0000
  Fe  Fe66      1.0  0.50435  0.93052  0.34969  1.0000
  C   C389      1.0  0.50552  0.52366  0.45551  1.0000
  C   C390      1.0  0.30213  0.81721  0.22446  1.0000
  N   N29       1.0  0.38934  0.90057  0.40338  1.0000
  H   H380      1.0  0.45254  0.98841  0.22433  1.0000
  Fe  Fe67      1.0  0.49572  0.53908  0.31935  1.0000
  H   H381      1.0  0.46122  0.96838  0.99061  1.0000
  C   C391      1.0  0.51628  0.59156  0.25803  1.0000
  N   N30       1.0  0.28624  0.85638  0.21665  1.0000
  H   H382      1.0  0.51234  0.56028  0.07154  1.0000
  S   S135      1.0  0.50511  0.54433  0.42714  1.0000
  C   C392      1.0  0.48172  0.98473  0.98651  1.0000
  C   C393      1.0  0.27628  0.87596  0.21465  1.0000
  H   H383      1.0  0.49870  0.96226  0.20639  1.0000
  H   H384      1.0  0.51133  0.55135  0.03539  1.0000
  C   C394      1.0  0.50729  0.00534  0.26021  1.0000
  H   H385      1.0  0.34008  0.52080  0.29367  1.0000
  C   C395      1.0  0.45732  0.00816  0.21574  1.0000
  N   N31       1.0  0.48846  0.51766  0.06308  1.0000
  C   C396      1.0  0.51292  0.66507  0.24922  1.0000
  H   H386      1.0  0.45606  0.98130  0.48449  1.0000
  H   H387      1.0  0.49932  0.51927  0.10599  1.0000
  H   H388      1.0  0.51267  0.68427  0.24837  1.0000
  H   H389      1.0  0.45113  0.00362  0.26910  1.0000
  N   N32       1.0  0.51479  0.61666  0.25398  1.0000
  C   C397      1.0  0.47809  0.99222  0.48349  1.0000
  S   S136      1.0  0.51575  0.97411  0.36043  1.0000
  C   C398      1.0  0.51788  0.53649  0.48092  1.0000
  C   C399      1.0  0.51778  0.52498  0.25418  1.0000
  C   C400      1.0  0.51860  0.84961  0.30807  1.0000
  H   H390      1.0  0.26942  0.79235  0.19593  1.0000
  Fe  Fe68      1.0  0.50174  0.93097  0.84538  1.0000
  C   C401      1.0  0.51678  0.84823  0.80747  1.0000
  C   C402      1.0  0.41569  0.57718  0.84717  1.0000
  Fe  Fe69      1.0  0.44097  0.91410  0.84022  1.0000
  S   S137      1.0  0.44830  0.95529  0.85420  1.0000
  S   S138      1.0  0.40028  0.87729  0.82685  1.0000
  Fe  Fe70      1.0  0.48473  0.97198  0.82577  1.0000
  H   H391      1.0  0.39018  0.58365  0.78511  1.0000
  Fe  Fe71      1.0  0.47646  0.95397  0.88719  1.0000
  S   S139      1.0  0.47272  0.96234  0.93359  1.0000
  S   S140      1.0  0.47578  0.93089  0.80966  1.0000
  S   S141      1.0  0.46647  0.91107  0.87502  1.0000
  C   C403      1.0  0.48899  0.91252  0.94653  1.0000
  S   S142      1.0  0.46178  0.54007  0.81215  1.0000
  S   S143      1.0  0.49271  0.00779  0.79775  1.0000
  Fe  Fe72      1.0  0.49271  0.54075  0.88649  1.0000
  S   S144      1.0  0.46046  0.55267  0.87908  1.0000
  C   C404      1.0  0.49341  0.00873  0.50630  1.0000
  H   H392      1.0  0.43393  0.60352  0.81167  1.0000
  Fe  Fe73      1.0  0.48480  0.57593  0.84147  1.0000
  C   C405      1.0  0.44756  0.94372  0.72118  1.0000
  H   H393      1.0  0.41797  0.89031  0.76651  1.0000
  H   H394      1.0  0.49559  0.87019  0.81837  1.0000
  H   H395      1.0  0.39638  0.52772  0.88361  1.0000
  Fe  Fe74      1.0  0.49381  0.52909  0.82386  1.0000
  S   S145      1.0  0.28548  0.86846  0.79673  1.0000
  H   H396      1.0  0.49866  0.83067  0.79927  1.0000
  C   C406      1.0  0.43838  0.91753  0.73201  1.0000
  H   H397      1.0  0.43063  0.97477  0.79980  1.0000
  C   C407      1.0  0.41524  0.58727  0.82064  1.0000
  S   S146      1.0  0.51334  0.97378  0.85963  1.0000
  C   C408      1.0  0.36811  0.87496  0.81998  1.0000
  C   C409      1.0  0.34625  0.84989  0.81060  1.0000
  C   C410      1.0  0.32067  0.84730  0.80389  1.0000
  C   C411      1.0  0.31674  0.86991  0.80621  1.0000
  C   C412      1.0  0.33851  0.89493  0.81584  1.0000
  C   C413      1.0  0.36395  0.89741  0.82294  1.0000
  H   H398      1.0  0.34915  0.83235  0.80833  1.0000
  H   H399      1.0  0.30417  0.82793  0.79650  1.0000
  H   H400      1.0  0.33567  0.91253  0.81784  1.0000
  H   H401      1.0  0.38029  0.91669  0.83066  1.0000
  C   C414      1.0  0.49280  0.98705  0.95974  1.0000
  C   C415      1.0  0.49312  0.51810  0.74413  1.0000
  H   H402      1.0  0.49626  0.67171  0.82393  1.0000
  H   H403      1.0  0.35001  0.52807  0.85250  1.0000
  C   C416      1.0  0.49523  0.88004  0.91931  1.0000
  H   H404      1.0  0.44156  0.90270  0.72063  1.0000
  H   H405      1.0  0.41027  0.56127  0.89903  1.0000
  C   C417      1.0  0.44342  0.96262  0.73629  1.0000
  H   H406      1.0  0.47661  0.91738  0.96008  1.0000
  H   H407      1.0  0.43491  0.58595  0.85845  1.0000
  C   C418      1.0  0.50956  0.99038  0.75195  1.0000
  H   H408      1.0  0.27678  0.87026  0.85662  1.0000
  H   H409      1.0  0.34793  0.54574  0.80595  1.0000
  C   C419      1.0  0.42630  0.97547  0.77727  1.0000
  S   S147      1.0  0.51348  0.54641  0.92935  1.0000
  H   H410      1.0  0.40483  0.97066  0.77460  1.0000
  H   H411      1.0  0.50845  0.97420  0.76506  1.0000
  C   C420      1.0  0.47950  0.88568  0.93758  1.0000
  H   H412      1.0  0.27623  0.87882  0.90742  1.0000
  H   H413      1.0  0.45814  0.94956  0.70139  1.0000
  H   H414      1.0  0.45085  0.98300  0.72784  1.0000
  H   H415      1.0  0.48310  0.01035  0.52449  1.0000
  H   H416      1.0  0.47778  0.52222  0.70416  1.0000
  C   C421      1.0  0.42519  0.91056  0.75766  1.0000
  C   C422      1.0  0.39329  0.54565  0.88607  1.0000
  H   H417      1.0  0.37403  0.53904  0.89761  1.0000
  C   C423      1.0  0.36829  0.54522  0.84400  1.0000
  H   H418      1.0  0.41180  0.92462  0.79236  1.0000
  N   N33       1.0  0.39234  0.55659  0.85861  1.0000
  C   C424      1.0  0.39073  0.57613  0.80579  1.0000
  C   C425      1.0  0.51704  0.99192  0.72384  1.0000
  S   S148      1.0  0.48762  0.61736  0.83310  1.0000
  N   N34       1.0  0.43094  0.95575  0.76169  1.0000
  C   C426      1.0  0.42167  0.93006  0.77228  1.0000
  C   C427      1.0  0.50345  0.00971  0.76295  1.0000
  C   C428      1.0  0.36704  0.55503  0.81754  1.0000
  C   C429      1.0  0.48927  0.51436  0.71513  1.0000
  H   H419      1.0  0.45972  0.86944  0.94428  1.0000
  H   H420      1.0  0.48461  0.52875  0.75539  1.0000
  C   C430      1.0  0.51502  0.67205  0.81863  1.0000
  H   H421      1.0  0.48780  0.85937  0.91163  1.0000
  C   C431      1.0  0.51409  0.93344  0.93695  1.0000
  Fe  Fe75      1.0  0.44010  0.51632  0.85030  1.0000
  H   H422      1.0  0.44029  0.99685  0.77043  1.0000
  C   C432      1.0  0.51498  0.87065  0.81824  1.0000
  C   C433      1.0  0.51667  0.64794  0.82134  1.0000
  C   C434      1.0  0.51165  0.52396  0.95675  1.0000
  C   C435      1.0  0.51844  0.01274  0.70651  1.0000
  S   S149      1.0  0.51844  0.56654  0.85050  1.0000
  H   H423      1.0  0.66749  0.07772  0.09521  1.0000
  S   S150      1.0  0.54104  0.08393  0.15260  1.0000
  Fe  Fe76      1.0  0.53750  0.05788  0.07530  1.0000
  S   S151      1.0  0.54731  0.10095  0.08628  1.0000
  C   C436      1.0  0.66563  0.11420  0.08560  1.0000
  Fe  Fe77      1.0  0.57434  0.09934  0.12030  1.0000
  S   S152      1.0  0.61679  0.13707  0.12445  1.0000
  N   N35       1.0  0.74988  0.16183  0.26083  1.0000
  S   S153      1.0  0.56642  0.05751  0.10786  1.0000
  C   C437      1.0  0.62510  0.44598  0.16575  1.0000
  S   S154      1.0  0.55839  0.47431  0.14760  1.0000
  H   H424      1.0  0.58897  0.10275  0.04215  1.0000
  S   S155      1.0  0.55921  0.46119  0.08072  1.0000
  H   H425      1.0  0.52057  0.14551  0.13750  1.0000
  Fe  Fe78      1.0  0.53493  0.43846  0.11848  1.0000
  C   C438      1.0  0.75935  0.18703  0.27285  1.0000
  S   S156      1.0  0.72598  0.14396  0.17238  1.0000
  C   C439      1.0  0.65313  0.47320  0.12765  1.0000
  H   H426      1.0  0.63734  0.45712  0.06822  1.0000
  C   C440      1.0  0.64658  0.13882  0.13927  1.0000
  C   C441      1.0  0.64659  0.11578  0.15034  1.0000
  C   C442      1.0  0.67106  0.11782  0.16046  1.0000
  C   C443      1.0  0.69580  0.14283  0.15961  1.0000
  C   C444      1.0  0.69577  0.16592  0.14871  1.0000
  C   C445      1.0  0.67129  0.16388  0.13861  1.0000
  H   H427      1.0  0.62779  0.09634  0.15093  1.0000
  H   H428      1.0  0.67082  0.09983  0.16890  1.0000
  H   H429      1.0  0.71459  0.18531  0.14797  1.0000
  H   H430      1.0  0.67152  0.18183  0.13008  1.0000
  H   H431      1.0  0.55280  0.49916  0.29452  1.0000
  C   C446      1.0  0.72891  0.15218  0.24193  1.0000
  C   C447      1.0  0.60248  0.43499  0.14799  1.0000
  H   H432      1.0  0.53231  0.04954  0.20509  1.0000
  H   H433      1.0  0.52478  0.04907  0.25600  1.0000
  H   H434      1.0  0.65096  0.49260  0.07875  1.0000
  C   C448      1.0  0.74747  0.20310  0.26632  1.0000
  C   C449      1.0  0.65066  0.46506  0.15552  1.0000
  C   C450      1.0  0.53891  0.48825  0.31213  1.0000
  H   H435      1.0  0.66840  0.47407  0.16917  1.0000
  N   N36       1.0  0.54412  0.50637  0.33611  1.0000
  C   C451      1.0  0.60993  0.11897  0.04800  1.0000
  H   H436      1.0  0.59739  0.06625  0.04873  1.0000
  Fe  Fe79      1.0  0.58059  0.49774  0.10925  1.0000
  N   N37       1.0  0.62579  0.10743  0.06049  1.0000
  H   H437      1.0  0.61534  0.47162  0.07367  1.0000
  C   C452      1.0  0.71652  0.16768  0.23497  1.0000
  Fe  Fe80      1.0  0.52699  0.48633  0.13556  1.0000
  C   C453      1.0  0.52331  0.02480  0.00324  1.0000
  C   C454      1.0  0.61660  0.07989  0.05899  1.0000
  H   H438      1.0  0.68447  0.12779  0.09654  1.0000
  C   C455      1.0  0.63141  0.06875  0.07144  1.0000
  Fe  Fe81      1.0  0.53116  0.04210  0.13772  1.0000
  C   C456      1.0  0.52743  0.49653  0.35873  1.0000
  H   H439      1.0  0.72202  0.13266  0.23158  1.0000
  Fe  Fe82      1.0  0.52811  0.47448  0.07319  1.0000
  H   H440      1.0  0.58246  0.42004  0.15563  1.0000
  C   C457      1.0  0.60572  0.44349  0.12021  1.0000
  H   H441      1.0  0.62278  0.43976  0.18741  1.0000
  S   S157      1.0  0.53072  0.39639  0.12692  1.0000
  C   C458      1.0  0.65012  0.12458  0.07325  1.0000
  H   H442      1.0  0.65713  0.14634  0.07490  1.0000
  S   S158      1.0  0.55082  0.51256  0.09920  1.0000
  C   C459      1.0  0.63380  0.47130  0.08131  1.0000
  H   H443      1.0  0.58801  0.43461  0.10655  1.0000
  H   H444      1.0  0.70029  0.16012  0.21947  1.0000
  H   H445      1.0  0.74903  0.12355  0.26522  1.0000
  N   N38       1.0  0.63073  0.46277  0.11053  1.0000
  C   C460      1.0  0.72592  0.19331  0.24722  1.0000
  H   H446      1.0  0.67297  0.48857  0.12007  1.0000
  H   H447      1.0  0.71691  0.20578  0.24143  1.0000
  H   H448      1.0  0.60772  0.13269  0.06316  1.0000
  H   H449      1.0  0.62020  0.13075  0.02901  1.0000
  C   C461      1.0  0.65602  0.08606  0.08495  1.0000
  H   H450      1.0  0.62358  0.04680  0.07095  1.0000
  C   C462      1.0  0.76351  0.14592  0.26671  1.0000
  S   S159      1.0  0.54361  0.04912  0.02962  1.0000
  H   H451      1.0  0.52061  0.34151  0.13572  1.0000
  H   H452      1.0  0.54148  0.47057  0.31814  1.0000
  C   C463      1.0  0.52346  0.03041  0.21638  1.0000
  C   C464      1.0  0.53481  0.02045  0.48151  1.0000
  H   H453      1.0  0.75545  0.22330  0.27546  1.0000
  H   H454      1.0  0.55683  0.03121  0.48055  1.0000
  H   H455      1.0  0.54821  0.51258  0.19887  1.0000
  C   C465      1.0  0.51915  0.03007  0.24525  1.0000
  C   C466      1.0  0.59680  0.10516  0.52606  1.0000
  S   S160      1.0  0.54220  0.08908  0.65220  1.0000
  Fe  Fe83      1.0  0.53698  0.05786  0.57723  1.0000
  S   S161      1.0  0.54728  0.10166  0.58480  1.0000
  H   H456      1.0  0.53067  0.48665  0.75438  1.0000
  Fe  Fe84      1.0  0.57484  0.10246  0.61948  1.0000
  S   S162      1.0  0.61721  0.13965  0.62609  1.0000
  N   N39       1.0  0.60784  0.06927  0.70102  1.0000
  S   S163      1.0  0.56692  0.06020  0.61011  1.0000
  C   C467      1.0  0.61031  0.14550  0.55264  1.0000
  S   S164      1.0  0.54745  0.46903  0.65150  1.0000
  H   H457      1.0  0.60877  0.03172  0.70607  1.0000
  S   S165      1.0  0.55879  0.46335  0.58539  1.0000
  H   H458      1.0  0.59260  0.11979  0.69052  1.0000
  C   C468      1.0  0.57545  0.13250  0.51727  1.0000
  Fe  Fe85      1.0  0.57490  0.49668  0.61784  1.0000
  S   S166      1.0  0.72673  0.14088  0.66361  1.0000
  H   H459      1.0  0.55098  0.33568  0.64903  1.0000
  H   H460      1.0  0.66960  0.12578  0.71095  1.0000
  C   C469      1.0  0.64771  0.13955  0.63541  1.0000
  C   C470      1.0  0.64901  0.11534  0.63698  1.0000
  C   C471      1.0  0.67351  0.11623  0.64511  1.0000
  C   C472      1.0  0.69694  0.14123  0.65191  1.0000
  C   C473      1.0  0.69571  0.16544  0.65001  1.0000
  C   C474      1.0  0.67126  0.16457  0.64172  1.0000
  H   H461      1.0  0.63109  0.09591  0.63225  1.0000
  H   H462      1.0  0.67423  0.09737  0.64650  1.0000
  H   H463      1.0  0.71353  0.18482  0.65514  1.0000
  H   H464      1.0  0.67053  0.18344  0.64051  1.0000
  C   C475      1.0  0.64778  0.11345  0.70721  1.0000
  S   S167      1.0  0.54270  0.04426  0.53360  1.0000
  C   C476      1.0  0.63516  0.08483  0.70668  1.0000
  Fe  Fe86      1.0  0.52784  0.47612  0.57371  1.0000
  Fe  Fe87      1.0  0.53244  0.04645  0.64057  1.0000
  C   C477      1.0  0.53502  0.32448  0.66410  1.0000
  H   H465      1.0  0.58949  0.16816  0.54350  1.0000
  Fe  Fe88      1.0  0.52876  0.43640  0.61808  1.0000
  H   H466      1.0  0.64066  0.10795  0.54959  1.0000
  H   H467      1.0  0.64750  0.07527  0.71047  1.0000
  H   H468      1.0  0.56036  0.13572  0.50639  1.0000
  H   H469      1.0  0.63085  0.49510  0.58670  1.0000
  H   H470      1.0  0.57708  0.03015  0.71469  1.0000
  C   C478      1.0  0.63235  0.12609  0.70158  1.0000
  C   C479      1.0  0.57798  0.10961  0.51118  1.0000
  H   H471      1.0  0.62224  0.15919  0.56943  1.0000
  H   H472      1.0  0.57095  0.06909  0.69086  1.0000
  C   C480      1.0  0.59178  0.15068  0.53806  1.0000
  C   C481      1.0  0.76511  0.12261  0.58734  1.0000
  H   H473      1.0  0.55845  0.37660  0.69729  1.0000
  C   C482      1.0  0.59254  0.08150  0.69558  1.0000
  H   H474      1.0  0.67747  0.49586  0.65806  1.0000
  C   C483      1.0  0.53447  0.02700  0.97651  1.0000
  C   C484      1.0  0.59464  0.03930  0.70014  1.0000
  C   C485      1.0  0.54146  0.36825  0.68193  1.0000
  N   N40       1.0  0.61273  0.12304  0.54640  1.0000
  C   C486      1.0  0.60457  0.11008  0.69566  1.0000
  H   H475      1.0  0.63306  0.49109  0.64302  1.0000
  C   C487      1.0  0.63102  0.11692  0.56285  1.0000
  H   H476      1.0  0.55492  0.04341  0.97239  1.0000
  H   H477      1.0  0.64761  0.13568  0.57285  1.0000
  H   H478      1.0  0.59785  0.08671  0.52185  1.0000
  H   H479      1.0  0.58677  0.03182  0.67877  1.0000
  H   H480      1.0  0.76740  0.11168  0.54498  1.0000
  H   H481      1.0  0.61921  0.10211  0.57953  1.0000
  C   C488      1.0  0.52204  0.29581  0.66444  1.0000
  H   H482      1.0  0.60441  0.47493  0.53319  1.0000
  H   H483      1.0  0.74664  0.12371  0.58403  1.0000
  H   H484      1.0  0.64206  0.14828  0.70089  1.0000
  C   C489      1.0  0.60492  0.49441  0.53511  1.0000
  C   C490      1.0  0.52195  0.02296  0.50553  1.0000
  H   H485      1.0  0.57045  0.48231  0.50730  1.0000
  H   H486      1.0  0.56467  0.09468  0.49584  1.0000
  C   C491      1.0  0.58573  0.49843  0.52039  1.0000
  N   N41       1.0  0.52731  0.33821  0.68214  1.0000
  H   H487      1.0  0.54972  0.37649  0.66094  1.0000
  H   H488      1.0  0.52719  0.37591  0.68693  1.0000
  S   S168      1.0  0.52815  0.01384  0.67144  1.0000
  H   H489      1.0  0.52785  0.28490  0.64985  1.0000
  S   S169      1.0  0.52149  0.39249  0.62028  1.0000
  H   H490      1.0  0.52390  0.48022  0.70326  1.0000
  H   H491      1.0  0.65107  0.49901  0.55610  1.0000
  S   S170      1.0  0.54602  0.51137  0.60390  1.0000
  C   C492      1.0  0.64206  0.50883  0.56904  1.0000
  C   C493      1.0  0.65100  0.51118  0.64423  1.0000
  H   H492      1.0  0.51974  0.14402  0.65000  1.0000
  C   C494      1.0  0.51910  0.49445  0.74347  1.0000
  Fe  Fe89      1.0  0.63825  0.82875  0.30403  1.0000
  S   S171      1.0  0.59596  0.79682  0.31664  1.0000
  S   S172      1.0  0.67452  0.85013  0.33363  1.0000
  Fe  Fe90      1.0  0.62455  0.82308  0.24097  1.0000
  S   S173      1.0  0.58116  0.79018  0.24953  1.0000
  S   S174      1.0  0.63591  0.84094  0.19650  1.0000
  Fe  Fe91      1.0  0.58214  0.81713  0.28490  1.0000
  S   S175      1.0  0.54475  0.82234  0.28971  1.0000
  Fe  Fe92      1.0  0.59826  0.77251  0.28063  1.0000
  S   S176      1.0  0.58977  0.72825  0.28421  1.0000
  S   S177      1.0  0.62433  0.85095  0.27482  1.0000
  S   S178      1.0  0.64170  0.80347  0.26961  1.0000
  C   C495      1.0  0.59468  0.90983  0.26478  1.0000
  S   S179      1.0  0.72829  0.83696  0.02050  1.0000
  H   H493      1.0  0.54001  0.63274  0.31605  1.0000
  S   S180      1.0  0.71205  0.88521  0.02299  1.0000
  Fe  Fe93      1.0  0.72865  0.86618  0.05298  1.0000
  S   S181      1.0  0.71442  0.84759  0.09682  1.0000
  H   H494      1.0  0.64881  0.86866  0.14374  1.0000
  S   S182      1.0  0.67092  0.83741  0.46538  1.0000
  H   H495      1.0  0.64890  0.87669  0.44565  1.0000
  Fe  Fe94      1.0  0.71484  0.85842  0.98988  1.0000
  H   H496      1.0  0.64774  0.83478  0.01148  1.0000
  C   C496      1.0  0.53630  0.63937  0.24253  1.0000
  S   S183      1.0  0.72902  0.55036  0.17903  1.0000
  C   C497      1.0  0.65464  0.53469  0.12528  1.0000
  H   H497      1.0  0.63758  0.76292  0.32327  1.0000
  C   C498      1.0  0.55136  0.87636  0.24531  1.0000
  C   C499      1.0  0.70098  0.54669  0.15866  1.0000
  C   C500      1.0  0.70428  0.55656  0.13138  1.0000
  C   C501      1.0  0.68124  0.55056  0.11482  1.0000
  H   H498      1.0  0.54342  0.69650  0.39252  1.0000
  H   H499      1.0  0.72452  0.56789  0.12275  1.0000
  C   C502      1.0  0.56507  0.53292  0.33569  1.0000
  H   H500      1.0  0.73223  0.62092  0.12532  1.0000
  C   C503      1.0  0.57872  0.88505  0.25092  1.0000
  C   C504      1.0  0.56176  0.70002  0.30038  1.0000
  C   C505      1.0  0.56200  0.67516  0.30290  1.0000
  H   H501      1.0  0.67161  0.52344  0.19032  1.0000
  H   H502      1.0  0.57009  0.68062  0.36516  1.0000
  H   H503      1.0  0.60469  0.77976  0.37690  1.0000
  H   H504      1.0  0.55693  0.52775  0.24824  1.0000
  H   H505      1.0  0.57936  0.67387  0.29540  1.0000
  H   H506      1.0  0.66839  0.78314  0.05941  1.0000
  H   H507      1.0  0.56110  0.74655  0.39858  1.0000
  C   C506      1.0  0.53993  0.89265  0.33372  1.0000
  C   C507      1.0  0.54320  0.84893  0.30809  1.0000
  C   C508      1.0  0.56606  0.87000  0.32142  1.0000
  C   C509      1.0  0.56439  0.89171  0.33418  1.0000
  H   H508      1.0  0.64153  0.79507  0.12535  1.0000
  Fe  Fe95      1.0  0.75586  0.91510  0.01160  1.0000
  C   C510      1.0  0.54026  0.89258  0.25380  1.0000
  H   H509      1.0  0.58509  0.86975  0.32161  1.0000
  H   H510      1.0  0.58225  0.90804  0.34424  1.0000
  H   H511      1.0  0.63994  0.78981  0.34484  1.0000
  C   C511      1.0  0.67292  0.84494  0.37004  1.0000
  C   C512      1.0  0.64828  0.83421  0.38441  1.0000
  C   C513      1.0  0.64791  0.83131  0.41355  1.0000
  C   C514      1.0  0.67221  0.83960  0.42862  1.0000
  C   C515      1.0  0.69684  0.85031  0.41424  1.0000
  C   C516      1.0  0.69715  0.85287  0.38505  1.0000
  H   H512      1.0  0.62966  0.82885  0.37311  1.0000
  H   H513      1.0  0.62880  0.82320  0.42458  1.0000
  H   H514      1.0  0.71567  0.85671  0.42557  1.0000
  H   H515      1.0  0.71632  0.86129  0.37408  1.0000
  C   C517      1.0  0.65972  0.84445  0.17011  1.0000
  C   C518      1.0  0.67628  0.83246  0.17227  1.0000
  C   C519      1.0  0.69367  0.83466  0.15012  1.0000
  C   C520      1.0  0.69486  0.84885  0.12543  1.0000
  C   C521      1.0  0.67885  0.86146  0.12356  1.0000
  C   C522      1.0  0.66132  0.85910  0.14564  1.0000
  H   H516      1.0  0.67548  0.82124  0.19090  1.0000
  H   H517      1.0  0.70601  0.82491  0.15197  1.0000
  H   H518      1.0  0.67958  0.87260  0.10490  1.0000
  S   S184      1.0  0.53967  0.92153  0.34829  1.0000
  H   H519      1.0  0.76605  0.76401  0.47758  1.0000
  H   H520      1.0  0.65468  0.76973  0.35688  1.0000
  H   H521      1.0  0.59524  0.94442  0.28442  1.0000
  H   H522      1.0  0.67030  0.89344  0.40123  1.0000
  H   H523      1.0  0.71540  0.92540  0.47645  1.0000
  N   N42       1.0  0.76140  0.63884  0.09305  1.0000
  H   H524      1.0  0.66760  0.80418  0.01436  1.0000
  H   H525      1.0  0.54485  0.52647  0.01784  1.0000
  C   C523      1.0  0.71476  0.92314  0.45400  1.0000
  C   C524      1.0  0.73866  0.93276  0.41033  1.0000
  C   C525      1.0  0.53932  0.70151  0.31034  1.0000
  H   H526      1.0  0.65770  0.91014  0.45932  1.0000
  H   H527      1.0  0.75754  0.94207  0.39866  1.0000
  H   H528      1.0  0.58541  0.57173  0.35740  1.0000
  C   C526      1.0  0.76142  0.62006  0.07494  1.0000
  C   C527      1.0  0.71368  0.91762  0.39660  1.0000
  C   C528      1.0  0.68959  0.90548  0.41206  1.0000
  C   C529      1.0  0.73924  0.93574  0.43920  1.0000
  H   H529      1.0  0.68400  0.55779  0.09356  1.0000
  H   H530      1.0  0.61320  0.71460  0.34275  1.0000
  N   N43       1.0  0.61142  0.74912  0.35846  1.0000
  C   C530      1.0  0.59722  0.75806  0.37419  1.0000
  C   C531      1.0  0.60213  0.72168  0.35551  1.0000
  C   C532      1.0  0.57256  0.73934  0.38664  1.0000
  C   C533      1.0  0.57774  0.70238  0.36802  1.0000
  C   C534      1.0  0.56273  0.71131  0.38338  1.0000
  C   C535      1.0  0.63717  0.76882  0.34530  1.0000
  H   H531      1.0  0.62712  0.82029  0.09813  1.0000
  C   C536      1.0  0.75469  0.63151  0.12240  1.0000
  S   S185      1.0  0.62646  0.52578  0.10258  1.0000
  H   H532      1.0  0.57778  0.54102  0.31740  1.0000
  H   H533      1.0  0.66809  0.88818  0.47703  1.0000
  C   C537      1.0  0.63587  0.81653  0.07975  1.0000
  H   H534      1.0  0.62752  0.84304  0.05380  1.0000
  H   H535      1.0  0.53106  0.54382  0.05957  1.0000
  H   H536      1.0  0.63174  0.76409  0.10581  1.0000
  C   C538      1.0  0.52980  0.51797  0.00135  1.0000
  C   C539      1.0  0.58290  0.92552  0.27306  1.0000
  H   H537      1.0  0.71292  0.91476  0.37418  1.0000
  C   C540      1.0  0.53974  0.65182  0.31461  1.0000
  H   H538      1.0  0.55441  0.63888  0.23602  1.0000
  C   C541      1.0  0.63595  0.82940  0.05474  1.0000
  H   H539      1.0  0.75852  0.94752  0.45017  1.0000
  S   S186      1.0  0.75064  0.88781  0.47814  1.0000
  N   N44       1.0  0.64737  0.80008  0.08121  1.0000
  C   C542      1.0  0.64683  0.78624  0.10730  1.0000
  N   N45       1.0  0.69041  0.90791  0.44044  1.0000
  C   C543      1.0  0.66500  0.89527  0.45636  1.0000
  C   C544      1.0  0.64730  0.82482  0.03103  1.0000
  H   H540      1.0  0.66739  0.78892  0.11176  1.0000
  C   C545      1.0  0.54378  0.93328  0.27632  1.0000
  C   C546      1.0  0.76657  0.66398  0.08369  1.0000
  H   H541      1.0  0.75719  0.60010  0.08234  1.0000
  C   C547      1.0  0.56942  0.55047  0.35818  1.0000
  C   C548      1.0  0.65873  0.79566  0.05811  1.0000
  C   C549      1.0  0.65858  0.80769  0.03265  1.0000
  N   N46       1.0  0.55594  0.91667  0.26774  1.0000
  H   H542      1.0  0.52322  0.92003  0.28531  1.0000
  H   H543      1.0  0.54208  0.94474  0.25828  1.0000
  C   C550      1.0  0.65135  0.52538  0.15277  1.0000
  H   H544      1.0  0.58727  0.87216  0.24524  1.0000
  H   H545      1.0  0.61582  0.91642  0.26972  1.0000
  H   H546      1.0  0.53892  0.72053  0.30867  1.0000
  C   C551      1.0  0.67440  0.53123  0.16927  1.0000
  H   H547      1.0  0.55503  0.55404  0.39868  1.0000
  H   H548      1.0  0.53860  0.85661  0.23552  1.0000
  H   H549      1.0  0.51880  0.88535  0.24999  1.0000
  H   H550      1.0  0.55599  0.94811  0.29302  1.0000
  H   H551      1.0  0.76449  0.64998  0.13600  1.0000
  C   C552      1.0  0.53275  0.51414  0.21064  1.0000
  C   C553      1.0  0.53761  0.52271  0.23866  1.0000
  H   H552      1.0  0.52979  0.00222  0.44054  1.0000
  S   S187      1.0  0.52525  0.53649  0.28912  1.0000
  C   C554      1.0  0.53565  0.66387  0.23989  1.0000
  C   C555      1.0  0.55241  0.54059  0.38128  1.0000
  H   H553      1.0  0.55316  0.68219  0.23185  1.0000
  H   H554      1.0  0.53125  0.59053  0.24386  1.0000
  S   S188      1.0  0.76557  0.95981  0.00760  1.0000
  H   H555      1.0  0.52572  0.55829  0.48320  1.0000
  H   H556      1.0  0.76249  0.61787  0.12967  1.0000
  H   H557      1.0  0.76671  0.67892  0.09806  1.0000
  H   H558      1.0  0.52232  0.59046  0.27986  1.0000
  S   S189      1.0  0.51874  0.00500  0.16555  1.0000
  C   C556      1.0  0.51949  0.00395  0.45870  1.0000
  C   C557      1.0  0.76750  0.62657  0.04679  1.0000
  C   C558      1.0  0.53139  0.51344  0.38163  1.0000
  H   H559      1.0  0.76837  0.61202  0.03260  1.0000
  H   H560      1.0  0.63104  0.51320  0.16114  1.0000
  Fe  Fe96      1.0  0.63779  0.82863  0.80433  1.0000
  S   S190      1.0  0.59628  0.79676  0.81894  1.0000
  S   S191      1.0  0.67466  0.85361  0.83216  1.0000
  Fe  Fe97      1.0  0.62195  0.82004  0.74182  1.0000
  S   S192      1.0  0.57914  0.78705  0.75245  1.0000
  S   S193      1.0  0.63072  0.83566  0.69636  1.0000
  Fe  Fe98      1.0  0.58072  0.81523  0.78683  1.0000
  S   S194      1.0  0.54321  0.82042  0.79151  1.0000
  Fe  Fe99      1.0  0.59786  0.77121  0.78369  1.0000
  S   S195      1.0  0.59075  0.72765  0.78946  1.0000
  S   S196      1.0  0.62221  0.84896  0.77465  1.0000
  S   S197      1.0  0.64075  0.80232  0.77074  1.0000
  H   H561      1.0  0.75897  0.00824  0.91953  1.0000
  S   S198      1.0  0.72297  0.83397  0.52077  1.0000
  C   C559      1.0  0.57345  0.56302  0.76110  1.0000
  S   S199      1.0  0.70863  0.88371  0.52789  1.0000
  Fe  Fe100     1.0  0.72575  0.86308  0.55485  1.0000
  S   S200      1.0  0.71691  0.85055  0.60116  1.0000
  H   H562      1.0  0.63508  0.85079  0.63851  1.0000
  S   S201      1.0  0.67781  0.83286  0.96215  1.0000
  H   H563      1.0  0.73131  0.94641  0.56690  1.0000
  H   H564      1.0  0.76148  0.80439  0.49051  1.0000
  S   S202      1.0  0.61835  0.53228  0.62490  1.0000
  C   C560      1.0  0.59328  0.87173  0.72659  1.0000
  S   S203      1.0  0.73126  0.54194  0.66501  1.0000
  C   C561      1.0  0.64919  0.53439  0.63719  1.0000
  C   C562      1.0  0.55839  0.56094  0.71256  1.0000
  H   H565      1.0  0.54654  0.55591  0.97826  1.0000
  C   C563      1.0  0.69992  0.53987  0.65461  1.0000
  C   C564      1.0  0.69801  0.56308  0.64773  1.0000
  C   C565      1.0  0.67282  0.56032  0.63901  1.0000
  C   C566      1.0  0.53074  0.53462  0.97879  1.0000
  H   H566      1.0  0.71600  0.58314  0.64902  1.0000
  H   H567      1.0  0.52828  0.01060  0.93455  1.0000
  H   H568      1.0  0.63503  0.75337  0.90738  1.0000
  S   S204      1.0  0.76063  0.95765  0.51330  1.0000
  C   C567      1.0  0.56174  0.69736  0.80177  1.0000
  H   H569      1.0  0.70987  0.90147  0.64367  1.0000
  C   C568      1.0  0.57733  0.54686  0.67541  1.0000
  Fe  Fe101     1.0  0.75176  0.91319  0.51476  1.0000
  H   H570      1.0  0.69762  0.92199  0.60455  1.0000
  H   H571      1.0  0.62464  0.91125  0.74129  1.0000
  C   C569      1.0  0.55649  0.88471  0.75039  1.0000
  H   H572      1.0  0.60520  0.54613  0.73791  1.0000
  H   H573      1.0  0.52606  0.84434  0.73750  1.0000
  N   N47       1.0  0.52953  0.92770  0.91929  1.0000
  C   C570      1.0  0.54181  0.84840  0.80707  1.0000
  C   C571      1.0  0.56507  0.87125  0.81771  1.0000
  C   C572      1.0  0.56326  0.89363  0.82854  1.0000
  C   C573      1.0  0.55939  0.55557  0.68428  1.0000
  H   H574      1.0  0.54402  0.80982  0.72841  1.0000
  H   H575      1.0  0.59461  0.72884  0.88131  1.0000
  H   H576      1.0  0.58448  0.87174  0.81748  1.0000
  H   H577      1.0  0.58140  0.91117  0.83671  1.0000
  C   C574      1.0  0.73655  0.93759  0.58440  1.0000
  C   C575      1.0  0.67450  0.84919  0.86871  1.0000
  C   C576      1.0  0.65094  0.83053  0.88288  1.0000
  C   C577      1.0  0.65211  0.82627  0.91166  1.0000
  C   C578      1.0  0.67680  0.84058  0.92652  1.0000
  C   C579      1.0  0.70023  0.85958  0.91245  1.0000
  C   C580      1.0  0.69905  0.86386  0.88369  1.0000
  H   H578      1.0  0.63191  0.81917  0.87163  1.0000
  H   H579      1.0  0.63387  0.81159  0.92239  1.0000
  H   H580      1.0  0.71935  0.87071  0.92363  1.0000
  H   H581      1.0  0.71736  0.87834  0.87291  1.0000
  C   C581      1.0  0.65415  0.83825  0.66986  1.0000
  C   C582      1.0  0.67554  0.83293  0.67498  1.0000
  C   C583      1.0  0.69400  0.83616  0.65354  1.0000
  C   C584      1.0  0.69142  0.84464  0.62657  1.0000
  C   C585      1.0  0.66988  0.84972  0.62136  1.0000
  C   C586      1.0  0.65154  0.84669  0.64287  1.0000
  H   H582      1.0  0.67792  0.82639  0.69549  1.0000
  H   H583      1.0  0.71045  0.83205  0.65792  1.0000
  H   H584      1.0  0.66747  0.85620  0.60083  1.0000
  N   N48       1.0  0.62331  0.51429  0.55258  1.0000
  N   N49       1.0  0.63314  0.75770  0.86336  1.0000
  C   C587      1.0  0.64598  0.76387  0.88876  1.0000
  C   C588      1.0  0.67334  0.78433  0.89122  1.0000
  C   C589      1.0  0.58433  0.90345  0.75198  1.0000
  C   C590      1.0  0.60290  0.89703  0.73989  1.0000
  C   C591      1.0  0.72478  0.91236  0.62757  1.0000
  H   H585      1.0  0.68320  0.78993  0.91151  1.0000
  C   C592      1.0  0.54762  0.85943  0.73730  1.0000
  C   C593      1.0  0.67427  0.79199  0.84172  1.0000
  C   C594      1.0  0.53743  0.69665  0.80901  1.0000
  C   C595      1.0  0.68748  0.79852  0.86752  1.0000
  H   H586      1.0  0.54413  0.56740  0.71928  1.0000
  S   S205      1.0  0.75744  0.88912  0.97666  1.0000
  H   H587      1.0  0.53578  0.71495  0.80695  1.0000
  H   H588      1.0  0.52169  0.97684  0.71547  1.0000
  H   H589      1.0  0.63683  0.76640  0.81990  1.0000
  H   H590      1.0  0.56669  0.96521  0.92558  1.0000
  C   C596      1.0  0.67624  0.51394  0.65277  1.0000
  H   H591      1.0  0.55109  0.96070  0.89154  1.0000
  C   C597      1.0  0.56344  0.67330  0.80465  1.0000
  H   H592      1.0  0.54274  0.63044  0.81640  1.0000
  H   H593      1.0  0.60309  0.71842  0.84909  1.0000
  C   C598      1.0  0.60452  0.73616  0.86078  1.0000
  C   C599      1.0  0.58542  0.52292  0.52368  1.0000
  H   H594      1.0  0.60344  0.56177  0.54495  1.0000
  H   H595      1.0  0.59268  0.74395  0.84908  1.0000
  H   H596      1.0  0.58214  0.67360  0.79916  1.0000
  H   H597      1.0  0.68478  0.80355  0.82331  1.0000
  N   N50       1.0  0.74968  0.91373  0.62823  1.0000
  H   H598      1.0  0.56866  0.94249  0.90055  1.0000
  H   H599      1.0  0.60788  0.86680  0.71752  1.0000
  C   C600      1.0  0.55603  0.82617  0.71299  1.0000
  C   C601      1.0  0.76204  0.93932  0.58553  1.0000
  H   H600      1.0  0.54194  0.88918  0.76040  1.0000
  H   H601      1.0  0.55527  0.56501  0.76602  1.0000
  N   N51       1.0  0.57451  0.55726  0.73150  1.0000
  S   S206      1.0  0.53736  0.92241  0.84266  1.0000
  C   C602      1.0  0.52033  0.90143  0.91029  1.0000
  H   H602      1.0  0.54583  0.55748  0.66942  1.0000
  N   N52       1.0  0.56597  0.85315  0.72583  1.0000
  H   H603      1.0  0.59147  0.92264  0.76308  1.0000
  C   C603      1.0  0.59228  0.54886  0.72293  1.0000
  Fe  Fe102     1.0  0.76513  0.86657  0.50820  1.0000
  H   H604      1.0  0.67171  0.57844  0.63362  1.0000
  C   C604      1.0  0.55531  0.95015  0.90883  1.0000
  C   C605      1.0  0.53826  0.89351  0.82882  1.0000
  C   C606      1.0  0.64699  0.77129  0.84000  1.0000
  C   C607      1.0  0.60408  0.54300  0.54166  1.0000
  C   C608      1.0  0.71773  0.92400  0.60551  1.0000
  C   C609      1.0  0.62303  0.53834  0.55602  1.0000
  H   H605      1.0  0.70832  0.81523  0.86928  1.0000
  C   C610      1.0  0.54110  0.64876  0.81441  1.0000
  Fe  Fe103     1.0  0.70882  0.85707  0.49297  1.0000
  H   H606      1.0  0.63703  0.55379  0.57051  1.0000
  H   H607      1.0  0.57829  0.54260  0.65357  1.0000
  H   H608      1.0  0.53215  0.89694  0.89562  1.0000
  H   H609      1.0  0.74028  0.89140  0.66667  1.0000
  H   H610      1.0  0.75884  0.88334  0.64192  1.0000
  H   H611      1.0  0.54294  0.82381  0.69469  1.0000
  H   H612      1.0  0.57304  0.82304  0.70589  1.0000
  H   H613      1.0  0.60802  0.53681  0.68786  1.0000
  H   H614      1.0  0.65916  0.52797  0.57794  1.0000
  C   C611      1.0  0.59397  0.54354  0.69476  1.0000
  H   H615      1.0  0.59203  0.58233  0.76722  1.0000
  H   H616      1.0  0.52083  0.95439  0.94331  1.0000
  C   C612      1.0  0.51938  0.00836  0.95493  1.0000
  H   H617      1.0  0.52945  0.53174  0.52284  1.0000
  C   C613      1.0  0.75655  0.90041  0.65068  1.0000
  H   H618      1.0  0.57029  0.52598  0.51277  1.0000
  C   C614      1.0  0.52010  0.52146  0.50350  1.0000
  H   H619      1.0  0.57180  0.54587  0.77415  1.0000
  C   C615      1.0  0.76817  0.92688  0.60753  1.0000
  H   H620      1.0  0.88272  0.48231  0.06747  1.0000
  C   C616      1.0  0.98775  0.50424  0.25077  1.0000
  C   C617      1.0  0.80856  0.05046  0.04851  1.0000
  Fe  Fe104     1.0  0.85810  0.14193  0.40605  1.0000
  S   S207      1.0  0.88971  0.12962  0.41533  1.0000
  S   S208      1.0  0.84510  0.13768  0.35987  1.0000
  Fe  Fe105     1.0  0.86452  0.10646  0.45241  1.0000
  H   H621      1.0  0.01762  0.14558  0.43279  1.0000
  Fe  Fe106     1.0  0.90977  0.16619  0.44359  1.0000
  S   S209      1.0  0.82813  0.15439  0.00126  1.0000
  S   S210      1.0  0.83128  0.11582  0.44123  1.0000
  S   S211      1.0  0.87961  0.18003  0.43224  1.0000
  Fe  Fe107     1.0  0.81422  0.24036  0.17010  1.0000
  S   S212      1.0  0.84739  0.23242  0.18502  1.0000
  S   S213      1.0  0.81931  0.28160  0.15611  1.0000
  H   H622      1.0  0.01231  0.23359  0.43071  1.0000
  S   S214      1.0  0.80051  0.16745  0.19036  1.0000
  Fe  Fe108     1.0  0.81774  0.20486  0.21773  1.0000
  S   S215      1.0  0.82860  0.20885  0.26462  1.0000
  Fe  Fe109     1.0  0.82748  0.19557  0.15662  1.0000
  S   S216      1.0  0.85516  0.18728  0.12901  1.0000
  C   C618      1.0  0.97018  0.43913  0.25063  1.0000
  S   S217      1.0  0.79596  0.20503  0.13969  1.0000
  C   C619      1.0  0.97988  0.18987  0.48406  1.0000
  Fe  Fe110     1.0  0.93344  0.43921  0.12273  1.0000
  S   S218      1.0  0.97626  0.46967  0.10906  1.0000
  S   S219      1.0  0.92702  0.39642  0.13238  1.0000
  Fe  Fe111     1.0  0.97433  0.49685  0.14231  1.0000
  N   N53       1.0  0.83150  0.07224  0.03781  1.0000
  Fe  Fe112     1.0  0.95769  0.48741  0.07993  1.0000
  H   H623      1.0  0.96309  0.43832  0.27176  1.0000
  S   S220      1.0  0.93271  0.46579  0.15737  1.0000
  S   S221      1.0  0.91481  0.45488  0.09111  1.0000
  H   H624      1.0  0.01333  0.16905  0.99561  1.0000
  C   C620      1.0  0.83283  0.03527  0.47547  1.0000
  C   C621      1.0  0.89600  0.49817  0.05217  1.0000
  C   C622      1.0  0.90377  0.17431  0.31665  1.0000
  Fe  Fe113     1.0  0.85520  0.15335  0.46821  1.0000
  C   C623      1.0  0.93606  0.10373  0.48450  1.0000
  H   H625      1.0  0.91799  0.10601  0.44583  1.0000
  C   C624      1.0  0.83015  0.02263  0.04667  1.0000
  H   H626      1.0  0.91078  0.23622  0.33255  1.0000
  C   C625      1.0  0.01316  0.18695  0.98754  1.0000
  S   S222      1.0  0.78551  0.21546  0.20459  1.0000
  C   C626      1.0  0.84959  0.31364  0.15074  1.0000
  C   C627      1.0  0.84729  0.33621  0.14148  1.0000
  C   C628      1.0  0.87067  0.36179  0.13618  1.0000
  C   C629      1.0  0.89672  0.36504  0.13980  1.0000
  C   C630      1.0  0.89903  0.34250  0.14919  1.0000
  C   C631      1.0  0.87567  0.31703  0.15485  1.0000
  H   H627      1.0  0.82725  0.33389  0.13831  1.0000
  H   H628      1.0  0.86850  0.37887  0.12896  1.0000
  H   H629      1.0  0.91907  0.34479  0.15218  1.0000
  H   H630      1.0  0.87788  0.30010  0.16240  1.0000
  C   C632      1.0  0.85361  0.06961  0.03102  1.0000
  C   C633      1.0  0.83177  0.09796  0.03176  1.0000
  C   C634      1.0  0.92019  0.18791  0.36366  1.0000
  C   C635      1.0  0.91205  0.16871  0.34208  1.0000
  H   H631      1.0  0.90868  0.27564  0.10622  1.0000
  C   C636      1.0  0.98247  0.51151  0.48364  1.0000
  C   C637      1.0  0.98308  0.20352  0.45879  1.0000
  C   C638      1.0  0.83998  0.15768  0.33402  1.0000
  C   C639      1.0  0.83435  0.14792  0.30638  1.0000
  C   C640      1.0  0.83110  0.16329  0.28486  1.0000
  C   C641      1.0  0.83313  0.18864  0.29070  1.0000
  C   C642      1.0  0.83869  0.19838  0.31835  1.0000
  C   C643      1.0  0.84214  0.18309  0.33985  1.0000
  H   H632      1.0  0.83268  0.12834  0.30154  1.0000
  H   H633      1.0  0.82704  0.15549  0.26377  1.0000
  H   H634      1.0  0.84027  0.21792  0.32321  1.0000
  H   H635      1.0  0.84640  0.19092  0.36092  1.0000
  C   C644      1.0  0.83603  0.16334  0.03676  1.0000
  C   C645      1.0  0.86143  0.16996  0.04817  1.0000
  C   C646      1.0  0.86680  0.17672  0.07661  1.0000
  C   C647      1.0  0.84701  0.17730  0.09377  1.0000
  C   C648      1.0  0.82165  0.17076  0.08233  1.0000
  C   C649      1.0  0.81619  0.16372  0.05397  1.0000
  H   H636      1.0  0.87697  0.16998  0.03509  1.0000
  H   H637      1.0  0.88649  0.18181  0.08529  1.0000
  H   H638      1.0  0.80622  0.17106  0.09532  1.0000
  H   H639      1.0  0.79647  0.15858  0.04532  1.0000
  C   C650      1.0  0.85336  0.04488  0.03557  1.0000
  C   C651      1.0  0.99087  0.50626  0.00839  1.0000
  H   H640      1.0  0.87665  0.23090  0.05855  1.0000
  C   C652      1.0  0.91180  0.21758  0.33518  1.0000
  N   N54       1.0  0.98866  0.44289  0.19640  1.0000
  H   H641      1.0  0.94666  0.42240  0.18439  1.0000
  H   H642      1.0  0.88404  0.49620  0.03305  1.0000
  H   H643      1.0  0.92985  0.41898  0.23234  1.0000
  H   H644      1.0  0.96877  0.49516  0.26215  1.0000
  S   S223      1.0  0.86155  0.06518  0.46206  1.0000
  H   H645      1.0  0.85489  0.26789  0.12337  1.0000
  H   H646      1.0  0.80486  0.23828  0.05014  1.0000
  H   H647      1.0  0.87060  0.04265  0.02931  1.0000
  S   S224      1.0  0.87964  0.48930  0.12901  1.0000
  H   H648      1.0  0.01267  0.46093  0.26227  1.0000
  C   C653      1.0  0.95160  0.42849  0.22856  1.0000
  H   H649      1.0  0.81762  0.10093  0.04543  1.0000
  H   H650      1.0  0.00597  0.48276  0.02976  1.0000
  C   C654      1.0  0.89196  0.25421  0.10890  1.0000
  H   H651      1.0  0.81474  0.26125  0.09656  1.0000
  H   H652      1.0  0.83392  0.49795  0.13471  1.0000
  N   N55       1.0  0.92016  0.21205  0.35997  1.0000
  C   C655      1.0  0.99869  0.44550  0.16787  1.0000
  H   H653      1.0  0.91106  0.14915  0.34546  1.0000
  H   H654      1.0  0.00693  0.46693  0.16061  1.0000
  H   H655      1.0  0.82577  0.09821  0.00972  1.0000
  H   H656      1.0  0.79067  0.05220  0.05299  1.0000
  C   C656      1.0  0.92767  0.23153  0.38308  1.0000
  H   H657      1.0  0.92609  0.18316  0.38352  1.0000
  H   H658      1.0  0.77657  0.19508  0.28715  1.0000
  H   H659      1.0  0.89630  0.20299  0.29373  1.0000
  C   C657      1.0  0.90371  0.19892  0.31308  1.0000
  C   C658      1.0  0.99808  0.45177  0.24531  1.0000
  H   H660      1.0  0.90894  0.22968  0.39262  1.0000
  H   H661      1.0  0.93930  0.22766  0.39957  1.0000
  H   H662      1.0  0.94084  0.25286  0.37570  1.0000
  H   H663      1.0  0.96231  0.13875  0.42459  1.0000
  H   H664      1.0  0.91262  0.49386  0.04666  1.0000
  H   H665      1.0  0.83625  0.22306  0.03121  1.0000
  C   C659      1.0  0.84040  0.23336  0.05124  1.0000
  H   H666      1.0  0.89913  0.23981  0.10258  1.0000
  C   C660      1.0  0.82823  0.25457  0.08788  1.0000
  N   N56       1.0  0.86798  0.24962  0.09267  1.0000
  H   H667      1.0  0.85240  0.11586  0.03528  1.0000
  H   H668      1.0  0.88679  0.25021  0.13137  1.0000
  C   C661      1.0  0.01190  0.15771  0.44659  1.0000
  H   H669      1.0  0.87129  0.08641  0.02122  1.0000
  C   C662      1.0  0.93684  0.11300  0.45742  1.0000
  C   C663      1.0  0.86321  0.23774  0.06689  1.0000
  S   S225      1.0  0.95503  0.19582  0.43629  1.0000
  C   C664      1.0  0.82277  0.24177  0.06191  1.0000
  N   N57       1.0  0.98574  0.13968  0.46004  1.0000
  C   C665      1.0  0.80756  0.02537  0.05318  1.0000
  C   C666      1.0  0.85105  0.25832  0.10305  1.0000
  C   C667      1.0  0.00956  0.22280  0.45016  1.0000
  Fe  Fe114     1.0  0.76992  0.17957  0.17523  1.0000
  H   H670      1.0  0.89637  0.15912  0.30013  1.0000
  Fe  Fe115     1.0  0.91719  0.48400  0.12491  1.0000
  C   C668      1.0  0.96197  0.13121  0.44547  1.0000
  C   C669      1.0  0.96125  0.43057  0.20141  1.0000
  H   H671      1.0  0.96804  0.49829  0.21059  1.0000
  C   C670      1.0  0.00703  0.45380  0.21786  1.0000
  H   H672      1.0  0.77247  0.15017  0.28803  1.0000
  H   H673      1.0  0.98224  0.43170  0.15324  1.0000
  H   H674      1.0  0.78023  0.15151  0.25154  1.0000
  S   S226      1.0  0.96737  0.50373  0.03475  1.0000
  C   C671      1.0  0.98726  0.50588  0.22154  1.0000
  C   C672      1.0  0.00704  0.49387  0.01095  1.0000
  S   S227      1.0  0.88699  0.14244  0.48152  1.0000
  H   H675      1.0  0.01063  0.17376  0.43415  1.0000
  H   H676      1.0  0.01504  0.44001  0.16682  1.0000
  S   S228      1.0  0.01168  0.50882  0.30179  1.0000
  H   H677      1.0  0.80873  0.05431  0.48423  1.0000
  H   H678      1.0  0.82476  0.26793  0.60407  1.0000
  C   C673      1.0  0.96038  0.11259  0.49929  1.0000
  C   C674      1.0  0.80968  0.03558  0.48526  1.0000
  Fe  Fe116     1.0  0.86479  0.14529  0.90771  1.0000
  S   S229      1.0  0.89887  0.13623  0.91702  1.0000
  S   S230      1.0  0.84780  0.13835  0.86261  1.0000
  Fe  Fe117     1.0  0.87187  0.10819  0.95089  1.0000
  S   S231      1.0  0.86719  0.06567  0.95625  1.0000
  Fe  Fe118     1.0  0.91380  0.16969  0.94934  1.0000
  S   S232      1.0  0.95748  0.20566  0.95370  1.0000
  S   S233      1.0  0.83719  0.11511  0.94004  1.0000
  S   S234      1.0  0.88134  0.18072  0.93796  1.0000
  Fe  Fe119     1.0  0.81026  0.23909  0.67436  1.0000
  S   S235      1.0  0.84487  0.23261  0.68695  1.0000
  S   S236      1.0  0.81406  0.28099  0.66723  1.0000
  N   N58       1.0  0.83771  0.29191  0.73679  1.0000
  S   S237      1.0  0.80121  0.16668  0.68640  1.0000
  Fe  Fe120     1.0  0.81579  0.20119  0.71757  1.0000
  S   S238      1.0  0.83012  0.20592  0.76348  1.0000
  Fe  Fe121     1.0  0.82749  0.19871  0.65509  1.0000
  S   S239      1.0  0.85619  0.19390  0.62566  1.0000
  C   C675      1.0  0.98793  0.20737  0.96670  1.0000
  S   S240      1.0  0.79463  0.20719  0.64045  1.0000
  Fe  Fe122     1.0  0.90709  0.47487  0.62472  1.0000
  Fe  Fe123     1.0  0.92808  0.43386  0.62428  1.0000
  S   S241      1.0  0.97088  0.46686  0.61297  1.0000
  S   S242      1.0  0.92119  0.39041  0.63061  1.0000
  Fe  Fe124     1.0  0.96433  0.49232  0.64508  1.0000
  C   C676      1.0  0.85971  0.47848  0.56152  1.0000
  Fe  Fe125     1.0  0.95097  0.48182  0.58201  1.0000
  H   H679      1.0  0.89581  0.47738  0.69670  1.0000
  S   S243      1.0  0.92325  0.45862  0.65830  1.0000
  S   S244      1.0  0.90849  0.44728  0.59146  1.0000
  H   H680      1.0  0.83164  0.12022  0.59842  1.0000
  H   H681      1.0  0.80448  0.08465  0.54694  1.0000
  H   H682      1.0  0.97644  0.41935  0.94097  1.0000
  H   H683      1.0  0.89612  0.35409  0.57996  1.0000
  H   H684      1.0  0.86076  0.06580  0.85889  1.0000
  H   H685      1.0  0.82544  0.48892  0.64462  1.0000
  C   C677      1.0  0.82492  0.03209  0.90092  1.0000
  C   C678      1.0  0.97280  0.47108  0.91962  1.0000
  C   C679      1.0  0.98147  0.48921  0.72255  1.0000
  H   H686      1.0  0.97076  0.46430  0.75962  1.0000
  H   H687      1.0  0.96460  0.47395  0.71039  1.0000
  C   C680      1.0  0.84424  0.31142  0.65789  1.0000
  C   C681      1.0  0.84276  0.33515  0.65185  1.0000
  C   C682      1.0  0.86621  0.35973  0.64415  1.0000
  C   C683      1.0  0.89145  0.36082  0.64247  1.0000
  C   C684      1.0  0.89302  0.33721  0.64901  1.0000
  C   C685      1.0  0.86958  0.31263  0.65671  1.0000
  H   H688      1.0  0.82329  0.33448  0.65285  1.0000
  H   H689      1.0  0.86469  0.37772  0.63913  1.0000
  H   H690      1.0  0.91247  0.33786  0.64781  1.0000
  H   H691      1.0  0.87108  0.29460  0.66149  1.0000
  C   C686      1.0  0.99454  0.45153  0.89357  1.0000
  H   H692      1.0  0.80490  0.29096  0.75903  1.0000
  C   C687      1.0  0.86969  0.27679  0.74794  1.0000
  S   S245      1.0  0.86893  0.47833  0.63140  1.0000
  H   H693      1.0  0.85329  0.31610  0.58924  1.0000
  C   C688      1.0  0.01237  0.23272  0.96637  1.0000
  H   H694      1.0  0.95965  0.17514  0.49111  1.0000
  C   C689      1.0  0.84341  0.15779  0.83531  1.0000
  C   C690      1.0  0.83256  0.14501  0.80944  1.0000
  C   C691      1.0  0.82845  0.15927  0.78726  1.0000
  C   C692      1.0  0.83505  0.18664  0.79057  1.0000
  C   C693      1.0  0.84589  0.19942  0.81644  1.0000
  C   C694      1.0  0.85008  0.18519  0.83859  1.0000
  H   H695      1.0  0.82729  0.12387  0.80650  1.0000
  H   H696      1.0  0.82011  0.14902  0.76764  1.0000
  H   H697      1.0  0.85109  0.22053  0.81944  1.0000
  H   H698      1.0  0.85841  0.19542  0.85822  1.0000
  C   C695      1.0  0.83958  0.17534  0.53219  1.0000
  C   C696      1.0  0.86276  0.17699  0.54477  1.0000
  C   C697      1.0  0.86787  0.18325  0.57332  1.0000
  C   C698      1.0  0.84984  0.18780  0.58952  1.0000
  C   C699      1.0  0.82689  0.18654  0.57683  1.0000
  C   C700      1.0  0.82187  0.18046  0.54827  1.0000
  H   H699      1.0  0.87662  0.17322  0.53258  1.0000
  H   H700      1.0  0.88574  0.18426  0.58296  1.0000
  H   H701      1.0  0.81271  0.18978  0.58903  1.0000
  H   H702      1.0  0.80391  0.17923  0.53866  1.0000
  C   C701      1.0  0.77750  0.12841  0.61357  1.0000
  C   C702      1.0  0.99193  0.46372  0.86921  1.0000
  H   H703      1.0  0.85659  0.48438  0.70634  1.0000
  H   H704      1.0  0.82704  0.25442  0.75771  1.0000
  N   N59       1.0  0.88949  0.31326  0.58520  1.0000
  C   C703      1.0  0.86233  0.30299  0.59049  1.0000
  C   C704      1.0  0.90092  0.29678  0.58737  1.0000
  C   C705      1.0  0.84605  0.27574  0.59887  1.0000
  C   C706      1.0  0.88518  0.26938  0.59553  1.0000
  C   C707      1.0  0.85764  0.25894  0.60142  1.0000
  C   C708      1.0  0.90658  0.34193  0.57679  1.0000
  H   H705      1.0  0.92240  0.30487  0.58300  1.0000
  H   H706      1.0  0.89417  0.25624  0.59749  1.0000
  H   H707      1.0  0.84542  0.23789  0.60815  1.0000
  C   C709      1.0  0.81062  0.06382  0.88788  1.0000
  C   C710      1.0  0.85819  0.31539  0.72533  1.0000
  C   C711      1.0  0.98000  0.48028  0.87038  1.0000
  C   C712      1.0  0.81269  0.12041  0.59522  1.0000
  C   C713      1.0  0.98848  0.18446  0.97742  1.0000
  S   S246      1.0  0.01039  0.49555  0.80168  1.0000
  C   C714      1.0  0.89059  0.30036  0.73577  1.0000
  H   H708      1.0  0.81169  0.13254  0.63768  1.0000
  H   H709      1.0  0.80688  0.30091  0.72283  1.0000
  H   H710      1.0  0.00037  0.18347  0.51900  1.0000
  C   C715      1.0  0.98503  0.48378  0.75047  1.0000
  Fe  Fe126     1.0  0.85648  0.14989  0.97090  1.0000
  C   C716      1.0  0.85769  0.07470  0.87820  1.0000
  S   S247      1.0  0.83096  0.16537  0.49703  1.0000
  H   H711      1.0  0.80708  0.11262  0.52599  1.0000
  H   H712      1.0  0.91213  0.34313  0.55450  1.0000
  H   H713      1.0  0.81490  0.08317  0.87861  1.0000
  H   H714      1.0  0.96548  0.47430  0.93930  1.0000
  Fe  Fe127     1.0  0.76892  0.17741  0.67360  1.0000
  C   C717      1.0  0.84322  0.27290  0.74834  1.0000
  H   H715      1.0  0.90090  0.33823  0.71471  1.0000
  H   H716      1.0  0.97854  0.49038  0.85167  1.0000
  C   C718      1.0  0.97042  0.48409  0.89575  1.0000
  H   H717      1.0  0.87358  0.07762  0.89379  1.0000
  C   C719      1.0  0.79907  0.01423  0.91164  1.0000
  H   H718      1.0  0.00837  0.48871  0.53443  1.0000
  C   C720      1.0  0.98785  0.44196  0.94343  1.0000
  H   H719      1.0  0.00980  0.44892  0.94723  1.0000
  H   H720      1.0  0.01219  0.25055  0.95808  1.0000
  H   H721      1.0  0.87381  0.26136  0.75677  1.0000
  N   N60       1.0  0.83046  0.05659  0.88943  1.0000
  C   C721      1.0  0.88489  0.31990  0.72449  1.0000
  S   S248      1.0  0.78173  0.20996  0.70677  1.0000
  S   S249      1.0  0.88954  0.14094  0.98401  1.0000
  N   N61       1.0  0.98493  0.45520  0.91833  1.0000
  C   C722      1.0  0.84441  0.50804  0.64689  1.0000
  C   C723      1.0  0.80979  0.28732  0.73766  1.0000
  H   H722      1.0  0.85387  0.33048  0.71610  1.0000
  H   H723      1.0  0.92548  0.35200  0.58970  1.0000
  C   C724      1.0  0.83798  0.03591  0.96874  1.0000
  H   H724      1.0  0.85181  0.47435  0.53983  1.0000
  H   H725      1.0  0.86075  0.09537  0.87313  1.0000
  C   C725      1.0  0.77889  0.02167  0.91069  1.0000
  C   C726      1.0  0.81224  0.10707  0.54652  1.0000
  H   H726      1.0  0.84310  0.47569  0.57582  1.0000
  H   H727      1.0  0.99962  0.46084  0.84957  1.0000
  H   H728      1.0  0.84083  0.02664  0.90266  1.0000
  H   H729      1.0  0.86560  0.46306  0.56784  1.0000
  C   C727      1.0  0.87727  0.50137  0.70829  1.0000
  H   H730      1.0  0.91111  0.30339  0.73501  1.0000
  H   H731      1.0  0.79505  0.26597  0.73122  1.0000
  H   H732      1.0  0.96000  0.10565  0.52045  1.0000
  C   C728      1.0  0.81414  0.03611  0.97609  1.0000
  C   C729      1.0  0.98472  0.50159  0.50996  1.0000
  C   C730      1.0  0.00301  0.19465  0.49985  1.0000
  C   C731      1.0  0.78463  0.04660  0.89867  1.0000
  C   C732      1.0  0.00701  0.50328  0.76653  1.0000
  H   H733      1.0  0.83489  0.11808  0.54783  1.0000
  H   H734      1.0  0.96150  0.49728  0.89698  1.0000
  N   N62       1.0  0.80054  0.11499  0.56949  1.0000
  H   H735      1.0  0.90975  0.49490  0.54318  1.0000
  S   S250      1.0  0.96006  0.49624  0.53622  1.0000
  H   H736      1.0  0.81301  0.05467  0.97371  1.0000
  C   C733      1.0  0.00621  0.49627  0.51440  1.0000
  H   H737      1.0  0.91655  0.08970  0.49389  1.0000
  H   H738      1.0  0.98017  0.44738  0.96229  1.0000
  H   H739      1.0  0.00407  0.13746  0.49824  1.0000
  C   C734      1.0  0.77692  0.11579  0.56542  1.0000
  S   S251      1.0  0.94777  0.51007  0.61337  1.0000
  C   C735      1.0  0.98522  0.13049  0.48657  1.0000
  C   C736      1.0  0.80144  0.12730  0.61758  1.0000
  N   N63       1.0  0.88331  0.50616  0.56365  1.0000
  C   C737      1.0  0.89934  0.49750  0.70265  1.0000
  H   H740      1.0  0.00466  0.43942  0.89265  1.0000
  C   C738      1.0  0.90774  0.51125  0.55286  1.0000
  H   H741      1.0  0.96993  0.16483  0.97775  1.0000
  C   C739      1.0  0.86926  0.50882  0.64158  1.0000
  H   H742      1.0  0.76918  0.05272  0.89789  1.0000
  H   H743      1.0  0.76872  0.13404  0.63067  1.0000
  H   H744      1.0  0.87596  0.64609  0.28907  1.0000
  H   H745      1.0  0.84219  0.79815  0.99041  1.0000
  H   H746      1.0  0.77364  0.01275  0.99314  1.0000
  S   S252      1.0  0.78419  0.62770  0.19135  1.0000
  Fe  Fe128     1.0  0.83393  0.59946  0.17795  1.0000
  S   S253      1.0  0.84828  0.64332  0.19046  1.0000
  S   S254      1.0  0.86972  0.59129  0.17332  1.0000
  Fe  Fe129     1.0  0.81434  0.62684  0.22186  1.0000
  S   S255      1.0  0.81444  0.63503  0.26909  1.0000
  Fe  Fe130     1.0  0.81727  0.64075  0.15905  1.0000
  S   S256      1.0  0.82594  0.67601  0.12964  1.0000
  S   S257      1.0  0.80189  0.58301  0.21128  1.0000
  S   S258      1.0  0.80474  0.59801  0.14470  1.0000
  Fe  Fe131     1.0  0.87446  0.73233  0.41188  1.0000
  S   S259      1.0  0.88299  0.77461  0.42470  1.0000
  S   S260      1.0  0.87536  0.72652  0.36430  1.0000
  Fe  Fe132     1.0  0.87090  0.71536  0.47363  1.0000
  C   C740      1.0  0.83361  0.01062  0.47693  1.0000
  S   S261      1.0  0.95890  0.51715  0.11235  1.0000
  Fe  Fe133     1.0  0.84994  0.75377  0.45651  1.0000
  S   S262      1.0  0.81196  0.75724  0.46467  1.0000
  Fe  Fe134     1.0  0.91155  0.77332  0.45704  1.0000
  S   S263      1.0  0.84618  0.67443  0.99965  1.0000
  S   S264      1.0  0.83962  0.71154  0.44190  1.0000
  S   S265      1.0  0.90529  0.73265  0.44253  1.0000
  C   C741      1.0  0.93400  0.54408  0.06345  1.0000
  H   H747      1.0  0.96607  0.58428  0.07557  1.0000
  H   H748      1.0  0.85303  0.81516  0.47279  1.0000
  C   C742      1.0  0.87165  0.56218  0.16190  1.0000
  C   C743      1.0  0.98400  0.81235  0.47344  1.0000
  H   H749      1.0  0.83377  0.74243  0.36061  1.0000
  C   C744      1.0  0.00737  0.83773  0.47915  1.0000
  C   C745      1.0  0.80463  0.83097  0.99168  1.0000
  C   C746      1.0  0.84887  0.53844  0.15195  1.0000
  C   C747      1.0  0.99638  0.83239  0.98822  1.0000
  H   H750      1.0  0.77742  0.69132  0.04839  1.0000
  H   H751      1.0  0.88440  0.56345  0.09816  1.0000
  H   H752      1.0  0.82917  0.53729  0.15132  1.0000
  C   C748      1.0  0.85809  0.70060  0.33830  1.0000
  C   C749      1.0  0.86623  0.70675  0.31028  1.0000
  C   C750      1.0  0.85315  0.68718  0.28883  1.0000
  C   C751      1.0  0.83159  0.66103  0.29506  1.0000
  C   C752      1.0  0.82351  0.65485  0.32308  1.0000
  C   C753      1.0  0.83658  0.67442  0.34453  1.0000
  H   H753      1.0  0.88283  0.72687  0.30508  1.0000
  H   H754      1.0  0.85970  0.69241  0.26750  1.0000
  H   H755      1.0  0.80688  0.63474  0.32828  1.0000
  H   H756      1.0  0.82999  0.66922  0.36586  1.0000
  C   C754      1.0  0.83189  0.67537  0.09362  1.0000
  C   C755      1.0  0.83143  0.65273  0.08104  1.0000
  C   C756      1.0  0.83583  0.65280  0.05223  1.0000
  C   C757      1.0  0.84088  0.67551  0.03575  1.0000
  C   C758      1.0  0.84177  0.69835  0.04839  1.0000
  C   C759      1.0  0.83720  0.69821  0.07720  1.0000
  H   H757      1.0  0.82757  0.63511  0.09346  1.0000
  H   H758      1.0  0.83526  0.63511  0.04261  1.0000
  H   H759      1.0  0.84571  0.71598  0.03595  1.0000
  H   H760      1.0  0.83762  0.71584  0.08678  1.0000
  H   H761      1.0  0.83875  0.83491  0.01577  1.0000
  C   C760      1.0  0.82472  0.56599  0.27850  1.0000
  C   C761      1.0  0.85164  0.51614  0.14256  1.0000
  C   C762      1.0  0.89709  0.56320  0.16258  1.0000
  N   N64       1.0  0.86255  0.60946  0.26514  1.0000
  C   C763      1.0  0.84054  0.80729  0.39569  1.0000
  C   C764      1.0  0.01057  0.78997  0.48367  1.0000
  C   C765      1.0  0.89984  0.54088  0.15326  1.0000
  H   H762      1.0  0.88957  0.80730  0.33530  1.0000
  H   H763      1.0  0.89624  0.68578  0.05168  1.0000
  C   C766      1.0  0.80992  0.78672  0.47436  1.0000
  C   C767      1.0  0.83036  0.83553  0.48386  1.0000
  S   S266      1.0  0.80619  0.86055  0.00681  1.0000
  H   H764      1.0  0.89570  0.78679  0.36040  1.0000
  Fe  Fe135     1.0  0.77077  0.86940  0.00973  1.0000
  C   C768      1.0  0.87816  0.63937  0.26794  1.0000
  H   H765      1.0  0.90022  0.64723  0.26437  1.0000
  H   H766      1.0  0.85906  0.55878  0.22427  1.0000
  H   H767      1.0  0.87911  0.82852  0.37493  1.0000
  H   H768      1.0  0.96810  0.76881  0.47099  1.0000
  C   C769      1.0  0.85391  0.56854  0.24083  1.0000
  H   H769      1.0  0.91957  0.54207  0.15370  1.0000
  H   H770      1.0  0.78905  0.00778  0.06073  1.0000
  H   H771      1.0  0.80156  0.78044  0.41423  1.0000
  H   H772      1.0  0.89041  0.72524  0.10561  1.0000
  S   S267      1.0  0.95266  0.81139  0.46591  1.0000
  C   C770      1.0  0.92637  0.57712  0.08799  1.0000
  H   H773      1.0  0.94086  0.78476  0.03052  1.0000
  Fe  Fe136     1.0  0.77353  0.58497  0.17905  1.0000
  H   H774      1.0  0.80697  0.55428  0.29144  1.0000
  H   H775      1.0  0.84292  0.82542  0.40628  1.0000
  C   C771      1.0  0.91390  0.71642  0.01997  1.0000
  C   C772      1.0  0.92650  0.74432  0.01398  1.0000
  C   C773      1.0  0.93113  0.76302  0.03523  1.0000
  H   H776      1.0  0.81915  0.53109  0.25460  1.0000
  H   H777      1.0  0.92125  0.72316  0.10997  1.0000
  C   C774      1.0  0.90628  0.70757  0.04736  1.0000
  C   C775      1.0  0.90279  0.71664  0.09684  1.0000
  C   C776      1.0  0.98585  0.78847  0.47537  1.0000
  N   N65       1.0  0.90667  0.52556  0.06425  1.0000
  C   C777      1.0  0.92299  0.75344  0.06237  1.0000
  N   N66       1.0  0.85796  0.78587  0.36499  1.0000
  N   N67       1.0  0.91065  0.72600  0.06810  1.0000
  C   C778      1.0  0.81731  0.78199  0.40024  1.0000
  H   H778      1.0  0.92656  0.76808  0.07880  1.0000
  C   C779      1.0  0.87995  0.78787  0.34729  1.0000
  H   H779      1.0  0.00619  0.85634  0.47765  1.0000
  C   C780      1.0  0.81489  0.75854  0.38760  1.0000
  H   H780      1.0  0.99153  0.84746  0.99617  1.0000
  C   C781      1.0  0.82445  0.82380  0.99918  1.0000
  C   C782      1.0  0.77258  0.67110  0.05563  1.0000
  C   C783      1.0  0.86085  0.80886  0.37795  1.0000
  C   C784      1.0  0.83555  0.76084  0.36996  1.0000
  H   H781      1.0  0.99919  0.52373  0.44213  1.0000
  C   C785      1.0  0.01250  0.51375  0.26533  1.0000
  C   C786      1.0  0.94429  0.57002  0.07553  1.0000
  C   C787      1.0  0.79302  0.98803  0.99066  1.0000
  H   H782      1.0  0.93406  0.59690  0.09801  1.0000
  C   C788      1.0  0.86914  0.59694  0.24461  1.0000
  H   H783      1.0  0.91485  0.58144  0.17026  1.0000
  H   H784      1.0  0.87051  0.64885  0.25259  1.0000
  C   C789      1.0  0.84060  0.59439  0.28193  1.0000
  H   H785      1.0  0.83485  0.60438  0.29768  1.0000
  H   H786      1.0  0.87220  0.77070  0.33204  1.0000
  C   C790      1.0  0.89847  0.55840  0.08796  1.0000
  C   C791      1.0  0.78413  0.78395  0.47936  1.0000
  C   C792      1.0  0.01163  0.51746  0.20660  1.0000
  H   H787      1.0  0.90953  0.70167  0.00339  1.0000
  C   C793      1.0  0.83150  0.55303  0.25783  1.0000
  C   C794      1.0  0.88893  0.53252  0.07602  1.0000
  H   H788      1.0  0.82918  0.00295  0.04918  1.0000
  S   S268      1.0  0.77239  0.89783  0.04395  1.0000
  H   H789      1.0  0.89003  0.69396  0.09815  1.0000
  H   H790      1.0  0.88599  0.60894  0.23067  1.0000
  H   H791      1.0  0.94811  0.53869  0.05399  1.0000
  H   H792      1.0  0.77880  0.65792  0.01553  1.0000
  C   C795      1.0  0.87711  0.51723  0.14307  1.0000
  H   H793      1.0  0.93253  0.75147  0.99286  1.0000
  H   H794      1.0  0.79737  0.73866  0.39196  1.0000
  H   H795      1.0  0.85140  0.01011  0.46945  1.0000
  S   S269      1.0  0.01205  0.51974  0.16983  1.0000
  C   C796      1.0  0.77323  0.65231  0.03715  1.0000
  C   C797      1.0  0.83306  0.81266  0.47660  1.0000
  H   H796      1.0  0.81781  0.96915  0.98530  1.0000
  C   C798      1.0  0.00132  0.51610  0.46213  1.0000
  C   C799      1.0  0.79180  0.01227  0.98696  1.0000
  H   H797      1.0  0.86736  0.51759  0.07724  1.0000
  H   H798      1.0  0.96600  0.51572  0.47980  1.0000
  H   H799      1.0  0.89342  0.57710  0.72603  1.0000
  H   H800      1.0  0.78885  0.68916  0.59387  1.0000
  H   H801      1.0  0.79979  0.64464  0.51667  1.0000
  C   C800      1.0  0.97016  0.80249  0.54022  1.0000
  Fe  Fe137     1.0  0.83387  0.59494  0.67816  1.0000
  S   S270      1.0  0.84664  0.63840  0.69124  1.0000
  S   S271      1.0  0.86915  0.58594  0.67358  1.0000
  Fe  Fe138     1.0  0.81018  0.62017  0.71945  1.0000
  S   S272      1.0  0.80544  0.63286  0.76400  1.0000
  Fe  Fe139     1.0  0.81818  0.63655  0.65720  1.0000
  S   S273      1.0  0.83006  0.67423  0.63017  1.0000
  S   S274      1.0  0.79913  0.57668  0.70871  1.0000
  S   S275      1.0  0.80762  0.59449  0.64240  1.0000
  Fe  Fe140     1.0  0.87027  0.72554  0.90764  1.0000
  S   S276      1.0  0.88112  0.76933  0.91680  1.0000
  S   S277      1.0  0.87713  0.71408  0.86328  1.0000
  Fe  Fe141     1.0  0.85806  0.71012  0.96975  1.0000
  C   C801      1.0  0.88071  0.52685  0.57557  1.0000
  H   H802      1.0  0.78643  0.65400  0.56145  1.0000
  Fe  Fe142     1.0  0.84424  0.75151  0.94447  1.0000
  S   S278      1.0  0.81296  0.76596  0.94102  1.0000
  Fe  Fe143     1.0  0.90394  0.76711  0.95452  1.0000
  H   H803      1.0  0.77091  0.82172  0.96422  1.0000
  S   S279      1.0  0.83182  0.70781  0.93305  1.0000
  S   S280      1.0  0.89597  0.72482  0.94380  1.0000
  N   N68       1.0  0.88364  0.84448  0.94833  1.0000
  C   C802      1.0  0.89360  0.53369  0.64446  1.0000
  H   H804      1.0  0.77184  0.64543  0.49866  1.0000
  C   C803      1.0  0.86824  0.55642  0.65923  1.0000
  H   H805      1.0  0.84592  0.72198  0.78428  1.0000
  C   C804      1.0  0.91283  0.57681  0.72298  1.0000
  C   C805      1.0  0.80154  0.72440  0.53304  1.0000
  C   C806      1.0  0.93802  0.75489  0.53088  1.0000
  C   C807      1.0  0.84387  0.53169  0.65574  1.0000
  C   C808      1.0  0.98262  0.78964  0.96437  1.0000
  C   C809      1.0  0.89304  0.55737  0.65307  1.0000
  H   H806      1.0  0.81262  0.96786  0.48908  1.0000
  H   H807      1.0  0.82464  0.53065  0.66045  1.0000
  C   C810      1.0  0.85690  0.68997  0.83675  1.0000
  C   C811      1.0  0.86976  0.68808  0.81241  1.0000
  C   C812      1.0  0.85463  0.67009  0.79038  1.0000
  C   C813      1.0  0.82624  0.65384  0.79221  1.0000
  C   C814      1.0  0.81344  0.65543  0.81671  1.0000
  C   C815      1.0  0.82857  0.67333  0.83875  1.0000
  H   H808      1.0  0.89165  0.70068  0.81058  1.0000
  H   H809      1.0  0.86490  0.66913  0.77184  1.0000
  H   H810      1.0  0.79155  0.64285  0.81860  1.0000
  H   H811      1.0  0.81828  0.67434  0.85727  1.0000
  C   C816      1.0  0.84160  0.67630  0.59554  1.0000
  C   C817      1.0  0.83955  0.65343  0.58179  1.0000
  C   C818      1.0  0.84690  0.65524  0.55357  1.0000
  C   C819      1.0  0.85611  0.67980  0.53872  1.0000
  C   C820      1.0  0.85862  0.70284  0.55258  1.0000
  C   C821      1.0  0.85160  0.70112  0.58091  1.0000
  H   H812      1.0  0.83199  0.63422  0.59278  1.0000
  H   H813      1.0  0.84502  0.63734  0.54309  1.0000
  H   H814      1.0  0.86566  0.72188  0.54148  1.0000
  H   H815      1.0  0.85331  0.71894  0.59138  1.0000
  C   C822      1.0  0.01642  0.81728  0.55738  1.0000
  C   C823      1.0  0.79241  0.68973  0.77414  1.0000
  H   H816      1.0  0.97494  0.82372  0.53994  1.0000
  H   H817      1.0  0.80344  0.70845  0.49310  1.0000
  C   C824      1.0  0.80457  0.83279  0.48899  1.0000
  H   H818      1.0  0.92931  0.78786  0.52472  1.0000
  C   C825      1.0  0.92832  0.55854  0.56718  1.0000
  H   H819      1.0  0.94603  0.57884  0.56896  1.0000
  C   C826      1.0  0.86536  0.83272  0.92693  1.0000
  C   C827      1.0  0.78836  0.79575  0.95577  1.0000
  C   C828      1.0  0.80883  0.78933  0.96256  1.0000
  H   H820      1.0  0.77453  0.78521  0.93867  1.0000
  C   C829      1.0  0.94419  0.78220  0.53161  1.0000
  N   N69       1.0  0.79497  0.67924  0.52542  1.0000
  C   C830      1.0  0.00929  0.79388  0.96777  1.0000
  C   C831      1.0  0.80016  0.70410  0.51519  1.0000
  H   H821      1.0  0.91973  0.84871  0.96823  1.0000
  C   C832      1.0  0.78863  0.98701  0.49815  1.0000
  H   H822      1.0  0.99897  0.76372  0.55338  1.0000
  S   S281      1.0  0.86755  0.75226  0.98281  1.0000
  C   C833      1.0  0.99978  0.51435  0.71048  1.0000
  H   H823      1.0  0.89093  0.81449  0.96701  1.0000
  C   C834      1.0  0.95779  0.74819  0.53892  1.0000
  C   C835      1.0  0.84608  0.86167  0.93696  1.0000
  H   H824      1.0  0.92523  0.58458  0.74229  1.0000
  C   C836      1.0  0.85745  0.70998  0.71792  1.0000
  H   H825      1.0  0.88388  0.73350  0.75187  1.0000
  C   C837      1.0  0.78618  0.81638  0.97029  1.0000
  H   H826      1.0  0.78855  0.67266  0.72198  1.0000
  H   H827      1.0  0.77903  0.66706  0.77462  1.0000
  H   H828      1.0  0.95044  0.56286  0.71160  1.0000
  H   H829      1.0  0.01595  0.82072  0.58007  1.0000
  H   H830      1.0  0.86136  0.52286  0.58421  1.0000
  H   H831      1.0  0.94315  0.51694  0.69933  1.0000
  N   N70       1.0  0.81500  0.69707  0.75481  1.0000
  C   C838      1.0  0.84137  0.71418  0.76310  1.0000
  C   C839      1.0  0.80940  0.68667  0.72834  1.0000
  C   C840      1.0  0.81160  0.98658  0.48804  1.0000
  C   C841      1.0  0.83049  0.69302  0.70950  1.0000
  H   H832      1.0  0.95321  0.72703  0.53822  1.0000
  H   H833      1.0  0.86463  0.53055  0.71854  1.0000
  H   H834      1.0  0.87395  0.71444  0.70363  1.0000
  H   H835      1.0  0.83060  0.86748  0.93344  1.0000
  C   C842      1.0  0.88337  0.86448  0.96435  1.0000
  H   H836      1.0  0.82600  0.68438  0.68867  1.0000
  C   C843      1.0  0.84642  0.84122  0.92083  1.0000
  H   H837      1.0  0.89702  0.87300  0.98206  1.0000
  H   H838      1.0  0.95007  0.54120  0.54632  1.0000
  H   H839      1.0  0.91071  0.83015  0.93620  1.0000
  S   S282      1.0  0.86315  0.68034  0.50273  1.0000
  Fe  Fe144     1.0  0.77340  0.57927  0.67371  1.0000
  C   C844      1.0  0.86299  0.72073  0.74487  1.0000
  C   C845      1.0  0.88198  0.52756  0.71514  1.0000
  C   C846      1.0  0.79028  0.67360  0.55322  1.0000
  H   H840      1.0  0.91200  0.57645  0.65544  1.0000
  S   S283      1.0  0.99573  0.52252  0.67571  1.0000
  C   C847      1.0  0.79731  0.71902  0.56149  1.0000
  H   H841      1.0  0.91286  0.53464  0.64027  1.0000
  H   H842      1.0  0.86453  0.81582  0.91519  1.0000
  H   H843      1.0  0.91808  0.73896  0.52377  1.0000
  C   C848      1.0  0.79154  0.69343  0.57169  1.0000
  S   S284      1.0  0.80252  0.86242  0.49802  1.0000
  C   C849      1.0  0.92981  0.54563  0.71093  1.0000
  N   N71       1.0  0.98954  0.79579  0.54775  1.0000
  C   C850      1.0  0.93061  0.53746  0.55450  1.0000
  C   C851      1.0  0.98358  0.76901  0.54747  1.0000
  C   C852      1.0  0.90213  0.83402  0.95532  1.0000
  H   H844      1.0  0.80591  0.74419  0.52477  1.0000
  S   S285      1.0  0.78224  0.62143  0.68616  1.0000
  H   H845      1.0  0.86357  0.88837  0.97233  1.0000
  C   C853      1.0  0.90319  0.55329  0.57769  1.0000
  S   S286      1.0  0.94259  0.80448  0.97111  1.0000
  C   C854      1.0  0.81656  0.98762  0.98252  1.0000
  H   H846      1.0  0.96733  0.77162  0.95355  1.0000
  H   H847      1.0  0.79500  0.99516  0.92149  1.0000
  C   C855      1.0  0.86469  0.87347  0.95882  1.0000
  H   H848      1.0  0.83118  0.83093  0.90468  1.0000
  C   C856      1.0  0.01033  0.52256  0.96180  1.0000
  H   H849      1.0  0.90116  0.56943  0.58788  1.0000
  H   H850      1.0  0.01136  0.53362  0.94297  1.0000
  H   H851      1.0  0.78026  0.69938  0.76752  1.0000
  H   H852      1.0  0.92353  0.59105  0.70549  1.0000
  N   N72       1.0  0.90802  0.54929  0.71633  1.0000
  H   H853      1.0  0.79979  0.69625  0.79582  1.0000
  H   H854      1.0  0.79863  0.73471  0.57559  1.0000
  H   H855      1.0  0.77587  0.91535  0.66108  1.0000
  C   C857      1.0  0.97598  0.80889  0.97460  1.0000
  C   C858      1.0  0.78781  0.01162  0.49665  1.0000
  H   H856      1.0  0.78760  0.92730  0.60763  1.0000
  H   H857      1.0  0.85722  0.01107  0.96590  1.0000
  C   C859      1.0  0.79310  0.65806  0.50630  1.0000
  C   C860      1.0  0.92582  0.51971  0.70400  1.0000
  H   H858      1.0  0.77665  0.94952  0.56896  1.0000
  H   H859      1.0  0.01415  0.77886  0.95968  1.0000
  H   H860      1.0  0.77012  0.01219  0.50431  1.0000
  C   C861      1.0  0.99274  0.52065  0.98364  1.0000
  H   H861      1.0  0.98047  0.53044  0.98134  1.0000
  S   S287      1.0  0.87892  0.75596  0.48998  1.0000
  C   C862      1.0  0.78144  0.80682  0.48668  1.0000
  H   H862      1.0  0.80689  0.66738  0.48821  1.0000
  H   H863      1.0  0.84838  0.85552  0.48561  1.0000
  S   S288      1.0  0.76918  0.89440  0.54402  1.0000
  C   C863      1.0  0.83891  0.01146  0.97163  1.0000
  H   H864      1.0  0.01159  0.77131  0.48564  1.0000
  C   C864      1.0  0.82650  0.80303  0.98479  1.0000
