data_image0
_chemical_formula_structural       FeS2FeSHFeHFeSHSFeS2FeCFeSHNC2H2CH4SCH3C10H4CHFeCH2CHCH2CHC3H2CNCH2CHCHCHC4HCH2CNH2C3HSC2H2SC3HC3SCFeS2CH2FeS2FeSCFeCFeSCSCHCH2C4NH2CH2NHC3HC4HSCHC3HCHC3FeHSH2C2H2C2HSCH2CH3C3HCH4SNHSC2HS2H2C2H2SFeHSFeHCFeS2FeSFeHS4H3CSCHCFeC3HC9H6CH2NC4NCH2FeC2H4C3HC2NH3CSCH2C2H5SHCH2NH2C2H3FeC2SC2SHCHSCHCHCSH4C2HCH2C2HCH2CH2C4HSH2C2NHSC2H2CSHC2SC2H2SCH6FeS2FeHFeS2HCH2CH2CHC2HC3H2C2H3CHCH2CHCHCSNCNHCH2CH6NHFeC4HC3HSC2H2CH2FeSCHSFeHFeSCSFeSH2FeS2C6H4CFeCH2SC3SCHCH3SH2C4SH2CH2NHC3H3NC2H2C2H2C2HCFeSCHFeSHFeSCFeS2Fe2SCSCNC7H4SH2SNCH3C3HC6H2CH2S2HCSHC2H2C3NHC2H3CFeHNH3CHC2H4CHSHC2SCHFeH2CHFeS2H3SCH2CHCS2C5HCSCSC2HC4HC3NCHCHFeHCHSC3HCH2CFeH4CH2CNSHFeH2C3H5SH3SFeS2C2HCH2C2HCHC2HC5NCH3C2H3CHC2H3C2H3SHCH2CHNHC2HNCNFeCHFeS2Fe2CS2FeHCFeS2FeCFeCS2FeS2H4CNHSHSCH3CH2C7H5C2H3CSC4H2C2NC5H2CHCSHNCSH2SHCHCHSCH3CHC3H4CHC2H3CHCFeH2CHCFeS2CHC2HFeSCS2FeS2FeHFeCH3NSH2SCSC2SH2SHC6HC2HCNSHFeCSHC2HC4HCHCHCHCHCSFeHCHNH2C2H2C2HSFeC2HCH4CH2FeS2FeSHFeSFeS2CFeS2FeCFeHFeCS3CH2CHCSCHSFeH3SHCSCHC6H6C2HC2HCNC3HNCH2SH4SNC6H2SH4CHCSCHC2HC2H2CHNHC3HC
_chemical_formula_sum              "Fe72 S144 H432 C432 N36"
_cell_length_a       34.9597
_cell_length_b       34.7889
_cell_length_c       46.0693
_cell_angle_alpha    89.9019
_cell_angle_beta     90.1084
_cell_angle_gamma    119.787

_space_group_name_H-M_alt    "P 1"
_space_group_IT_number       1

loop_
  _space_group_symop_operation_xyz
  'x, y, z'

loop_
  _atom_site_type_symbol
  _atom_site_label
  _atom_site_symmetry_multiplicity
  _atom_site_fract_x
  _atom_site_fract_y
  _atom_site_fract_z
  _atom_site_occupancy
  Fe  Fe1       1.0  0.18673  0.23210  0.31012  1.0000
  S   S1        1.0  0.25047  0.27682  0.28671  1.0000
  S   S2        1.0  0.12573  0.24025  0.31021  1.0000
  Fe  Fe2       1.0  0.21743  0.16679  0.32772  1.0000
  S   S3        1.0  0.28289  0.20671  0.30620  1.0000
  H   H1        1.0  0.33160  0.37502  0.31459  1.0000
  Fe  Fe3       1.0  0.28297  0.26592  0.32555  1.0000
  H   H2        1.0  0.05359  0.25734  0.31390  1.0000
  Fe  Fe4       1.0  0.24532  0.21370  0.26920  1.0000
  S   S4        1.0  0.26377  0.21037  0.22215  1.0000
  H   H3        1.0  0.26475  0.24754  0.06502  1.0000
  S   S5        1.0  0.17913  0.16982  0.28942  1.0000
  Fe  Fe5       1.0  0.30105  0.05009  0.11947  1.0000
  S   S6        1.0  0.36633  0.08448  0.09639  1.0000
  S   S7        1.0  0.28855  0.05550  0.16755  1.0000
  Fe  Fe6       1.0  0.32799  0.09328  0.05998  1.0000
  C   C1        1.0  0.24916  0.26774  0.06705  1.0000
  Fe  Fe7       1.0  0.34676  0.01863  0.07527  1.0000
  S   S8        1.0  0.26429  0.06293  0.08448  1.0000
  H   H4        1.0  0.42742  0.43192  0.06422  1.0000
  N   N1        1.0  0.17257  0.99768  0.13089  1.0000
  C   C2        1.0  0.38363  0.19556  0.28415  1.0000
  C   C3        1.0  0.43556  0.44661  0.04281  1.0000
  H   H5        1.0  0.10453  0.36432  0.05714  1.0000
  H   H6        1.0  0.35569  0.24258  0.22965  1.0000
  C   C4        1.0  0.14185  0.26045  0.04737  1.0000
  H   H7        1.0  0.25837  0.10904  0.03202  1.0000
  H   H8        1.0  0.40546  0.22442  0.32661  1.0000
  H   H9        1.0  0.19425  0.34032  0.07021  1.0000
  H   H10       1.0  0.00294  0.37286  0.04889  1.0000
  S   S9        1.0  0.31365  0.03029  0.03701  1.0000
  C   C5        1.0  0.27385  0.10364  0.33475  1.0000
  H   H11       1.0  0.36068  0.17558  0.24023  1.0000
  H   H12       1.0  0.16370  0.10394  0.12646  1.0000
  H   H13       1.0  0.14368  0.05354  0.08373  1.0000
  C   C6        1.0  0.47882  0.48074  0.03705  1.0000
  C   C7        1.0  0.07626  0.27558  0.33126  1.0000
  C   C8        1.0  0.17909  0.06290  0.15349  1.0000
  C   C9        1.0  0.11579  0.27443  0.33398  1.0000
  C   C10       1.0  0.27041  0.16689  0.20747  1.0000
  C   C11       1.0  0.26519  0.13115  0.22439  1.0000
  C   C12       1.0  0.27149  0.09768  0.21195  1.0000
  C   C13       1.0  0.28290  0.09944  0.18250  1.0000
  C   C14       1.0  0.28809  0.13516  0.16560  1.0000
  C   C15       1.0  0.28197  0.16871  0.17806  1.0000
  H   H14       1.0  0.25636  0.12935  0.24706  1.0000
  H   H15       1.0  0.26734  0.07015  0.22520  1.0000
  H   H16       1.0  0.29686  0.13695  0.14291  1.0000
  H   H17       1.0  0.28626  0.19628  0.16481  1.0000
  C   C16       1.0  0.37173  0.30880  0.26564  1.0000
  H   H18       1.0  0.27073  0.37034  0.08782  1.0000
  Fe  Fe8       1.0  0.25279  0.99900  0.06472  1.0000
  C   C17       1.0  0.38461  0.44005  0.32646  1.0000
  H   H19       1.0  0.12122  0.22410  0.05044  1.0000
  H   H20       1.0  0.40196  0.33515  0.25510  1.0000
  C   C18       1.0  0.36981  0.20092  0.25675  1.0000
  H   H21       1.0  0.03472  0.15215  0.34817  1.0000
  C   C19       1.0  0.36092  0.39343  0.32769  1.0000
  H   H22       1.0  0.12467  0.27626  0.05809  1.0000
  H   H23       1.0  0.18821  0.08470  0.17220  1.0000
  C   C20       1.0  0.39509  0.22842  0.30513  1.0000
  H   H24       1.0  0.23580  0.01493  0.29336  1.0000
  C   C21       1.0  0.18229  0.02441  0.15469  1.0000
  C   C22       1.0  0.26943  0.14257  0.02493  1.0000
  C   C23       1.0  0.25249  0.33660  0.07981  1.0000
  H   H25       1.0  0.19385  0.01672  0.17456  1.0000
  H   H26       1.0  0.36993  0.40421  0.02562  1.0000
  C   C24       1.0  0.41962  0.99222  0.01841  1.0000
  N   N2        1.0  0.18625  0.27713  0.05924  1.0000
  C   C25       1.0  0.39195  0.26605  0.29848  1.0000
  H   H27       1.0  0.02319  0.31562  0.06088  1.0000
  H   H28       1.0  0.37341  0.45735  0.31233  1.0000
  C   C26       1.0  0.15420  0.04549  0.10390  1.0000
  H   H29       1.0  0.27571  0.12547  0.31755  1.0000
  C   C27       1.0  0.36691  0.23887  0.25091  1.0000
  H   H30       1.0  0.16726  0.01198  0.31113  1.0000
  C   C28       1.0  0.03867  0.47664  0.02279  1.0000
  H   H31       1.0  0.01433  0.44608  0.06463  1.0000
  C   C29       1.0  0.01616  0.40048  0.03383  1.0000
  C   C30       1.0  0.01818  0.27914  0.02202  1.0000
  C   C31       1.0  0.27260  0.31058  0.07828  1.0000
  C   C32       1.0  0.21703  0.99257  0.31085  1.0000
  H   H32       1.0  0.36544  0.32232  0.28582  1.0000
  C   C33       1.0  0.17853  0.99085  0.32078  1.0000
  H   H33       1.0  0.34289  0.29949  0.25113  1.0000
  H   H34       1.0  0.40032  0.29114  0.31505  1.0000
  C   C34       1.0  0.16540  0.07368  0.12781  1.0000
  N   N3        1.0  0.37676  0.27021  0.27191  1.0000
  H   H35       1.0  0.30652  0.32388  0.08526  1.0000
  H   H36       1.0  0.38530  0.16593  0.28916  1.0000
  C   C35       1.0  0.08696  0.33929  0.04080  1.0000
  C   C36       1.0  0.42223  0.46443  0.34380  1.0000
  C   C37       1.0  0.04092  0.31195  0.04288  1.0000
  H   H37       1.0  0.33175  0.10210  0.32059  1.0000
  S   S10       1.0  0.35360  0.15981  0.03786  1.0000
  C   C38       1.0  0.20574  0.25145  0.05762  1.0000
  C   C39       1.0  0.15752  0.00711  0.10594  1.0000
  H   H38       1.0  0.14411  0.26800  0.02379  1.0000
  H   H39       1.0  0.18806  0.21846  0.04839  1.0000
  S   S11       1.0  0.34604  0.31274  0.34934  1.0000
  C   C40       1.0  0.20912  0.31934  0.06995  1.0000
  C   C41       1.0  0.31436  0.17392  0.02543  1.0000
  C   C42       1.0  0.37506  0.37096  0.34609  1.0000
  H   H40       1.0  0.03462  0.29948  0.34916  1.0000
  C   C43       1.0  0.02287  0.44168  0.04273  1.0000
  C   C44       1.0  0.40289  0.43073  0.02096  1.0000
  C   C45       1.0  0.30534  0.08994  0.33629  1.0000
  S   S12       1.0  0.21977  0.22529  0.35016  1.0000
  C   C46       1.0  0.06546  0.29950  0.35115  1.0000
  Fe  Fe9       1.0  0.02322  0.36310  0.40320  1.0000
  S   S13       1.0  0.07980  0.34801  0.40197  1.0000
  S   S14       1.0  0.03800  0.43147  0.41645  1.0000
  C   C47       1.0  0.06876  0.22195  0.40492  1.0000
  H   H41       1.0  0.39704  0.01063  0.62827  1.0000
  H   H42       1.0  0.00981  0.47451  0.54605  1.0000
  Fe  Fe10      1.0  0.34261  0.28230  0.63529  1.0000
  S   S15       1.0  0.30143  0.30233  0.60832  1.0000
  S   S16       1.0  0.32334  0.20918  0.63515  1.0000
  Fe  Fe11      1.0  0.40944  0.37962  0.65008  1.0000
  S   S17       1.0  0.37261  0.40600  0.62479  1.0000
  C   C48       1.0  0.46692  0.04176  0.58871  1.0000
  Fe  Fe12      1.0  0.31218  0.34903  0.64505  1.0000
  C   C49       1.0  0.03391  0.17287  0.36546  1.0000
  Fe  Fe13      1.0  0.36567  0.35727  0.59050  1.0000
  S   S18       1.0  0.38158  0.37201  0.54231  1.0000
  C   C50       1.0  0.27163  0.09281  0.67967  1.0000
  S   S19       1.0  0.40592  0.33360  0.61467  1.0000
  C   C51       1.0  0.10787  0.18906  0.38046  1.0000
  H   H43       1.0  0.13888  0.22046  0.38496  1.0000
  C   C52       1.0  0.29017  0.12555  0.65789  1.0000
  H   H44       1.0  0.41065  0.03864  0.51593  1.0000
  H   H45       1.0  0.29263  0.11605  0.63592  1.0000
  C   C53       1.0  0.13393  0.32173  0.37649  1.0000
  C   C54       1.0  0.41406  0.42595  0.52785  1.0000
  C   C55       1.0  0.41589  0.46294  0.54109  1.0000
  C   C56       1.0  0.43645  0.43144  0.50148  1.0000
  N   N4        1.0  0.06949  0.19522  0.38342  1.0000
  H   H46       1.0  0.43498  0.40291  0.49100  1.0000
  H   H47       1.0  0.11088  0.17936  0.35793  1.0000
  C   C57       1.0  0.09404  0.32222  0.37413  1.0000
  H   H48       1.0  0.25987  0.05844  0.67440  1.0000
  H   H49       1.0  0.15627  0.33930  0.39416  1.0000
  N   N5        1.0  0.36731  0.44945  0.43177  1.0000
  H   H50       1.0  0.47756  0.47730  0.46813  1.0000
  C   C58       1.0  0.36006  0.43588  0.46011  1.0000
  C   C59       1.0  0.14491  0.29820  0.35645  1.0000
  C   C60       1.0  0.18814  0.11866  0.66234  1.0000
  H   H51       1.0  0.46568  0.40389  0.57008  1.0000
  C   C61       1.0  0.43722  0.00227  0.68243  1.0000
  C   C62       1.0  0.47233  0.06662  0.53919  1.0000
  C   C63       1.0  0.26746  0.04324  0.37745  1.0000
  C   C64       1.0  0.41300  0.39530  0.36307  1.0000
  H   H52       1.0  0.39839  0.45909  0.56120  1.0000
  S   S20       1.0  0.26168  0.36142  0.66737  1.0000
  C   C65       1.0  0.20565  0.32113  0.67155  1.0000
  H   H53       1.0  0.17558  0.29790  0.35865  1.0000
  C   C66       1.0  0.32327  0.35948  0.44477  1.0000
  C   C67       1.0  0.30215  0.05956  0.35747  1.0000
  C   C68       1.0  0.46036  0.47350  0.48837  1.0000
  H   H54       1.0  0.30707  0.32439  0.44984  1.0000
  C   C69       1.0  0.03204  0.22744  0.40857  1.0000
  H   H55       1.0  0.20496  0.27534  0.63995  1.0000
  C   C70       1.0  0.30458  0.17029  0.66412  1.0000
  C   C71       1.0  0.11570  0.25866  0.68014  1.0000
  C   C72       1.0  0.18591  0.28149  0.65581  1.0000
  Fe  Fe14      1.0  0.98758  0.42362  0.38314  1.0000
  H   H56       1.0  0.10515  0.16302  0.39564  1.0000
  S   S21       1.0  0.47647  0.42538  0.67002  1.0000
  H   H57       1.0  0.33383  0.38010  0.48960  1.0000
  H   H58       1.0  0.47502  0.46874  0.61837  1.0000
  C   C73       1.0  0.22233  0.19826  0.65997  1.0000
  C   C74       1.0  0.35090  0.41901  0.40981  1.0000
  H   H59       1.0  0.35503  0.42974  0.38737  1.0000
  H   H60       1.0  0.12587  0.21972  0.64793  1.0000
  C   C75       1.0  0.42667  0.04056  0.53653  1.0000
  C   C76       1.0  0.14109  0.25018  0.66027  1.0000
  H   H61       1.0  0.46535  0.46006  0.37537  1.0000
  S   S22       1.0  0.34137  0.04188  0.35722  1.0000
  C   C77       1.0  0.20858  0.15770  0.64615  1.0000
  H   H62       1.0  0.31733  0.34959  0.39838  1.0000
  H   H63       1.0  0.21599  0.15694  0.62336  1.0000
  C   C78       1.0  0.23613  0.05744  0.37611  1.0000
  H   H64       1.0  0.20939  0.04490  0.39160  1.0000
  H   H65       1.0  0.42408  0.37810  0.37740  1.0000
  H   H66       1.0  0.17925  0.08720  0.65218  1.0000
  C   C79       1.0  0.32913  0.37361  0.41593  1.0000
  C   C80       1.0  0.33832  0.39073  0.46706  1.0000
  C   C81       1.0  0.99564  0.20482  0.39038  1.0000
  H   H67       1.0  0.03242  0.25025  0.42482  1.0000
  C   C82       1.0  0.43640  0.44182  0.36204  1.0000
  H   H68       1.0  0.23980  0.22844  0.64740  1.0000
  H   H69       1.0  0.37183  0.45998  0.47757  1.0000
  H   H70       1.0  0.26490  0.01992  0.39394  1.0000
  H   H71       1.0  0.09722  0.24034  0.41883  1.0000
  S   S23       1.0  0.34981  0.32614  0.67311  1.0000
  N   N6        1.0  0.42226  0.01576  0.58578  1.0000
  H   H72       1.0  0.42698  0.47253  0.66819  1.0000
  S   S24       1.0  0.00381  0.48127  0.35293  1.0000
  C   C83       1.0  0.23930  0.08777  0.35476  1.0000
  C   C84       1.0  0.40196  0.01518  0.56020  1.0000
  H   H73       1.0  0.36665  0.99412  0.55759  1.0000
  S   S25       1.0  0.98945  0.42318  0.49401  1.0000
  S   S26       1.0  0.19832  0.10317  0.35221  1.0000
  H   H74       1.0  0.01114  0.45534  0.67789  1.0000
  H   H75       1.0  0.48291  0.04222  0.60903  1.0000
  C   C85       1.0  0.48438  0.99379  0.49579  1.0000
  C   C86       1.0  0.99642  0.17721  0.36871  1.0000
  H   H76       1.0  0.05139  0.38716  0.80146  1.0000
  H   H77       1.0  0.15491  0.22759  0.90570  1.0000
  S   S27       1.0  0.02108  0.28053  0.81823  1.0000
  Fe  Fe15      1.0  0.01720  0.24009  0.71075  1.0000
  H   H78       1.0  0.44403  0.99669  0.97479  1.0000
  S   S28       1.0  0.04443  0.30448  0.73432  1.0000
  Fe  Fe16      1.0  0.23329  0.27913  0.97562  1.0000
  H   H79       1.0  0.15816  0.41188  0.72348  1.0000
  C   C87       1.0  0.40832  0.01643  0.69245  1.0000
  Fe  Fe17      1.0  0.22130  0.32731  0.92357  1.0000
  S   S29       1.0  0.24888  0.39155  0.94831  1.0000
  S   S30       1.0  0.20221  0.31557  0.87551  1.0000
  Fe  Fe18      1.0  0.30085  0.37651  0.96522  1.0000
  S   S31       1.0  0.37423  0.42850  0.96412  1.0000
  Fe  Fe19      1.0  0.20726  0.34903  0.98542  1.0000
  H   H80       1.0  0.30857  0.26870  0.86949  1.0000
  S   S32       1.0  0.27627  0.31514  0.93767  1.0000
  S   S33       1.0  0.17647  0.28619  0.95956  1.0000
  S   S34       1.0  0.23970  0.06416  0.73545  1.0000
  S   S35       1.0  0.21311  0.21013  0.99138  1.0000
  H   H81       1.0  0.25885  0.18190  0.94338  1.0000
  H   H82       1.0  0.18135  0.37953  0.79507  1.0000
  H   H83       1.0  0.27982  0.15885  0.73630  1.0000
  C   C88       1.0  0.17273  0.37855  0.77170  1.0000
  S   S36       1.0  0.00300  0.37366  0.69680  1.0000
  C   C89       1.0  0.26731  0.10453  0.70799  1.0000
  H   H84       1.0  0.15997  0.34424  0.76358  1.0000
  C   C90       1.0  0.13580  0.40794  0.74101  1.0000
  Fe  Fe20      1.0  0.98630  0.30737  0.71604  1.0000
  C   C91       1.0  0.41317  0.44886  0.99301  1.0000
  C   C92       1.0  0.07205  0.41114  0.75782  1.0000
  C   C93       1.0  0.04167  0.27391  0.99919  1.0000
  H   H85       1.0  0.16674  0.09048  0.70496  1.0000
  C   C94       1.0  0.18037  0.32932  0.69152  1.0000
  C   C95       1.0  0.28280  0.14945  0.71441  1.0000
  C   C96       1.0  0.04157  0.43047  0.98596  1.0000
  C   C97       1.0  0.07055  0.28747  0.83403  1.0000
  C   C98       1.0  0.10287  0.28503  0.81755  1.0000
  C   C99       1.0  0.14286  0.29353  0.83063  1.0000
  C   C100      1.0  0.15088  0.30423  0.86030  1.0000
  C   C101      1.0  0.11831  0.30600  0.87685  1.0000
  C   C102      1.0  0.07847  0.29785  0.86372  1.0000
  H   H86       1.0  0.09716  0.27695  0.79471  1.0000
  H   H87       1.0  0.16780  0.29195  0.81765  1.0000
  H   H88       1.0  0.12400  0.31426  0.89967  1.0000
  H   H89       1.0  0.05376  0.29996  0.87664  1.0000
  H   H90       1.0  0.32149  0.23108  0.91135  1.0000
  H   H91       1.0  0.11700  0.30495  0.71145  1.0000
  C   C103      1.0  0.02585  0.39480  0.00534  1.0000
  H   H92       1.0  0.20364  0.40110  0.75992  1.0000
  H   H93       1.0  0.11184  0.37131  0.80978  1.0000
  N   N7        1.0  0.20450  0.21173  0.89564  1.0000
  C   C104      1.0  0.23885  0.23921  0.87803  1.0000
  C   C105      1.0  0.21145  0.19138  0.91886  1.0000
  C   C106      1.0  0.28134  0.24628  0.88321  1.0000
  C   C107      1.0  0.25347  0.19763  0.92464  1.0000
  N   N8        1.0  0.04763  0.47067  0.99478  1.0000
  C   C108      1.0  0.16044  0.20581  0.89073  1.0000
  H   H94       1.0  0.23374  0.25657  0.86018  1.0000
  H   H95       1.0  0.18460  0.17080  0.93344  1.0000
  Fe  Fe21      1.0  0.99997  0.26536  0.77079  1.0000
  C   C109      1.0  0.10977  0.38495  0.78905  1.0000
  C   C110      1.0  0.07563  0.39429  0.78456  1.0000
  H   H96       1.0  0.15659  0.21488  0.86817  1.0000
  H   H97       1.0  0.13455  0.17085  0.89440  1.0000
  H   H98       1.0  0.09878  0.42983  0.71474  1.0000
  H   H99       1.0  0.31268  0.21653  0.69777  1.0000
  C   C111      1.0  0.10240  0.41823  0.73592  1.0000
  C   C112      1.0  0.23138  0.24253  0.70371  1.0000
  C   C113      1.0  0.18104  0.12052  0.69196  1.0000
  H   H100      1.0  0.04853  0.42571  0.96373  1.0000
  C   C114      1.0  0.32836  0.21713  0.01552  1.0000
  C   C115      1.0  0.45628  0.48341  0.98739  1.0000
  N   N9        1.0  0.13930  0.39180  0.76741  1.0000
  H   H101      1.0  0.36311  0.24147  0.01577  1.0000
  H   H102      1.0  0.39513  0.02819  0.79321  1.0000
  H   H103      1.0  0.34214  0.99673  0.70667  1.0000
  C   C116      1.0  0.28860  0.22530  0.90670  1.0000
  S   S37       1.0  0.26130  0.33912  0.00418  1.0000
  C   C117      1.0  0.19492  0.16165  0.70504  1.0000
  H   H104      1.0  0.25244  0.24539  0.72259  1.0000
  H   H105      1.0  0.02085  0.36284  0.99827  1.0000
  C   C118      1.0  0.30138  0.18221  0.69263  1.0000
  C   C119      1.0  0.08755  0.30119  0.99712  1.0000
  H   H106      1.0  0.19033  0.16293  0.72821  1.0000
  H   H107      1.0  0.04501  0.41738  0.75368  1.0000
  H   H108      1.0  0.30871  0.26224  0.99756  1.0000
  H   H109      1.0  0.20287  0.24581  0.71106  1.0000
  H   H110      1.0  0.41993  0.05149  0.69472  1.0000
  S   S38       1.0  0.16848  0.36663  0.01695  1.0000
  H   H111      1.0  0.19550  0.35990  0.70372  1.0000
  C   C120      1.0  0.13572  0.29824  0.69585  1.0000
  H   H112      1.0  0.10504  0.29707  0.97922  1.0000
  H   H113      1.0  0.25167  0.27098  0.68909  1.0000
  N   N10       1.0  0.21575  0.19986  0.68911  1.0000
  H   H114      1.0  0.02428  0.24867  0.98293  1.0000
  H   H115      1.0  0.33701  0.00144  0.83137  1.0000
  C   C121      1.0  0.25276  0.19741  0.00475  1.0000
  C   C122      1.0  0.29763  0.22893  0.00524  1.0000
  H   H116      1.0  0.40419  0.01187  0.01376  1.0000
  H   H117      1.0  0.20413  0.12966  0.01405  1.0000
  H   H118      1.0  0.46322  0.39171  0.01227  1.0000
  Fe  Fe22      1.0  0.22067  0.99102  0.73436  1.0000
  C   C123      1.0  0.36957  0.99363  0.79393  1.0000
  C   C124      1.0  0.23877  0.15430  0.01463  1.0000
  S   S39       1.0  0.05931  0.21923  0.68516  1.0000
  C   C125      1.0  0.11047  0.33376  0.01802  1.0000
  C   C126      1.0  0.46379  0.93311  0.34765  1.0000
  S   S40       1.0  0.28426  0.98319  0.10158  1.0000
  H   H119      1.0  0.18920  0.85377  0.32461  1.0000
  C   C127      1.0  0.05713  0.67554  0.30905  1.0000
  H   H120      1.0  0.45861  0.98785  0.30174  1.0000
  S   S41       1.0  0.03490  0.76933  0.29248  1.0000
  C   C128      1.0  0.08541  0.71632  0.26328  1.0000
  H   H121      1.0  0.12747  0.83172  0.28969  1.0000
  C   C129      1.0  0.17684  0.83150  0.04915  1.0000
  H   H122      1.0  0.22017  0.89648  0.06694  1.0000
  C   C130      1.0  0.46075  0.94196  0.03005  1.0000
  S   S42       1.0  0.18528  0.95241  0.04640  1.0000
  H   H123      1.0  0.45480  0.94345  0.28035  1.0000
  H   H124      1.0  0.01088  0.55461  0.32023  1.0000
  H   H125      1.0  0.45158  0.98856  0.26300  1.0000
  H   H126      1.0  0.47820  0.89397  0.31810  1.0000
  C   C131      1.0  0.14041  0.71987  0.33379  1.0000
  C   C132      1.0  0.16729  0.89552  0.04234  1.0000
  H   H127      1.0  0.14903  0.98554  0.08720  1.0000
  C   C133      1.0  0.07710  0.78697  0.31920  1.0000
  H   H128      1.0  0.16076  0.75360  0.29288  1.0000
  H   H129      1.0  0.29283  0.90602  0.04608  1.0000
  C   C134      1.0  0.19090  0.87650  0.05418  1.0000
  C   C135      1.0  0.41720  0.97556  0.04642  1.0000
  H   H130      1.0  0.04224  0.50811  0.02962  1.0000
  C   C136      1.0  0.15576  0.83101  0.33129  1.0000
  H   H131      1.0  0.19553  0.81705  0.05799  1.0000
  H   H132      1.0  0.20765  0.96545  0.14471  1.0000
  C   C137      1.0  0.13929  0.80537  0.03216  1.0000
  H   H133      1.0  0.43612  0.93731  0.07365  1.0000
  H   H134      1.0  0.10300  0.75269  0.25943  1.0000
  C   C138      1.0  0.13327  0.72850  0.30521  1.0000
  C   C139      1.0  0.43794  0.95048  0.05208  1.0000
  C   C140      1.0  0.17715  0.95806  0.13259  1.0000
  C   C141      1.0  0.12069  0.81811  0.31144  1.0000
  H   H135      1.0  0.02437  0.65849  0.29967  1.0000
  S   S43       1.0  0.40631  0.89686  0.34625  1.0000
  H   H136      1.0  0.05002  0.70456  0.25860  1.0000
  H   H137      1.0  0.09751  0.70019  0.24795  1.0000
  C   C142      1.0  0.15581  0.96329  0.34420  1.0000
  C   C143      1.0  0.20886  0.93982  0.34781  1.0000
  N   N11       1.0  0.09194  0.70675  0.29332  1.0000
  H   H138      1.0  0.18005  0.94643  0.11065  1.0000
  S   S44       1.0  0.38832  0.98444  0.07499  1.0000
  C   C144      1.0  0.46793  0.97986  0.28043  1.0000
  C   C145      1.0  0.06883  0.76959  0.34734  1.0000
  H   H139      1.0  0.47618  0.92232  0.03473  1.0000
  H   H140      1.0  0.26295  0.96899  0.31738  1.0000
  C   C146      1.0  0.12898  0.86906  0.02621  1.0000
  S   S45       1.0  0.44982  0.52289  0.34273  1.0000
  H   H141      1.0  0.14813  0.93094  0.14372  1.0000
  C   C147      1.0  0.06310  0.66590  0.33764  1.0000
  C   C148      1.0  0.23226  0.96678  0.32433  1.0000
  S   S46       1.0  0.12519  0.75031  0.02380  1.0000
  C   C149      1.0  0.11506  0.82418  0.02108  1.0000
  C   C150      1.0  0.30417  0.91236  0.02316  1.0000
  H   H142      1.0  0.32865  0.90118  0.01991  1.0000
  H   H143      1.0  0.17292  0.73845  0.34357  1.0000
  S   S47       1.0  0.30710  0.92013  0.35009  1.0000
  C   C151      1.0  0.10504  0.68839  0.35007  1.0000
  H   H144      1.0  0.03524  0.64159  0.35012  1.0000
  H   H145      1.0  0.32191  0.94873  0.01950  1.0000
  H   H146      1.0  0.06620  0.77581  0.60528  1.0000
  H   H147      1.0  0.21657  0.85779  0.64899  1.0000
  H   H148      1.0  0.36162  0.96562  0.60457  1.0000
  H   H149      1.0  0.46801  0.72264  0.65073  1.0000
  Fe  Fe23      1.0  0.33723  0.93046  0.43250  1.0000
  S   S48       1.0  0.31523  0.86800  0.40673  1.0000
  S   S49       1.0  0.35165  0.92997  0.48092  1.0000
  Fe  Fe24      1.0  0.36091  0.91326  0.37216  1.0000
  H   H150      1.0  0.01241  0.78618  0.66386  1.0000
  Fe  Fe25      1.0  0.26326  0.88075  0.38706  1.0000
  S   S50       1.0  0.19037  0.82665  0.38508  1.0000
  S   S51       1.0  0.28186  0.94026  0.41544  1.0000
  H   H151      1.0  0.48029  0.84654  0.37891  1.0000
  C   C152      1.0  0.46612  0.91047  0.42834  1.0000
  H   H152      1.0  0.05813  0.70066  0.60803  1.0000
  H   H153      1.0  0.42105  0.85186  0.40462  1.0000
  C   C153      1.0  0.18927  0.83631  0.66391  1.0000
  H   H154      1.0  0.41700  0.51580  0.44152  1.0000
  H   H155      1.0  0.13524  0.92660  0.39689  1.0000
  C   C154      1.0  0.14752  0.81338  0.35939  1.0000
  H   H156      1.0  0.44149  0.98814  0.46008  1.0000
  C   C155      1.0  0.01211  0.72444  0.66989  1.0000
  C   C156      1.0  0.40443  0.94829  0.49648  1.0000
  H   H157      1.0  0.12705  0.83813  0.63169  1.0000
  C   C157      1.0  0.44325  0.97738  0.48184  1.0000
  C   C158      1.0  0.44850  0.95178  0.53893  1.0000
  C   C159      1.0  0.40732  0.93547  0.52503  1.0000
  H   H158      1.0  0.45023  0.94175  0.56091  1.0000
  H   H159      1.0  0.37748  0.91302  0.53653  1.0000
  C   C160      1.0  0.12480  0.80585  0.63197  1.0000
  C   C161      1.0  0.15055  0.75820  0.64890  1.0000
  H   H160      1.0  0.11213  0.68934  0.63630  1.0000
  H   H161      1.0  0.43994  0.53317  0.53800  1.0000
  H   H162      1.0  0.40850  0.50323  0.40366  1.0000
  C   C162      1.0  0.11624  0.72228  0.63436  1.0000
  H   H163      1.0  0.05366  0.55334  0.43492  1.0000
  C   C163      1.0  0.09030  0.77074  0.61698  1.0000
  H   H164      1.0  0.16717  0.89938  0.39465  1.0000
  H   H165      1.0  0.44396  0.94559  0.67212  1.0000
  C   C164      1.0  0.39123  0.49689  0.42491  1.0000
  H   H166      1.0  0.09705  0.76894  0.38896  1.0000
  C   C165      1.0  0.10383  0.78286  0.36730  1.0000
  H   H167      1.0  0.12623  0.96260  0.35203  1.0000
  C   C166      1.0  0.48193  0.97127  0.36474  1.0000
  S   S52       1.0  0.38561  0.97478  0.39902  1.0000
  N   N12       1.0  0.99162  0.54958  0.44065  1.0000
  C   C167      1.0  0.46165  0.51039  0.50143  1.0000
  N   N13       1.0  0.15398  0.79913  0.64797  1.0000
  H   H168      1.0  0.46088  0.97912  0.37737  1.0000
  C   C168      1.0  0.08587  0.72865  0.61842  1.0000
  H   H169      1.0  0.36800  0.50991  0.42396  1.0000
  H   H170      1.0  0.41081  0.96862  0.61876  1.0000
  C   C169      1.0  0.45536  0.87591  0.40887  1.0000
  H   H171      1.0  0.03552  0.74567  0.35366  1.0000
  H   H172      1.0  0.99925  0.55097  0.48667  1.0000
  H   H173      1.0  0.01260  0.50374  0.45309  1.0000
  H   H174      1.0  0.17356  0.75278  0.66164  1.0000
  H   H175      1.0  0.11010  0.68206  0.37241  1.0000
  H   H176      1.0  0.44022  0.91301  0.43966  1.0000
  N   N14       1.0  0.17131  0.93855  0.35755  1.0000
  H   H177      1.0  0.36636  0.89099  0.68389  1.0000
  Fe  Fe26      1.0  0.32869  0.97883  0.37949  1.0000
  C   C170      1.0  0.43925  0.50484  0.52779  1.0000
  C   C171      1.0  0.01811  0.52817  0.43565  1.0000
  C   C172      1.0  0.45967  0.49471  0.67635  1.0000
  C   C173      1.0  0.42191  0.95693  0.67951  1.0000
  H   H178      1.0  0.17639  0.85639  0.67430  1.0000
  C   C174      1.0  0.02879  0.77015  0.67398  1.0000
  C   C175      1.0  0.98502  0.55915  0.46834  1.0000
  C   C176      1.0  0.39648  0.98880  0.61049  1.0000
  H   H179      1.0  0.20294  0.82493  0.68163  1.0000
  S   S53       1.0  0.01767  0.64811  0.67530  1.0000
  C   C177      1.0  0.14657  0.90945  0.38179  1.0000
  C   C178      1.0  0.03397  0.70390  0.68220  1.0000
  H   H180      1.0  0.11761  0.87893  0.37333  1.0000
  H   H181      1.0  0.00890  0.50937  0.41486  1.0000
  C   C179      1.0  0.47167  0.53855  0.68356  1.0000
  H   H182      1.0  0.44808  0.54981  0.68075  1.0000
  H   H183      1.0  0.22121  0.92033  0.35845  1.0000
  Fe  Fe27      1.0  0.15219  0.89531  0.71855  1.0000
  S   S54       1.0  0.18729  0.86642  0.74311  1.0000
  C   C180      1.0  0.34893  0.94015  0.69599  1.0000
  H   H184      1.0  0.26555  0.82778  0.00694  1.0000
  S   S55       1.0  0.26072  0.96841  0.76025  1.0000
  Fe  Fe28      1.0  0.24835  0.92204  0.72311  1.0000
  H   H185      1.0  0.06849  0.53834  0.98384  1.0000
  Fe  Fe29      1.0  0.19597  0.91465  0.77804  1.0000
  S   S56       1.0  0.18859  0.89888  0.82645  1.0000
  C   C181      1.0  0.25043  0.84552  0.99739  1.0000
  S   S57       1.0  0.15656  0.94040  0.75491  1.0000
  Fe  Fe30      1.0  0.06749  0.70973  0.99369  1.0000
  S   S58       1.0  0.03949  0.73977  0.96323  1.0000
  H   H186      1.0  0.25724  0.94532  0.99848  1.0000
  H   H187      1.0  0.00080  0.74505  0.73197  1.0000
  Fe  Fe31      1.0  0.03976  0.69297  0.92990  1.0000
  S   S59       1.0  0.05994  0.70928  0.88219  1.0000
  S   S60       1.0  0.07237  0.66618  0.95948  1.0000
  C   C182      1.0  0.15265  0.84595  0.84161  1.0000
  C   C183      1.0  0.14322  0.84236  0.87150  1.0000
  C   C184      1.0  0.11514  0.80082  0.88437  1.0000
  C   C185      1.0  0.09685  0.76231  0.86751  1.0000
  C   C186      1.0  0.10716  0.76587  0.83776  1.0000
  C   C187      1.0  0.13443  0.80744  0.82477  1.0000
  H   H188      1.0  0.15723  0.87194  0.88473  1.0000
  H   H189      1.0  0.10741  0.79861  0.90725  1.0000
  H   H190      1.0  0.09370  0.73622  0.82462  1.0000
  H   H191      1.0  0.14164  0.80957  0.80182  1.0000
  C   C188      1.0  0.08774  0.77424  0.70374  1.0000
  Fe  Fe32      1.0  0.00401  0.61461  0.97362  1.0000
  C   C189      1.0  0.00464  0.72320  0.81367  1.0000
  H   H192      1.0  0.25888  0.84595  0.77238  1.0000
  H   H193      1.0  0.08584  0.80436  0.00830  1.0000
  S   S61       1.0  0.00196  0.65610  0.01038  1.0000
  C   C190      1.0  0.07131  0.72877  0.69951  1.0000
  C   C191      1.0  0.21333  0.82244  0.97963  1.0000
  C   C192      1.0  0.30378  0.93417  0.81549  1.0000
  S   S62       1.0  0.21274  0.94793  0.69581  1.0000
  C   C193      1.0  0.98622  0.68817  0.79382  1.0000
  H   H194      1.0  0.11038  0.88348  0.01715  1.0000
  C   C194      1.0  0.44233  0.98362  0.99637  1.0000
  H   H195      1.0  0.08814  0.71293  0.70926  1.0000
  H   H196      1.0  0.03646  0.49834  0.95686  1.0000
  H   H197      1.0  0.39400  0.97513  0.75658  1.0000
  S   S63       1.0  0.29418  0.90015  0.70455  1.0000
  H   H198      1.0  0.16275  0.82643  0.95529  1.0000
  H   H199      1.0  0.27841  0.92288  0.83204  1.0000
  C   C195      1.0  0.06705  0.79531  0.69057  1.0000
  C   C196      1.0  0.19246  0.84444  0.96823  1.0000
  C   C197      1.0  0.02144  0.77454  0.77403  1.0000
  C   C198      1.0  0.20878  0.88907  0.97474  1.0000
  S   S64       1.0  0.08896  0.85302  0.69355  1.0000
  H   H200      1.0  0.03582  0.80822  0.76587  1.0000
  H   H201      1.0  0.46450  0.49781  0.96588  1.0000
  C   C199      1.0  0.24592  0.91114  0.99260  1.0000
  H   H202      1.0  0.19959  0.78721  0.97580  1.0000
  H   H203      1.0  0.19178  0.90603  0.96693  1.0000
  N   N15       1.0  0.26653  0.88943  0.00340  1.0000
  H   H204      1.0  0.11677  0.79294  0.71680  1.0000
  C   C200      1.0  0.36891  0.96393  0.77335  1.0000
  C   C201      1.0  0.46302  0.95849  0.00203  1.0000
  C   C202      1.0  0.02265  0.76665  0.80364  1.0000
  H   H205      1.0  0.33474  0.89693  0.75794  1.0000
  H   H206      1.0  0.27758  0.83894  0.80771  1.0000
  H   H207      1.0  0.48171  0.73074  0.90937  1.0000
  N   N16       1.0  0.30259  0.90563  0.79463  1.0000
  C   C203      1.0  0.36423  0.98548  0.69915  1.0000
  C   C204      1.0  0.33515  0.91971  0.77417  1.0000
  H   H208      1.0  0.23653  0.85584  0.80449  1.0000
  H   H209      1.0  0.99238  0.65074  0.73831  1.0000
  C   C205      1.0  0.26724  0.85925  0.79485  1.0000
  C   C206      1.0  0.06240  0.50681  0.97362  1.0000
  H   H210      1.0  0.03811  0.79412  0.81881  1.0000
  H   H211      1.0  0.09342  0.51292  0.96300  1.0000
  C   C207      1.0  0.33703  0.97866  0.81531  1.0000
  C   C208      1.0  0.37791  0.92602  0.68623  1.0000
  H   H212      1.0  0.00590  0.71677  0.83665  1.0000
  C   C209      1.0  0.00188  0.73864  0.75488  1.0000
  Fe  Fe33      1.0  0.75928  0.05015  0.31937  1.0000
  S   S65       1.0  0.71637  0.07682  0.30355  1.0000
  C   C210      1.0  0.63769  0.07587  0.05430  1.0000
  H   H213      1.0  0.93552  0.37331  0.13193  1.0000
  Fe  Fe34      1.0  0.70363  0.03288  0.26501  1.0000
  S   S66       1.0  0.69929  0.05780  0.21993  1.0000
  H   H214      1.0  0.74857  0.27295  0.15411  1.0000
  Fe  Fe35      1.0  0.81839  0.22753  0.05110  1.0000
  S   S67       1.0  0.85625  0.19783  0.07110  1.0000
  C   C211      1.0  0.49044  0.39206  0.02504  1.0000
  Fe  Fe36      1.0  0.88619  0.32196  0.06999  1.0000
  S   S68       1.0  0.92860  0.29841  0.09180  1.0000
  S   S69       1.0  0.90707  0.39521  0.07432  1.0000
  Fe  Fe37      1.0  0.91571  0.25659  0.05202  1.0000
  Fe  Fe38      1.0  0.86492  0.24172  0.10914  1.0000
  S   S70       1.0  0.86136  0.22167  0.15675  1.0000
  C   C212      1.0  0.53340  0.99145  0.25379  1.0000
  S   S71       1.0  0.82340  0.26839  0.09028  1.0000
  C   C213      1.0  0.92488  0.43470  0.04566  1.0000
  N   N17       1.0  0.51584  0.00365  0.27608  1.0000
  C   C214      1.0  0.75244  0.10780  0.03793  1.0000
  C   C215      1.0  0.81614  0.17532  0.17362  1.0000
  C   C216      1.0  0.82052  0.16459  0.20246  1.0000
  C   C217      1.0  0.78528  0.12852  0.21680  1.0000
  C   C218      1.0  0.74498  0.10300  0.20253  1.0000
  C   C219      1.0  0.74047  0.11403  0.17379  1.0000
  C   C220      1.0  0.77585  0.14986  0.15936  1.0000
  H   H215      1.0  0.85153  0.18401  0.21367  1.0000
  H   H216      1.0  0.78930  0.12029  0.23882  1.0000
  H   H217      1.0  0.70949  0.09453  0.16257  1.0000
  H   H218      1.0  0.77193  0.15773  0.13721  1.0000
  S   S72       1.0  0.70548  0.99380  0.34459  1.0000
  H   H219      1.0  0.88207  0.30954  0.17467  1.0000
  H   H220      1.0  0.86026  0.08065  0.02651  1.0000
  S   S73       1.0  0.96069  0.24343  0.02373  1.0000
  N   N18       1.0  0.87348  0.35655  0.14982  1.0000
  C   C221      1.0  0.88436  0.26813  0.31344  1.0000
  H   H221      1.0  0.64077  0.47963  0.03570  1.0000
  H   H222      1.0  0.80495  0.16864  0.28999  1.0000
  H   H223      1.0  0.94522  0.22539  0.28536  1.0000
  C   C222      1.0  0.73784  0.06277  0.03329  1.0000
  C   C223      1.0  0.80425  0.23677  0.31622  1.0000
  C   C224      1.0  0.60639  0.04959  0.26664  1.0000
  H   H224      1.0  0.92835  0.42003  0.13904  1.0000
  C   C225      1.0  0.58825  0.06174  0.28934  1.0000
  C   C226      1.0  0.83765  0.19640  0.29403  1.0000
  C   C227      1.0  0.92175  0.26586  0.30530  1.0000
  C   C228      1.0  0.87427  0.19293  0.28569  1.0000
  C   C229      1.0  0.91656  0.22792  0.29139  1.0000
  C   C230      1.0  0.84418  0.36592  0.13626  1.0000
  H   H225      1.0  0.59312  0.00445  0.23123  1.0000
  H   H226      1.0  0.65587  0.14365  0.04462  1.0000
  C   C231      1.0  0.73748  0.13016  0.02013  1.0000
  H   H227      1.0  0.64175  0.06715  0.26309  1.0000
  H   H228      1.0  0.88860  0.29726  0.32491  1.0000
  S   S74       1.0  0.75522  0.18672  0.02566  1.0000
  S   S75       1.0  0.74984  0.00925  0.27943  1.0000
  H   H229      1.0  0.77582  0.34359  0.12667  1.0000
  C   C232      1.0  0.63328  0.10896  0.03993  1.0000
  S   S76       1.0  0.87723  0.28350  0.02913  1.0000
  H   H230      1.0  0.75015  0.04591  0.04692  1.0000
  C   C233      1.0  0.54259  0.03854  0.29363  1.0000
  C   C234      1.0  0.85881  0.31769  0.16472  1.0000
  H   H231      1.0  0.80242  0.25600  0.17797  1.0000
  H   H232      1.0  0.81093  0.25736  0.33609  1.0000
  C   C235      1.0  0.79882  0.33627  0.13783  1.0000
  C   C236      1.0  0.78357  0.29670  0.15319  1.0000
  C   C237      1.0  0.61566  0.99777  0.06258  1.0000
  N   N19       1.0  0.84302  0.23344  0.30804  1.0000
  H   H233      1.0  0.85581  0.39609  0.12365  1.0000
  C   C238      1.0  0.81370  0.28726  0.16671  1.0000
  C   C239      1.0  0.61203  0.46989  0.02208  1.0000
  H   H234      1.0  0.79499  0.25179  0.29823  1.0000
  H   H235      1.0  0.77484  0.12493  0.05554  1.0000
  H   H236      1.0  0.48782  0.35900  0.02340  1.0000
  C   C240      1.0  0.93973  0.47941  0.05233  1.0000
  Fe  Fe39      1.0  0.66125  0.01671  0.32499  1.0000
  H   H237      1.0  0.56646  0.42481  0.05347  1.0000
  N   N20       1.0  0.61017  0.03214  0.04788  1.0000
  H   H238      1.0  0.95446  0.29304  0.31022  1.0000
  H   H239      1.0  0.52893  0.04790  0.31161  1.0000
  H   H240      1.0  0.66390  0.08556  0.07013  1.0000
  C   C241      1.0  0.57001  0.43875  0.03190  1.0000
  H   H241      1.0  0.86969  0.16276  0.27555  1.0000
  C   C242      1.0  0.57869  0.02026  0.02679  1.0000
  C   C243      1.0  0.92103  0.38704  0.14738  1.0000
  H   H242      1.0  0.93869  0.48884  0.07455  1.0000
  H   H243      1.0  0.60952  0.08817  0.30405  1.0000
  H   H244      1.0  0.93732  0.39203  0.16886  1.0000
  H   H245      1.0  0.77588  0.20361  0.32150  1.0000
  C   C244      1.0  0.57892  0.01424  0.24872  1.0000
  H   H246      1.0  0.63398  0.00988  0.08335  1.0000
  S   S77       1.0  0.82882  0.09663  0.33485  1.0000
  H   H247      1.0  0.48550  0.39842  0.04802  1.0000
  C   C245      1.0  0.60081  0.09704  0.01869  1.0000
  C   C246      1.0  0.86957  0.09424  0.67779  1.0000
  S   S78       1.0  0.93153  0.39513  0.41485  1.0000
  C   C247      1.0  0.98291  0.47599  0.53548  1.0000
  H   H248      1.0  0.94658  0.41325  0.61818  1.0000
  Fe  Fe40      1.0  0.92494  0.32970  0.40167  1.0000
  H   H249      1.0  0.89297  0.43975  0.62102  1.0000
  H   H250      1.0  0.91597  0.15848  0.61819  1.0000
  C   C248      1.0  0.78451  0.15288  0.65706  1.0000
  H   H251      1.0  0.52826  0.08648  0.56744  1.0000
  Fe  Fe41      1.0  0.62954  0.04623  0.63408  1.0000
  S   S79       1.0  0.70052  0.10405  0.63546  1.0000
  S   S80       1.0  0.57941  0.06207  0.61538  1.0000
  H   H252      1.0  0.90713  0.17538  0.35254  1.0000
  H   H253      1.0  0.86924  0.48792  0.37353  1.0000
  H   H254      1.0  0.76716  0.12034  0.35958  1.0000
  S   S81       1.0  0.97727  0.35785  0.36721  1.0000
  C   C249      1.0  0.95921  0.37149  0.57327  1.0000
  H   H255      1.0  0.79051  0.17336  0.63802  1.0000
  H   H256      1.0  0.54139  0.02851  0.37955  1.0000
  C   C250      1.0  0.87216  0.11382  0.65077  1.0000
  H   H257      1.0  0.51415  0.01721  0.48461  1.0000
  C   C251      1.0  0.96683  0.45445  0.50875  1.0000
  S   S82       1.0  0.96974  0.33015  0.43679  1.0000
  S   S83       1.0  0.49173  0.04192  0.67291  1.0000
  C   C252      1.0  0.88602  0.21750  0.37295  1.0000
  C   C253      1.0  0.94596  0.44734  0.67824  1.0000
  C   C254      1.0  0.87925  0.17822  0.35968  1.0000
  C   C255      1.0  0.84980  0.22189  0.38094  1.0000
  C   C256      1.0  0.80030  0.14729  0.36321  1.0000
  H   H258      1.0  0.90042  0.36215  0.53338  1.0000
  C   C257      1.0  0.76644  0.23999  0.67903  1.0000
  S   S84       1.0  0.58576  0.00780  0.67151  1.0000
  C   C258      1.0  0.86713  0.39245  0.55426  1.0000
  S   S85       1.0  0.85649  0.27258  0.39354  1.0000
  C   C259      1.0  0.83639  0.14335  0.35436  1.0000
  C   C260      1.0  0.80703  0.18639  0.37661  1.0000
  H   H259      1.0  0.70513  0.20512  0.65588  1.0000
  C   C261      1.0  0.49790  0.42598  0.58059  1.0000
  C   C262      1.0  0.90130  0.41877  0.68386  1.0000
  C   C263      1.0  0.95145  0.15127  0.65414  1.0000
  C   C264      1.0  0.93216  0.45674  0.49524  1.0000
  H   H260      1.0  0.91919  0.43996  0.47478  1.0000
  C   C265      1.0  0.74277  0.11521  0.66105  1.0000
  C   C266      1.0  0.94762  0.13126  0.68116  1.0000
  C   C267      1.0  0.89791  0.37790  0.55308  1.0000
  N   N21       1.0  0.92596  0.38529  0.57583  1.0000
  C   C268      1.0  0.89388  0.42201  0.60198  1.0000
  H   H261      1.0  0.49632  0.41553  0.60363  1.0000
  C   C269      1.0  0.52772  0.99928  0.36595  1.0000
  H   H262      1.0  0.77893  0.18952  0.38303  1.0000
  Fe  Fe42      1.0  0.53370  0.01838  0.65023  1.0000
  H   H263      1.0  0.91907  0.24489  0.37611  1.0000
  C   C270      1.0  0.91343  0.14255  0.63893  1.0000
  H   H264      1.0  0.84228  0.10744  0.63946  1.0000
  S   S86       1.0  0.53991  0.00422  0.54107  1.0000
  C   C271      1.0  0.92667  0.48266  0.36327  1.0000
  C   C272      1.0  0.92419  0.40694  0.60014  1.0000
  C   C273      1.0  0.49347  0.48911  0.60010  1.0000
  H   H265      1.0  0.52369  0.42141  0.56973  1.0000
  C   C274      1.0  0.72313  0.20540  0.67516  1.0000
  H   H266      1.0  0.84596  0.38786  0.53580  1.0000
  H   H267      1.0  0.84278  0.42782  0.57969  1.0000
  C   C275      1.0  0.86538  0.41492  0.57883  1.0000
  Fe  Fe43      1.0  0.55398  0.99987  0.58902  1.0000
  H   H268      1.0  0.94351  0.33623  0.56652  1.0000
  H   H269      1.0  0.97675  0.37502  0.59413  1.0000
  H   H270      1.0  0.91628  0.45320  0.37621  1.0000
  H   H271      1.0  0.85014  0.19401  0.67449  1.0000
  C   C276      1.0  0.81833  0.16473  0.67773  1.0000
  H   H272      1.0  0.64704  0.13437  0.66839  1.0000
  H   H273      1.0  0.95713  0.48085  0.67124  1.0000
  C   C277      1.0  0.91392  0.48053  0.50840  1.0000
  N   N22       1.0  0.50772  0.47205  0.57869  1.0000
  S   S87       1.0  0.86209  0.43597  0.67821  1.0000
  H   H274      1.0  0.88724  0.48236  0.49774  1.0000
  Fe  Fe44      1.0  0.98090  0.39827  0.44728  1.0000
  H   H275      1.0  0.78161  0.26637  0.66310  1.0000
  H   H276      1.0  0.53836  0.48280  0.53715  1.0000
  C   C278      1.0  0.48976  0.47967  0.68009  1.0000
  C   C279      1.0  0.49265  0.06735  0.56544  1.0000
  C   C280      1.0  0.97661  0.43288  0.68222  1.0000
  H   H277      1.0  0.49208  0.08515  0.52069  1.0000
  H   H278      1.0  0.98383  0.17416  0.64543  1.0000
  H   H279      1.0  0.96718  0.20922  0.39288  1.0000
  H   H280      1.0  0.96840  0.15961  0.35431  1.0000
  H   H281      1.0  0.98401  0.39206  0.55658  1.0000
  S   S88       1.0  0.61302  0.02574  0.35261  1.0000
  H   H282      1.0  0.59731  0.12234  0.00717  1.0000
  H   H283      1.0  0.65545  0.10350  0.69594  1.0000
  H   H284      1.0  0.83739  0.07301  0.68729  1.0000
  S   S89       1.0  0.97571  0.19986  0.74844  1.0000
  Fe  Fe45      1.0  0.92237  0.21069  0.72906  1.0000
  S   S90       1.0  0.85167  0.15268  0.72965  1.0000
  S   S91       1.0  0.94329  0.27339  0.75451  1.0000
  C   C281      1.0  0.70696  0.10681  0.99803  1.0000
  C   C282      1.0  0.76915  0.10092  0.70645  1.0000
  H   H285      1.0  0.82846  0.19971  0.99044  1.0000
  C   C283      1.0  0.77059  0.20561  0.72353  1.0000
  H   H286      1.0  0.89727  0.10318  0.73784  1.0000
  H   H287      1.0  0.91513  0.38885  0.01131  1.0000
  C   C284      1.0  0.65837  0.13619  0.69120  1.0000
  C   C285      1.0  0.73535  0.08901  0.68574  1.0000
  H   H288      1.0  0.78930  0.20463  0.74209  1.0000
  C   C286      1.0  0.91833  0.36115  0.69796  1.0000
  H   H289      1.0  0.66878  0.04384  0.97629  1.0000
  C   C287      1.0  0.61678  0.48891  0.99471  1.0000
  C   C288      1.0  0.57336  0.05243  0.01200  1.0000
  H   H290      1.0  0.93401  0.08316  0.72748  1.0000
  C   C289      1.0  0.90340  0.08352  0.72139  1.0000
  C   C290      1.0  0.96299  0.38989  0.69217  1.0000
  C   C291      1.0  0.85112  0.19202  0.97814  1.0000
  C   C292      1.0  0.79216  0.06872  0.97030  1.0000
  C   C293      1.0  0.69185  0.06147  0.99360  1.0000
  N   N23       1.0  0.83848  0.14547  0.98254  1.0000
  C   C294      1.0  0.53809  0.44484  0.98781  1.0000
  H   H291      1.0  0.69497  0.12383  0.98429  1.0000
  H   H292      1.0  0.82414  0.26611  0.70638  1.0000
  H   H293      1.0  0.70346  0.05985  0.68903  1.0000
  C   C295      1.0  0.57959  0.47658  0.97748  1.0000
  C   C296      1.0  0.94348  0.45593  0.99505  1.0000
  H   H294      1.0  0.50928  0.43556  0.97435  1.0000
  H   H295      1.0  0.76514  0.04324  0.95777  1.0000
  H   H296      1.0  0.80060  0.02200  0.99630  1.0000
  C   C297      1.0  0.79027  0.23995  0.70336  1.0000
  H   H297      1.0  0.85302  0.35347  0.69829  1.0000
  C   C298      1.0  0.80543  0.11346  0.96608  1.0000
  C   C299      1.0  0.88753  0.37559  0.69374  1.0000
  H   H298      1.0  0.76298  0.08065  0.72562  1.0000
  H   H299      1.0  0.84971  0.19926  0.95479  1.0000
  H   H300      1.0  0.78854  0.12235  0.94993  1.0000
  C   C300      1.0  0.72710  0.17177  0.71911  1.0000
  C   C301      1.0  0.70783  0.03956  0.01102  1.0000
  H   H301      1.0  0.94507  0.44664  0.97288  1.0000
  H   H302      1.0  0.63605  0.14140  0.70572  1.0000
  H   H303      1.0  0.90769  0.32801  0.70574  1.0000
  S   S92       1.0  0.96199  0.24545  0.68941  1.0000
  H   H304      1.0  0.87575  0.04880  0.72207  1.0000
  C   C302      1.0  0.81065  0.13897  0.70267  1.0000
  H   H305      1.0  0.71225  0.14485  0.73466  1.0000
  H   H306      1.0  0.88542  0.21457  0.98561  1.0000
  C   C303      1.0  0.85800  0.13404  0.00407  1.0000
  H   H307      1.0  0.88338  0.15928  0.01767  1.0000
  N   N24       1.0  0.70408  0.17182  0.69506  1.0000
  H   H308      1.0  0.54820  0.04263  0.99532  1.0000
  C   C304      1.0  0.92645  0.42305  0.01682  1.0000
  C   C305      1.0  0.81206  0.05677  0.99206  1.0000
  H   H309      1.0  0.97740  0.13901  0.69308  1.0000
  N   N25       1.0  0.90703  0.10290  0.69253  1.0000
  C   C306      1.0  0.84516  0.08957  0.00913  1.0000
  N   N26       1.0  0.53375  0.42649  0.01477  1.0000
  Fe  Fe46      1.0  0.89463  0.62455  0.31664  1.0000
  C   C307      1.0  0.87153  0.68542  0.08153  1.0000
  H   H310      1.0  0.73694  0.57060  0.31611  1.0000
  Fe  Fe47      1.0  0.88329  0.65399  0.25585  1.0000
  S   S93       1.0  0.91034  0.72424  0.27047  1.0000
  S   S94       1.0  0.85983  0.63135  0.20943  1.0000
  Fe  Fe48      1.0  0.96174  0.71634  0.29550  1.0000
  Fe  Fe49      1.0  0.86701  0.69415  0.30951  1.0000
  C   C308      1.0  0.85036  0.59926  0.06878  1.0000
  S   S95       1.0  0.93841  0.64797  0.27735  1.0000
  S   S96       1.0  0.83765  0.62436  0.29369  1.0000
  Fe  Fe50      1.0  0.65631  0.64979  0.05104  1.0000
  H   H311      1.0  0.73369  0.70854  0.32630  1.0000
  C   C309      1.0  0.59310  0.54045  0.32358  1.0000
  Fe  Fe51      1.0  0.66798  0.60818  0.10647  1.0000
  S   S97       1.0  0.64324  0.54223  0.08482  1.0000
  S   S98       1.0  0.69016  0.62717  0.15343  1.0000
  Fe  Fe52      1.0  0.68575  0.58148  0.04721  1.0000
  C   C310      1.0  0.72044  0.60676  0.28531  1.0000
  Fe  Fe53      1.0  0.59090  0.55317  0.06390  1.0000
  C   C311      1.0  0.61249  0.74487  0.09962  1.0000
  S   S99       1.0  0.71380  0.64648  0.07030  1.0000
  S   S100      1.0  0.61197  0.61623  0.08898  1.0000
  Fe  Fe54      1.0  0.69196  0.95448  0.30344  1.0000
  S   S101      1.0  0.63186  0.58758  0.02457  1.0000
  S   S102      1.0  0.67862  0.88318  0.30163  1.0000
  H   H312      1.0  0.57462  0.50627  0.31480  1.0000
  H   H313      1.0  0.96485  0.72898  0.08199  1.0000
  H   H314      1.0  0.80687  0.85258  0.32300  1.0000
  H   H315      1.0  0.57387  0.55742  0.31912  1.0000
  C   C312      1.0  0.53794  0.95185  0.33234  1.0000
  N   N27       1.0  0.63726  0.56410  0.31068  1.0000
  H   H316      1.0  0.84201  0.56581  0.06289  1.0000
  S   S103      1.0  0.92046  0.69247  0.33600  1.0000
  H   H317      1.0  0.80510  0.65704  0.09802  1.0000
  S   S104      1.0  0.64435  0.97432  0.28522  1.0000
  C   C313      1.0  0.66923  0.55543  0.32037  1.0000
  H   H318      1.0  0.87945  0.71905  0.08644  1.0000
  H   H319      1.0  0.91590  0.62860  0.05151  1.0000
  H   H320      1.0  0.74652  0.86723  0.33722  1.0000
  C   C314      1.0  0.49197  0.92350  0.33139  1.0000
  H   H321      1.0  0.65172  0.68312  0.15051  1.0000
  H   H322      1.0  0.67819  0.77601  0.08245  1.0000
  C   C315      1.0  0.65574  0.75263  0.09832  1.0000
  C   C316      1.0  0.73747  0.62809  0.16857  1.0000
  C   C317      1.0  0.75179  0.64586  0.19649  1.0000
  C   C318      1.0  0.78909  0.64704  0.20927  1.0000
  C   C319      1.0  0.81253  0.63041  0.19424  1.0000
  C   C320      1.0  0.79824  0.61273  0.16627  1.0000
  C   C321      1.0  0.76086  0.61144  0.15353  1.0000
  H   H323      1.0  0.73417  0.65910  0.20821  1.0000
  H   H324      1.0  0.80005  0.66124  0.23062  1.0000
  H   H325      1.0  0.81600  0.59961  0.15454  1.0000
  H   H326      1.0  0.74975  0.59704  0.13227  1.0000
  H   H327      1.0  0.55942  0.94419  0.31982  1.0000
  C   C322      1.0  0.68752  0.61503  0.27533  1.0000
  C   C323      1.0  0.82948  0.65051  0.08820  1.0000
  H   H328      1.0  0.69448  0.63846  0.25780  1.0000
  H   H329      1.0  0.57694  0.66826  0.03660  1.0000
  H   H330      1.0  0.58305  0.96855  0.06766  1.0000
  C   C324      1.0  0.58310  0.71410  0.11947  1.0000
  S   S105      1.0  0.88084  0.56680  0.34608  1.0000
  C   C325      1.0  0.95663  0.51228  0.03053  1.0000
  C   C326      1.0  0.64097  0.70074  0.13619  1.0000
  C   C327      1.0  0.91321  0.54091  0.34523  1.0000
  C   C328      1.0  0.95290  0.55928  0.32992  1.0000
  H   H331      1.0  0.66275  0.53301  0.33849  1.0000
  H   H332      1.0  0.78588  0.57992  0.08583  1.0000
  C   C329      1.0  0.81883  0.60720  0.08162  1.0000
  C   C330      1.0  0.63797  0.79739  0.32189  1.0000
  N   N28       1.0  0.66913  0.72990  0.11598  1.0000
  C   C331      1.0  0.71441  0.73810  0.11372  1.0000
  C   C332      1.0  0.94575  0.71479  0.06174  1.0000
  C   C333      1.0  0.89208  0.63497  0.06234  1.0000
  C   C334      1.0  0.78384  0.83305  0.33997  1.0000
  C   C335      1.0  0.58784  0.70232  0.03079  1.0000
  H   H333      1.0  0.64876  0.78991  0.30175  1.0000
  H   H334      1.0  0.72443  0.74100  0.09053  1.0000
  C   C336      1.0  0.59744  0.69209  0.13807  1.0000
  H   H335      1.0  0.75320  0.62416  0.27586  1.0000
  C   C337      1.0  0.64709  0.84098  0.32724  1.0000
  S   S106      1.0  0.82019  0.71878  0.32171  1.0000
  H   H336      1.0  0.71761  0.71036  0.12312  1.0000
  N   N29       1.0  0.90203  0.67742  0.06852  1.0000
  C   C338      1.0  0.64578  0.59313  0.28825  1.0000
  S   S107      1.0  0.72718  0.55662  0.02530  1.0000
  H   H337      1.0  0.62038  0.59975  0.28034  1.0000
  H   H338      1.0  0.60165  0.76194  0.08485  1.0000
  S   S108      1.0  0.67333  0.71726  0.03376  1.0000
  H   H339      1.0  0.96862  0.54663  0.03604  1.0000
  C   C339      1.0  0.55678  0.71627  0.02604  1.0000
  H   H340      1.0  0.73729  0.76908  0.12532  1.0000
  C   C340      1.0  0.63285  0.73248  0.02773  1.0000
  H   H341      1.0  0.54924  0.70720  0.12030  1.0000
  S   S109      1.0  0.51984  0.49568  0.06437  1.0000
  C   C341      1.0  0.71125  0.57659  0.30784  1.0000
  H   H342      1.0  0.96290  0.58863  0.31696  1.0000
  H   H343      1.0  0.57488  0.66798  0.15355  1.0000
  H   H344      1.0  0.52193  0.69269  0.02792  1.0000
  C   C342      1.0  0.73496  0.68422  0.34033  1.0000
  H   H345      1.0  0.94247  0.74071  0.04964  1.0000
  C   C343      1.0  0.77351  0.68123  0.34159  1.0000
  C   C344      1.0  0.75013  0.84134  0.34798  1.0000
  C   C345      1.0  0.97982  0.53986  0.33172  1.0000
  H   H346      1.0  0.63419  0.98696  0.04836  1.0000
  H   H347      1.0  0.96479  0.70475  0.04736  1.0000
  H   H348      1.0  0.51224  0.96382  0.23987  1.0000
  H   H349      1.0  0.60914  0.73026  0.33828  1.0000
  C   C346      1.0  0.61551  0.76349  0.34256  1.0000
  H   H350      1.0  0.59531  0.53864  0.34759  1.0000
  C   C347      1.0  0.64659  0.77655  0.02035  1.0000
  C   C348      1.0  0.96701  0.50175  0.34865  1.0000
  H   H351      1.0  0.55748  0.98572  0.02119  1.0000
  H   H352      1.0  0.77246  0.65274  0.02327  1.0000
  H   H353      1.0  0.81323  0.79204  0.34738  1.0000
  C   C349      1.0  0.55586  0.98964  0.34989  1.0000
  H   H354      1.0  0.68139  0.80013  0.01817  1.0000
  C   C350      1.0  0.57061  0.76036  0.01837  1.0000
  Fe  Fe55      1.0  0.90857  0.54866  0.59817  1.0000
  H   H355      1.0  0.51706  0.79085  0.62327  1.0000
  H   H356      1.0  0.58093  0.88549  0.39761  1.0000
  C   C351      1.0  0.97483  0.56122  0.41757  1.0000
  H   H357      1.0  0.59058  0.84852  0.61325  1.0000
  C   C352      1.0  0.61065  0.81641  0.37405  1.0000
  Fe  Fe56      1.0  0.85703  0.57178  0.64266  1.0000
  S   S110      1.0  0.79947  0.58536  0.64277  1.0000
  S   S111      1.0  0.91859  0.61331  0.61644  1.0000
  C   C353      1.0  0.48905  0.87333  0.39421  1.0000
  H   H358      1.0  0.91810  0.60192  0.45396  1.0000
  C   C354      1.0  0.60204  0.77297  0.36888  1.0000
  C   C355      1.0  0.51962  0.70764  0.66019  1.0000
  H   H359      1.0  0.75917  0.74657  0.38499  1.0000
  Fe  Fe57      1.0  0.56058  0.94934  0.64128  1.0000
  S   S112      1.0  0.56882  0.62054  0.36236  1.0000
  C   C356      1.0  0.75671  0.77352  0.37496  1.0000
  S   S113      1.0  0.84465  0.50816  0.62171  1.0000
  S   S114      1.0  0.52808  0.53618  0.40925  1.0000
  Fe  Fe58      1.0  0.55917  0.66007  0.39726  1.0000
  S   S115      1.0  0.58891  0.63848  0.43270  1.0000
  S   S116      1.0  0.57745  0.73297  0.39688  1.0000
  Fe  Fe59      1.0  0.59385  0.59543  0.39844  1.0000
  H   H360      1.0  0.57734  0.96385  0.42087  1.0000
  Fe  Fe60      1.0  0.52058  0.58127  0.44058  1.0000
  C   C357      1.0  0.54312  0.93871  0.41763  1.0000
  H   H361      1.0  0.95199  0.58410  0.49569  1.0000
  H   H362      1.0  0.73866  0.59554  0.38932  1.0000
  H   H363      1.0  0.60073  0.82405  0.39447  1.0000
  N   N30       1.0  0.53225  0.90486  0.39842  1.0000
  S   S117      1.0  0.90811  0.53399  0.54987  1.0000
  H   H364      1.0  0.51908  0.96911  0.44785  1.0000
  H   H365      1.0  0.63674  0.84188  0.62186  1.0000
  S   S118      1.0  0.50507  0.95729  0.62276  1.0000
  C   C358      1.0  0.62801  0.90045  0.66867  1.0000
  S   S119      1.0  0.60761  0.98676  0.60500  1.0000
  C   C359      1.0  0.69928  0.62382  0.37486  1.0000
  C   C360      1.0  0.68502  0.51404  0.67890  1.0000
  S   S120      1.0  0.54257  0.88103  0.65762  1.0000
  H   H366      1.0  0.63867  0.93102  0.65683  1.0000
  H   H367      1.0  0.93332  0.58757  0.40353  1.0000
  S   S121      1.0  0.89231  0.56315  0.68084  1.0000
  H   H368      1.0  0.67523  0.76938  0.41507  1.0000
  C   C361      1.0  0.56416  0.72121  0.65668  1.0000
  C   C362      1.0  0.48727  0.98120  0.52438  1.0000
  C   C363      1.0  0.94796  0.57997  0.42194  1.0000
  C   C364      1.0  0.78773  0.61596  0.66852  1.0000
  C   C365      1.0  0.75256  0.62378  0.66305  1.0000
  C   C366      1.0  0.68900  0.75165  0.40261  1.0000
  H   H369      1.0  0.73511  0.61338  0.64260  1.0000
  C   C367      1.0  0.65905  0.88851  0.67801  1.0000
  C   C368      1.0  0.96451  0.49954  0.54870  1.0000
  H   H370      1.0  0.49858  0.67795  0.67264  1.0000
  C   C369      1.0  0.51028  0.94200  0.43287  1.0000
  N   N31       1.0  0.57423  0.78445  0.62930  1.0000
  S   S122      1.0  0.65290  0.58580  0.39483  1.0000
  H   H371      1.0  0.55513  0.88193  0.36294  1.0000
  Fe  Fe61      1.0  0.95312  0.60066  0.65338  1.0000
  C   C370      1.0  0.59119  0.75989  0.64104  1.0000
  S   S123      1.0  0.94885  0.53992  0.63266  1.0000
  H   H372      1.0  0.66836  0.65822  0.35595  1.0000
  C   C371      1.0  0.53038  0.77102  0.63222  1.0000
  C   C372      1.0  0.90003  0.50237  0.36171  1.0000
  H   H373      1.0  0.67590  0.50125  0.65700  1.0000
  C   C373      1.0  0.58307  0.87171  0.67344  1.0000
  C   C374      1.0  0.72027  0.81527  0.36952  1.0000
  C   C375      1.0  0.69796  0.65578  0.35708  1.0000
  C   C376      1.0  0.52470  0.55888  0.57469  1.0000
  H   H374      1.0  0.55423  0.56031  0.53334  1.0000
  C   C377      1.0  0.73759  0.62041  0.37574  1.0000
  H   H375      1.0  0.69414  0.82183  0.37551  1.0000
  C   C378      1.0  0.50251  0.73261  0.64787  1.0000
  H   H376      1.0  0.70179  0.73671  0.41852  1.0000
  C   C379      1.0  0.56737  0.90152  0.38328  1.0000
  H   H377      1.0  0.71171  0.64938  0.67966  1.0000
  C   C380      1.0  0.50210  0.53285  0.59862  1.0000
  H   H378      1.0  0.53073  0.59253  0.57282  1.0000
  C   C381      1.0  0.53827  0.54092  0.55262  1.0000
  S   S124      1.0  0.49017  0.60606  0.40776  1.0000
  Fe  Fe62      1.0  0.50225  0.56444  0.37581  1.0000
  H   H379      1.0  0.66147  0.72455  0.39026  1.0000
  C   C382      1.0  0.77463  0.64902  0.35914  1.0000
  H   H380      1.0  0.73982  0.50207  0.68108  1.0000
  N   N32       1.0  0.72344  0.78152  0.38243  1.0000
  H   H381      1.0  0.62604  0.77074  0.63903  1.0000
  H   H382      1.0  0.57765  0.70202  0.66635  1.0000
  C   C383      1.0  0.60288  0.82450  0.61258  1.0000
  C   C384      1.0  0.93947  0.58806  0.45019  1.0000
  H   H383      1.0  0.98316  0.70544  0.65657  1.0000
  H   H384      1.0  0.80421  0.64643  0.36018  1.0000
  C   C385      1.0  0.93005  0.50209  0.53514  1.0000
  C   C386      1.0  0.95852  0.57813  0.47357  1.0000
  H   H385      1.0  0.60439  0.81570  0.58963  1.0000
  S   S125      1.0  0.49155  0.56414  0.48624  1.0000
  Fe  Fe63      1.0  0.88559  0.50327  0.65750  1.0000
  C   C387      1.0  0.78745  0.79918  0.35368  1.0000
  C   C388      1.0  0.52908  0.49701  0.55486  1.0000
  H   H386      1.0  0.64030  0.88373  0.35788  1.0000
  C   C389      1.0  0.63302  0.85027  0.35337  1.0000
  H   H387      1.0  0.49080  0.54611  0.61580  1.0000
  H   H388      1.0  0.59448  0.93494  0.37693  1.0000
  H   H389      1.0  0.97745  0.51627  0.56917  1.0000
  H   H390      1.0  0.69371  0.91027  0.67362  1.0000
  C   C390      1.0  0.73918  0.64413  0.68403  1.0000
  H   H391      1.0  0.63515  0.53269  0.68232  1.0000
  H   H392      1.0  0.98173  0.55554  0.39562  1.0000
  Fe  Fe64      1.0  0.68748  0.69534  0.73780  1.0000
  S   S126      1.0  0.62476  0.65469  0.76312  1.0000
  S   S127      1.0  0.74189  0.67716  0.73936  1.0000
  Fe  Fe65      1.0  0.66123  0.76524  0.72246  1.0000
  S   S128      1.0  0.59720  0.72966  0.74633  1.0000
  H   H393      1.0  0.65343  0.59712  0.72065  1.0000
  Fe  Fe66      1.0  0.63579  0.71965  0.78144  1.0000
  S   S129      1.0  0.63355  0.73299  0.82971  1.0000
  Fe  Fe67      1.0  0.59208  0.66859  0.72562  1.0000
  S   S130      1.0  0.68443  0.83219  0.70155  1.0000
  S   S131      1.0  0.70072  0.75918  0.75881  1.0000
  C   C391      1.0  0.79661  0.64977  0.71605  1.0000
  Fe  Fe68      1.0  0.57997  0.88543  0.92868  1.0000
  S   S132      1.0  0.51561  0.85068  0.95274  1.0000
  S   S133      1.0  0.58138  0.87089  0.88051  1.0000
  Fe  Fe69      1.0  0.62910  0.93756  0.98287  1.0000
  C   C392      1.0  0.59664  0.69499  0.91886  1.0000
  Fe  Fe70      1.0  0.55551  0.84294  0.98837  1.0000
  H   H394      1.0  0.58288  0.49170  0.95635  1.0000
  Fe  Fe71      1.0  0.53468  0.91674  0.97314  1.0000
  C   C393      1.0  0.65155  0.56995  0.73441  1.0000
  S   S134      1.0  0.61849  0.87384  0.96305  1.0000
  S   S135      1.0  0.59648  0.95255  0.94614  1.0000
  S   S136      1.0  0.92184  0.70051  0.98967  1.0000
  C   C394      1.0  0.56688  0.68709  0.89632  1.0000
  H   H395      1.0  0.60782  0.84339  0.75904  1.0000
  H   H396      1.0  0.62208  0.72826  0.95981  1.0000
  C   C395      1.0  0.86705  0.65970  0.99728  1.0000
  H   H397      1.0  0.69250  0.91291  0.85715  1.0000
  C   C396      1.0  0.79459  0.64183  0.01547  1.0000
  S   S137      1.0  0.98443  0.54114  0.97399  1.0000
  C   C397      1.0  0.64525  0.84788  0.69208  1.0000
  H   H398      1.0  0.64926  0.51359  0.98709  1.0000
  S   S138      1.0  0.65392  0.70516  0.69907  1.0000
  Fe  Fe72      1.0  0.97390  0.68295  0.97729  1.0000
  H   H399      1.0  0.72146  0.56616  0.75488  1.0000
  H   H400      1.0  0.83725  0.62384  0.69946  1.0000
  H   H401      1.0  0.58938  0.78894  0.70870  1.0000
  S   S139      1.0  0.56875  0.90567  0.01103  1.0000
  H   H402      1.0  0.57615  0.57492  0.70717  1.0000
  C   C398      1.0  0.71026  0.55047  0.73386  1.0000
  S   S140      1.0  0.52749  0.62244  0.70337  1.0000
  C   C399      1.0  0.54379  0.55261  0.69861  1.0000
  H   H403      1.0  0.56626  0.66809  0.87746  1.0000
  C   C400      1.0  0.61826  0.77094  0.84347  1.0000
  C   C401      1.0  0.63153  0.78791  0.87165  1.0000
  C   C402      1.0  0.61932  0.81747  0.88363  1.0000
  C   C403      1.0  0.59396  0.83063  0.86740  1.0000
  C   C404      1.0  0.58045  0.81348  0.83928  1.0000
  C   C405      1.0  0.59256  0.78380  0.82733  1.0000
  H   H404      1.0  0.65166  0.77836  0.88421  1.0000
  H   H405      1.0  0.63035  0.83078  0.90516  1.0000
  H   H406      1.0  0.56079  0.82349  0.82659  1.0000
  H   H407      1.0  0.58181  0.77068  0.80572  1.0000
  H   H408      1.0  0.57353  0.76114  0.96038  1.0000
  H   H409      1.0  0.93792  0.62928  0.75369  1.0000
  C   C406      1.0  0.72082  0.51428  0.69249  1.0000
  C   C407      1.0  0.81020  0.62971  0.69497  1.0000
  H   H410      1.0  0.55507  0.49715  0.69432  1.0000
  C   C408      1.0  0.76073  0.65659  0.71084  1.0000
  C   C409      1.0  0.85258  0.61446  0.99459  1.0000
  H   H411      1.0  0.81351  0.65938  0.73672  1.0000
  C   C410      1.0  0.80917  0.58298  0.00251  1.0000
  N   N33       1.0  0.54094  0.73061  0.92098  1.0000
  C   C411      1.0  0.57092  0.73957  0.94270  1.0000
  C   C412      1.0  0.53916  0.70538  0.89770  1.0000
  C   C413      1.0  0.59878  0.72145  0.94224  1.0000
  H   H412      1.0  0.61863  0.68140  0.91790  1.0000
  N   N34       1.0  0.67521  0.55014  0.72033  1.0000
  C   C414      1.0  0.96654  0.65909  0.74426  1.0000
  H   H413      1.0  0.62678  0.82468  0.01048  1.0000
  H   H414      1.0  0.61647  0.54454  0.73792  1.0000
  S   S141      1.0  0.49203  0.94976  0.97346  1.0000
  H   H415      1.0  0.53486  0.81003  0.69269  1.0000
  H   H416      1.0  0.52192  0.52574  0.00451  1.0000
  H   H417      1.0  0.73110  0.86957  0.85081  1.0000
  H   H418      1.0  0.87489  0.60376  0.98662  1.0000
  S   S142      1.0  0.69416  0.98443  0.00415  1.0000
  N   N35       1.0  0.66110  0.87698  0.78836  1.0000
  C   C415      1.0  0.66522  0.89890  0.81386  1.0000
  C   C416      1.0  0.68260  0.85352  0.78458  1.0000
  C   C417      1.0  0.69093  0.89709  0.83655  1.0000
  C   C418      1.0  0.70838  0.85083  0.80688  1.0000
  C   C419      1.0  0.71241  0.87267  0.83303  1.0000
  C   C420      1.0  0.63315  0.87779  0.76489  1.0000
  H   H419      1.0  0.64724  0.91649  0.81732  1.0000
  H   H420      1.0  0.67913  0.83600  0.76441  1.0000
  S   S143      1.0  0.97133  0.63817  0.94140  1.0000
  H   H421      1.0  0.72403  0.83082  0.80421  1.0000
  H   H422      1.0  0.79824  0.54803  0.00065  1.0000
  H   H423      1.0  0.61556  0.89576  0.77112  1.0000
  H   H424      1.0  0.65354  0.89422  0.74541  1.0000
  C   C421      1.0  0.51366  0.56757  0.69481  1.0000
  H   H425      1.0  0.53026  0.78459  0.91309  1.0000
  C   C422      1.0  0.51248  0.75043  0.92203  1.0000
  S   S144      1.0  0.53116  0.77638  0.01017  1.0000
  C   C423      1.0  0.60050  0.82020  0.69789  1.0000
  H   H426      1.0  0.51696  0.70004  0.87975  1.0000
  C   C424      1.0  0.78025  0.59660  0.01332  1.0000
  C   C425      1.0  0.48887  0.49945  0.00927  1.0000
  H   H427      1.0  0.97346  0.65462  0.80177  1.0000
  C   C426      1.0  0.53185  0.50876  0.69126  1.0000
  C   C427      1.0  0.56959  0.83221  0.68876  1.0000
  H   H428      1.0  0.76217  0.53404  0.73049  1.0000
  H   H429      1.0  0.84871  0.70815  0.00938  1.0000
  C   C428      1.0  0.73346  0.53239  0.72020  1.0000
  H   H430      1.0  0.66629  0.58503  0.75574  1.0000
  N   N36       1.0  0.98457  0.69614  0.76486  1.0000
  H   H431      1.0  0.95489  0.66738  0.72395  1.0000
  C   C429      1.0  0.66235  0.53211  0.69326  1.0000
  C   C430      1.0  0.83780  0.67320  0.00748  1.0000
  C   C431      1.0  0.61566  0.79051  0.01586  1.0000
  H   H432      1.0  0.50261  0.75199  0.94480  1.0000
  C   C432      1.0  0.95896  0.50076  0.00177  1.0000
