data_image0
_chemical_formula_structural       FeS2FeSC2FeS2FeS2FeHFeSHSFeS2CSH3C6H3C5NC6H4C6H2CH2C4H2SCHCHC2HSH2SHC3HCH2CHC2HFeHCH2NC6H4CH2CH3S3CH2NHNH4CH2FeCHCH3NCHFeS2HCH2CH2CH3C4HCFeS2FeSCSHS2FeS2FeHFeSHS2HCHCHC4H3CHC8H4C6H3SH3NC2H4C2NC6H8CH2S2HFe2CFeCH2CHCH2C2NHNCHCHCSCH2C2HNH4SFeSCSFeS2FeS2FeSFeS3CSCHNFeSHSC6H4C6H4C6H4CH2CHC4H4CHC2SCHCSCHFeC3HCH6CNCHFeH2CFeNH3C3HCHCH2SH3CH2N2H2SCSFeHFeS2FeS2FeSFeS3NS3HFeSCSC6H4C6H4C6H5C2HCFeHFeCH3CH6FeSCHN2HCSH4C2H2CHC3H2NC2HCSH7C2HC3HC2HC2H2C4HC2HNFeHSHC2HSFeS2FeSFeCSHFeS2FeS2FeSFeS3FeS2FeS2FeSFeS3H2SHC3HC11H4CH2C6H4C6H4C6H3C7H4SHC3HSH4CHNHCNH2C2HC2HNC4H2SCHNC6H8SCSCHNH2CH2CHC2H5CHFeH4C3HCHCH3CFeHCSC3S2FeS2FeSFeCSCFeS2FeS2FeSFeS3FeS2FeSCFeSFeS3CSHSC4H2NH2C6H6C7H4C6H5C4H4C7H4FeCHC3H2CNC6H9C3HSHSC2HCSCHCH2CNCH3SH2CNCH2CH2CHC2H2C3NCHCH2SCHCH5CSNC3HFeCHCSH3NH2C2FeC2FeHSHSFeSFeSCFeSC3NHCHCH3CSCHC2H5C2FeSC2H3CH3CHNCH2C4HCH2CHSNCHCHC3H2CH6C2SCSFeSFeSC2HC2H2C3H5CSCH3CH3CHCHFeC2NCH2SC5H2CNSCHCH2CH3CH2CH4SHC2SFeSNH2SCHCHC7H4CH2NC4HSCFeC2H2C3HCSCH3C2SH2CFeHCH3CH2CH3CHCH2SFeSCHCHCHC2H2C5H5C2H3CHCH2C2N2CHCHCH2CSCH4CSCFeC2SHCSCHC3HCH6CHNCHCFeHCHCSFeS2FeS2FeHFeS3FeS2C2FeS2FeS2FeSFeS3FeS2FeHNFeSHS3FeSFeSCSHC8H4C6H4C6H4C3H4C2HCH2CHC6HC2HC6H4CSH4CSCNC4H4NC6H6C2HCH2CHC2HC2HNCH5CHC2H6CHC2HFeHCSCHNC2H4CHNH3CHNHC2SHC3H2SCHC3FeS2FeSHFeCFeS3FeCSH2FeS2FeS2FeSFeS3FeS2FeHSFeC2S3FeSHSCSC9H4C6H4C6H4CHCH3C3HCH3NC3HC2H4C6H5SC2HNCHSCH2C2SCH3CH4SH3SCH2C2H2C2H5NHCNC3H3C2NCHC4NHCHCH2NSH3CNC3SC2HCHC2H2CH2CFeCH3CH2CHCHNHC2HCHSFeSFeSFeS2FeS2FeSFeS3CHCS2FeSHSC6H4C6H4C6H4CH5C2HC2SNCHNC2HC4H2CHCH2NC6H4CH6C4HCH2CNH2SH4FeC2H3CH2CH2CHS2HCFeSFeS2FeS2FeSFeS3H3S2FeSCSC6H4C6H4C6H6C3H2C4SHFeH3CH5CHCNC2HC2H3CH2CHSC2FeHN2C5H5FeC2HCH2FeC2FeS2HS2FeHFeSHSFeS2FeSHSFeSH2CS2CHNFeC6H3C6H4C6H4C4HC2FeHCNC6H9C2H4CHSH2CSHFeC3HSHCSH2NH2CHC3HFeS2HCSCHFeSCSFeS2FeSHSFeSC2HSFeC2HFeC5NH3C6H4C6H4SHCH2C4NCH2CHCHFeCHCHNHCHSH2CSHCNC2H4CH2SHC2H2SHC6H2CH6CH2FeHCSH3Fe
_chemical_formula_sum              "Fe144 S288 C864 H864 N72"
_cell_length_a       65.0714
_cell_length_b       64.1564
_cell_length_c       39.9481
_cell_angle_alpha    90.8105
_cell_angle_beta     89.388
_cell_angle_gamma    117.469

_space_group_name_H-M_alt    "P 1"
_space_group_IT_number       1

loop_
  _space_group_symop_operation_xyz
  'x, y, z'

loop_
  _atom_site_type_symbol
  _atom_site_label
  _atom_site_symmetry_multiplicity
  _atom_site_fract_x
  _atom_site_fract_y
  _atom_site_fract_z
  _atom_site_occupancy
  Fe  Fe1       1.0  0.20619  0.32118  0.33017  1.0000
  S   S1        1.0  0.18577  0.28578  0.30656  1.0000
  S   S2        1.0  0.19497  0.33316  0.37800  1.0000
  Fe  Fe2       1.0  0.19521  0.30502  0.25746  1.0000
  S   S3        1.0  0.16420  0.29097  0.22204  1.0000
  C   C1        1.0  0.99574  0.47945  0.48369  1.0000
  C   C2        1.0  0.20448  0.28171  0.42728  1.0000
  Fe  Fe3       1.0  0.21968  0.28461  0.30208  1.0000
  S   S4        1.0  0.09954  0.33661  0.02543  1.0000
  S   S5        1.0  0.09902  0.28201  0.45777  1.0000
  Fe  Fe4       1.0  0.05460  0.27753  0.06495  1.0000
  S   S6        1.0  0.06456  0.31232  0.08974  1.0000
  S   S7        1.0  0.03070  0.24212  0.08710  1.0000
  Fe  Fe5       1.0  0.06187  0.32442  0.03796  1.0000
  H   H1        1.0  0.15419  0.28712  0.36938  1.0000
  Fe  Fe6       1.0  0.10108  0.32082  0.07517  1.0000
  S   S8        1.0  0.13217  0.33943  0.10945  1.0000
  H   H2        1.0  0.11721  0.26783  0.40130  1.0000
  S   S9        1.0  0.09141  0.28504  0.05393  1.0000
  Fe  Fe7       1.0  0.00684  0.40643  0.39707  1.0000
  S   S10       1.0  0.03842  0.40181  0.40927  1.0000
  S   S11       1.0  0.22399  0.25229  0.31327  1.0000
  C   C3        1.0  0.03448  0.46773  0.01942  1.0000
  S   S12       1.0  0.00774  0.44193  0.39555  1.0000
  H   H3        1.0  0.10597  0.27408  0.29125  1.0000
  H   H4        1.0  0.16320  0.36378  0.35884  1.0000
  H   H5        1.0  0.19027  0.28438  0.38024  1.0000
  C   C4        1.0  0.05605  0.36312  0.47135  1.0000
  C   C5        1.0  0.05642  0.37831  0.44597  1.0000
  C   C6        1.0  0.03734  0.38257  0.44110  1.0000
  C   C7        1.0  0.01785  0.37149  0.46163  1.0000
  C   C8        1.0  0.01761  0.35665  0.48728  1.0000
  C   C9        1.0  0.03812  0.35938  0.99976  1.0000
  H   H6        1.0  0.07157  0.38681  0.43009  1.0000
  H   H7        1.0  0.00305  0.37454  0.45811  1.0000
  H   H8        1.0  0.08388  0.24799  0.16434  1.0000
  C   C10       1.0  0.00446  0.23150  0.11016  1.0000
  C   C11       1.0  0.99486  0.20813  0.12043  1.0000
  C   C12       1.0  0.21079  0.26783  0.44705  1.0000
  C   C13       1.0  0.00180  0.33856  0.38919  1.0000
  C   C14       1.0  0.99352  0.24516  0.11976  1.0000
  N   N1        1.0  0.13392  0.30796  0.30337  1.0000
  C   C15       1.0  0.15613  0.30499  0.19049  1.0000
  C   C16       1.0  0.16762  0.32930  0.18586  1.0000
  C   C17       1.0  0.16006  0.33958  0.16099  1.0000
  C   C18       1.0  0.14103  0.32571  0.14047  1.0000
  C   C19       1.0  0.12962  0.30138  0.14503  1.0000
  C   C20       1.0  0.13708  0.29113  0.17002  1.0000
  H   H9        1.0  0.18234  0.34019  0.20133  1.0000
  H   H10       1.0  0.16905  0.35841  0.15755  1.0000
  H   H11       1.0  0.11531  0.29049  0.12900  1.0000
  H   H12       1.0  0.12828  0.27229  0.17322  1.0000
  C   C21       1.0  0.16869  0.31803  0.40089  1.0000
  C   C22       1.0  0.16465  0.32907  0.42906  1.0000
  C   C23       1.0  0.14362  0.31820  0.44711  1.0000
  C   C24       1.0  0.12634  0.29609  0.43716  1.0000
  C   C25       1.0  0.13048  0.28494  0.40917  1.0000
  C   C26       1.0  0.15152  0.29578  0.39116  1.0000
  H   H13       1.0  0.17779  0.34629  0.43680  1.0000
  H   H14       1.0  0.14067  0.32703  0.46851  1.0000
  C   C27       1.0  0.99433  0.44345  0.03386  1.0000
  H   H15       1.0  0.17755  0.20113  0.40058  1.0000
  H   H16       1.0  0.07084  0.35999  0.47509  1.0000
  C   C28       1.0  0.15399  0.32655  0.29282  1.0000
  C   C29       1.0  0.03669  0.35245  0.49228  1.0000
  C   C30       1.0  0.13401  0.32946  0.35321  1.0000
  C   C31       1.0  0.16465  0.34702  0.31238  1.0000
  H   H17       1.0  0.00307  0.19741  0.11319  1.0000
  H   H18       1.0  0.98967  0.27919  0.45293  1.0000
  S   S13       1.0  0.21427  0.34098  0.28146  1.0000
  C   C32       1.0  0.20737  0.24588  0.43493  1.0000
  H   H19       1.0  0.10847  0.29420  0.34228  1.0000
  C   C33       1.0  0.12394  0.30916  0.33322  1.0000
  H   H20       1.0  0.12649  0.33005  0.37740  1.0000
  C   C34       1.0  0.14607  0.29650  0.00489  1.0000
  C   C35       1.0  0.01519  0.46367  0.03934  1.0000
  H   H21       1.0  0.00087  0.26330  0.11206  1.0000
  S   S14       1.0  0.03707  0.33980  0.03108  1.0000
  H   H22       1.0  0.21284  0.23542  0.45008  1.0000
  H   H23       1.0  0.04704  0.46925  0.45871  1.0000
  S   S15       1.0  0.22737  0.30031  0.25070  1.0000
  H   H24       1.0  0.21858  0.27414  0.47139  1.0000
  C   C36       1.0  0.05225  0.45512  0.46156  1.0000
  C   C37       1.0  0.99812  0.29830  0.45882  1.0000
  C   C38       1.0  0.00789  0.32633  0.41258  1.0000
  H   H25       1.0  0.05937  0.22620  0.14108  1.0000
  C   C39       1.0  0.99297  0.42760  0.00867  1.0000
  H   H26       1.0  0.12896  0.28225  0.00991  1.0000
  H   H27       1.0  0.02583  0.32983  0.41405  1.0000
  C   C40       1.0  0.17659  0.33537  0.01690  1.0000
  H   H28       1.0  0.13480  0.27726  0.28499  1.0000
  C   C41       1.0  0.12385  0.28634  0.28313  1.0000
  C   C42       1.0  0.15484  0.31698  0.02439  1.0000
  H   H29       1.0  0.16206  0.32544  0.26937  1.0000
  Fe  Fe8       1.0  0.08775  0.30005  0.00510  1.0000
  H   H30       1.0  0.12321  0.29049  0.25633  1.0000
  C   C43       1.0  0.19157  0.25145  0.38452  1.0000
  H   H31       1.0  0.05048  0.48370  0.02349  1.0000
  H   H32       1.0  0.01615  0.47650  0.05812  1.0000
  N   N2        1.0  0.05475  0.25450  0.16246  1.0000
  C   C44       1.0  0.06137  0.27804  0.16088  1.0000
  C   C45       1.0  0.03473  0.23974  0.17869  1.0000
  C   C46       1.0  0.04730  0.28721  0.17452  1.0000
  C   C47       1.0  0.02029  0.24833  0.19273  1.0000
  C   C48       1.0  0.02656  0.27219  0.19033  1.0000
  C   C49       1.0  0.06949  0.24522  0.14722  1.0000
  H   H33       1.0  0.07738  0.28979  0.14835  1.0000
  H   H34       1.0  0.02935  0.22105  0.17975  1.0000
  H   H35       1.0  0.05230  0.30578  0.17224  1.0000
  H   H36       1.0  0.00393  0.23639  0.20431  1.0000
  C   C50       1.0  0.15461  0.34839  0.34281  1.0000
  H   H37       1.0  0.07674  0.25403  0.12300  1.0000
  H   H38       1.0  0.18094  0.36146  0.30445  1.0000
  C   C51       1.0  0.98850  0.46548  0.27656  1.0000
  H   H39       1.0  0.05170  0.44704  0.43658  1.0000
  H   H40       1.0  0.01518  0.27893  0.20029  1.0000
  H   H41       1.0  0.01488  0.35143  0.37299  1.0000
  S   S16       1.0  0.99991  0.44905  0.29783  1.0000
  S   S17       1.0  0.04991  0.28887  0.01412  1.0000
  S   S18       1.0  0.99047  0.39526  0.34653  1.0000
  C   C52       1.0  0.19484  0.27350  0.39585  1.0000
  H   H42       1.0  0.01439  0.47565  0.23757  1.0000
  H   H43       1.0  0.99286  0.30110  0.48441  1.0000
  N   N3        1.0  0.99164  0.31091  0.43410  1.0000
  H   H44       1.0  0.00391  0.47873  0.46028  1.0000
  N   N4        1.0  0.19810  0.23809  0.40386  1.0000
  H   H45       1.0  0.18447  0.24542  0.35972  1.0000
  H   H46       1.0  0.07042  0.46353  0.47059  1.0000
  H   H47       1.0  0.19507  0.21439  0.36385  1.0000
  H   H48       1.0  0.20857  0.21114  0.40059  1.0000
  C   C53       1.0  0.19453  0.21499  0.39171  1.0000
  H   H49       1.0  0.20716  0.29890  0.43603  1.0000
  H   H50       1.0  0.14480  0.31871  0.04519  1.0000
  Fe  Fe9       1.0  0.98815  0.42923  0.34696  1.0000
  C   C54       1.0  0.99931  0.47693  0.24678  1.0000
  H   H51       1.0  0.18348  0.35137  0.03194  1.0000
  C   C55       1.0  0.99074  0.48997  0.22874  1.0000
  H   H52       1.0  0.01718  0.30466  0.45968  1.0000
  H   H53       1.0  0.00749  0.44200  0.47283  1.0000
  H   H54       1.0  0.00249  0.35150  0.00793  1.0000
  N   N5        1.0  0.03681  0.43710  0.48486  1.0000
  C   C56       1.0  0.01412  0.43245  0.48763  1.0000
  H   H55       1.0  0.06256  0.42718  0.49919  1.0000
  Fe  Fe10      1.0  0.00535  0.40944  0.90035  1.0000
  S   S19       1.0  0.99867  0.44762  0.79519  1.0000
  S   S20       1.0  0.00526  0.44433  0.89516  1.0000
  H   H56       1.0  0.00200  0.37749  0.96305  1.0000
  C   C57       1.0  0.00133  0.22741  0.61370  1.0000
  H   H57       1.0  0.20913  0.32820  0.68788  1.0000
  H   H58       1.0  0.19109  0.29193  0.65369  1.0000
  C   C58       1.0  0.01613  0.34055  0.90342  1.0000
  H   H59       1.0  0.99573  0.38884  0.54502  1.0000
  H   H60       1.0  0.00969  0.47058  0.73177  1.0000
  C   C59       1.0  0.05317  0.45611  0.97399  1.0000
  H   H61       1.0  0.99749  0.25899  0.61051  1.0000
  H   H62       1.0  0.05787  0.44164  0.97728  1.0000
  H   H63       1.0  0.99544  0.31665  0.94189  1.0000
  C   C60       1.0  0.20048  0.32820  0.66484  1.0000
  C   C61       1.0  0.19048  0.30767  0.64538  1.0000
  C   C62       1.0  0.20928  0.36906  0.67648  1.0000
  C   C63       1.0  0.98818  0.46535  0.77549  1.0000
  H   H64       1.0  0.22798  0.37926  0.67014  1.0000
  C   C64       1.0  0.02978  0.31940  0.93887  1.0000
  Fe  Fe11      1.0  0.19955  0.32566  0.82283  1.0000
  S   S21       1.0  0.18488  0.28676  0.81284  1.0000
  S   S22       1.0  0.19042  0.34118  0.86908  1.0000
  Fe  Fe12      1.0  0.18170  0.29654  0.75951  1.0000
  S   S23       1.0  0.15212  0.27663  0.72295  1.0000
  C   C65       1.0  0.01804  0.36161  0.99345  1.0000
  S   S24       1.0  0.19452  0.33485  0.77022  1.0000
  H   H65       1.0  0.07381  0.37117  0.98602  1.0000
  S   S25       1.0  0.09736  0.32966  0.52489  1.0000
  S   S26       1.0  0.09768  0.28929  0.95535  1.0000
  Fe  Fe13      1.0  0.05097  0.27083  0.56388  1.0000
  S   S27       1.0  0.05970  0.30605  0.58601  1.0000
  S   S28       1.0  0.02788  0.23703  0.59123  1.0000
  Fe  Fe14      1.0  0.05910  0.31729  0.53310  1.0000
  H   H66       1.0  0.14990  0.29514  0.86238  1.0000
  Fe  Fe15      1.0  0.09669  0.31439  0.57600  1.0000
  S   S29       1.0  0.12312  0.33184  0.61746  1.0000
  H   H67       1.0  0.11412  0.27547  0.89674  1.0000
  S   S30       1.0  0.08821  0.27852  0.55638  1.0000
  S   S31       1.0  0.03801  0.40817  0.91696  1.0000
  H   H68       1.0  0.21496  0.23233  0.91065  1.0000
  C   C66       1.0  0.22874  0.25463  0.86753  1.0000
  H   H69       1.0  0.07740  0.33504  0.95784  1.0000
  C   C67       1.0  0.05817  0.37253  0.98102  1.0000
  H   H70       1.0  0.15209  0.27886  0.96278  1.0000
  C   C68       1.0  0.01776  0.37645  0.96813  1.0000
  C   C69       1.0  0.03777  0.38962  0.94938  1.0000
  C   C70       1.0  0.05803  0.38779  0.95613  1.0000
  C   C71       1.0  0.99692  0.47460  0.74374  1.0000
  H   H71       1.0  0.21299  0.25586  0.86291  1.0000
  H   H72       1.0  0.07361  0.39803  0.94180  1.0000
  H   H73       1.0  0.20787  0.36452  0.70347  1.0000
  C   C72       1.0  0.03790  0.35141  0.88819  1.0000
  H   H74       1.0  0.00276  0.34526  0.89625  1.0000
  C   C73       1.0  0.06944  0.32466  0.93483  1.0000
  C   C74       1.0  0.18772  0.34773  0.62655  1.0000
  C   C75       1.0  0.14366  0.29199  0.69413  1.0000
  C   C76       1.0  0.14902  0.31554  0.69939  1.0000
  C   C77       1.0  0.14205  0.32728  0.67614  1.0000
  C   C78       1.0  0.12957  0.31563  0.64739  1.0000
  C   C79       1.0  0.12377  0.29192  0.64240  1.0000
  C   C80       1.0  0.13081  0.28017  0.66566  1.0000
  H   H75       1.0  0.15848  0.32475  0.72144  1.0000
  H   H76       1.0  0.14655  0.34559  0.68028  1.0000
  H   H77       1.0  0.11430  0.28274  0.62030  1.0000
  H   H78       1.0  0.12643  0.26190  0.66146  1.0000
  C   C81       1.0  0.16382  0.32718  0.89140  1.0000
  C   C82       1.0  0.15989  0.33882  0.91896  1.0000
  C   C83       1.0  0.13959  0.32768  0.93858  1.0000
  C   C84       1.0  0.12303  0.30472  0.93079  1.0000
  C   C85       1.0  0.12684  0.29322  0.90301  1.0000
  C   C86       1.0  0.14711  0.30434  0.88345  1.0000
  H   H79       1.0  0.17272  0.35650  0.92531  1.0000
  H   H80       1.0  0.13690  0.33677  0.95986  1.0000
  H   H81       1.0  0.04150  0.36467  0.86929  1.0000
  S   S32       1.0  0.21679  0.30069  0.74565  1.0000
  H   H82       1.0  0.16793  0.32725  0.58425  1.0000
  H   H83       1.0  0.20523  0.32775  0.93124  1.0000
  H   H84       1.0  0.00256  0.34837  0.50338  1.0000
  N   N6        1.0  0.05093  0.32975  0.92330  1.0000
  C   C87       1.0  0.99905  0.41519  0.50944  1.0000
  C   C88       1.0  0.05524  0.34582  0.89855  1.0000
  H   H85       1.0  0.06255  0.30566  0.94045  1.0000
  H   H86       1.0  0.20566  0.30320  0.95253  1.0000
  H   H87       1.0  0.07226  0.35473  0.88710  1.0000
  H   H88       1.0  0.02674  0.30762  0.95970  1.0000
  C   C89       1.0  0.03037  0.40708  0.52494  1.0000
  C   C90       1.0  0.01201  0.32447  0.92898  1.0000
  N   N7        1.0  0.07016  0.26397  0.67770  1.0000
  C   C91       1.0  0.08372  0.27522  0.70470  1.0000
  C   C92       1.0  0.06347  0.24070  0.67163  1.0000
  C   C93       1.0  0.09141  0.26320  0.72608  1.0000
  C   C94       1.0  0.07096  0.22819  0.69240  1.0000
  C   C95       1.0  0.08519  0.23962  0.71961  1.0000
  C   C96       1.0  0.06294  0.27678  0.65452  1.0000
  H   H89       1.0  0.08940  0.29379  0.70914  1.0000
  H   H90       1.0  0.05258  0.23185  0.65022  1.0000
  H   H91       1.0  0.10300  0.27239  0.74664  1.0000
  H   H92       1.0  0.06601  0.20986  0.68709  1.0000
  H   H93       1.0  0.09176  0.23042  0.73539  1.0000
  H   H94       1.0  0.06783  0.27434  0.62859  1.0000
  H   H95       1.0  0.04381  0.26989  0.65556  1.0000
  H   H96       1.0  0.07145  0.29599  0.65980  1.0000
  C   C97       1.0  0.04490  0.42434  0.50261  1.0000
  H   H97       1.0  0.18599  0.36308  0.61934  1.0000
  H   H98       1.0  0.08322  0.32883  0.91557  1.0000
  S   S33       1.0  0.03535  0.33394  0.52524  1.0000
  S   S34       1.0  0.99061  0.39653  0.84921  1.0000
  H   H99       1.0  0.20615  0.34742  0.98411  1.0000
  Fe  Fe16      1.0  0.22182  0.29533  0.79978  1.0000
  Fe  Fe17      1.0  0.08652  0.29279  0.50580  1.0000
  C   C98       1.0  0.19433  0.31050  0.94319  1.0000
  Fe  Fe18      1.0  0.98733  0.42990  0.84585  1.0000
  C   C99       1.0  0.17891  0.30735  0.61602  1.0000
  H   H100      1.0  0.99988  0.19366  0.62155  1.0000
  H   H101      1.0  0.00021  0.47974  0.95627  1.0000
  C   C100      1.0  0.98945  0.48923  0.72747  1.0000
  H   H102      1.0  0.04902  0.45647  0.94712  1.0000
  C   C101      1.0  0.18929  0.33301  0.98989  1.0000
  H   H103      1.0  0.18309  0.29882  0.92299  1.0000
  H   H104      1.0  0.17042  0.29132  0.60124  1.0000
  C   C102      1.0  0.99005  0.24127  0.61995  1.0000
  C   C103      1.0  0.17758  0.32751  0.60640  1.0000
  N   N8        1.0  0.19871  0.34776  0.65560  1.0000
  H   H105      1.0  0.03677  0.39676  0.53866  1.0000
  N   N9        1.0  0.18048  0.31292  0.97075  1.0000
  C   C104      1.0  0.99145  0.20455  0.62618  1.0000
  H   H106      1.0  0.21945  0.19320  0.86851  1.0000
  C   C105      1.0  0.99127  0.48169  0.97812  1.0000
  H   H107      1.0  0.20059  0.38026  0.67318  1.0000
  C   C106      1.0  0.00729  0.40249  0.52830  1.0000
  S   S35       1.0  0.04813  0.28122  0.51129  1.0000
  C   C107      1.0  0.01263  0.43212  0.98941  1.0000
  H   H108      1.0  0.01150  0.41985  0.96973  1.0000
  H   H109      1.0  0.21476  0.17992  0.82714  1.0000
  C   C108      1.0  0.15925  0.29469  0.97813  1.0000
  C   C109      1.0  0.22567  0.19589  0.84207  1.0000
  H   H110      1.0  0.06853  0.47299  0.98021  1.0000
  N   N10       1.0  0.03301  0.45197  0.99489  1.0000
  H   H111      1.0  0.98422  0.40162  0.75672  1.0000
  H   H112      1.0  0.98106  0.41165  0.51136  1.0000
  H   H113      1.0  0.22343  0.21097  0.83273  1.0000
  H   H114      1.0  0.06373  0.76260  0.18775  1.0000
  S   S36       1.0  0.01070  0.54570  0.15156  1.0000
  Fe  Fe19      1.0  0.01093  0.58100  0.15281  1.0000
  S   S37       1.0  0.04339  0.61334  0.17033  1.0000
  C   C110      1.0  0.02638  0.60258  0.26903  1.0000
  S   S38       1.0  0.00619  0.52867  0.05502  1.0000
  Fe  Fe20      1.0  0.04896  0.75923  0.32264  1.0000
  S   S39       1.0  0.05996  0.73369  0.34313  1.0000
  S   S40       1.0  0.01405  0.75764  0.33463  1.0000
  Fe  Fe21      1.0  0.08938  0.77839  0.27114  1.0000
  S   S41       1.0  0.10205  0.75290  0.28727  1.0000
  S   S42       1.0  0.10428  0.80639  0.23074  1.0000
  Fe  Fe22      1.0  0.06428  0.72569  0.28924  1.0000
  S   S43       1.0  0.03979  0.68800  0.27366  1.0000
  Fe  Fe23      1.0  0.09631  0.76339  0.33966  1.0000
  S   S44       1.0  0.12442  0.77158  0.37867  1.0000
  S   S45       1.0  0.05234  0.75064  0.26893  1.0000
  S   S46       1.0  0.08497  0.78980  0.32321  1.0000
  C   C111      1.0  0.06423  0.72148  0.19617  1.0000
  S   S47       1.0  0.21752  0.85131  0.03950  1.0000
  C   C112      1.0  0.99373  0.68031  0.35140  1.0000
  H   H115      1.0  0.04773  0.72196  0.20220  1.0000
  N   N11       1.0  0.07895  0.74051  0.17367  1.0000
  Fe  Fe24      1.0  0.20160  0.85906  0.08574  1.0000
  S   S48       1.0  0.18510  0.82919  0.12350  1.0000
  H   H116      1.0  0.99242  0.66243  0.39741  1.0000
  S   S49       1.0  0.18397  0.87635  0.05702  1.0000
  C   C113      1.0  0.12823  0.81364  0.20328  1.0000
  C   C114      1.0  0.13440  0.83254  0.18124  1.0000
  C   C115      1.0  0.15213  0.83792  0.15721  1.0000
  C   C116      1.0  0.16388  0.82439  0.15492  1.0000
  C   C117      1.0  0.15792  0.80567  0.17731  1.0000
  C   C118      1.0  0.14023  0.80033  0.20144  1.0000
  H   H117      1.0  0.12520  0.84292  0.18243  1.0000
  H   H118      1.0  0.15651  0.85235  0.14020  1.0000
  H   H119      1.0  0.16689  0.79508  0.17569  1.0000
  H   H120      1.0  0.13559  0.78564  0.21802  1.0000
  C   C119      1.0  0.13411  0.79546  0.40768  1.0000
  C   C120      1.0  0.15332  0.80022  0.42806  1.0000
  C   C121      1.0  0.16243  0.81989  0.44991  1.0000
  C   C122      1.0  0.15243  0.83507  0.45151  1.0000
  C   C123      1.0  0.13301  0.83009  0.43147  1.0000
  C   C124      1.0  0.12383  0.81038  0.40978  1.0000
  H   H121      1.0  0.16135  0.78875  0.42675  1.0000
  H   H122      1.0  0.17738  0.82349  0.46513  1.0000
  H   H123      1.0  0.12507  0.84164  0.43261  1.0000
  H   H124      1.0  0.10899  0.80692  0.39443  1.0000
  C   C125      1.0  0.04218  0.63523  0.19662  1.0000
  C   C126      1.0  0.02109  0.63337  0.20830  1.0000
  C   C127      1.0  0.02078  0.64997  0.23141  1.0000
  C   C128      1.0  0.04148  0.66880  0.24272  1.0000
  C   C129      1.0  0.06261  0.67099  0.23055  1.0000
  C   C130      1.0  0.06293  0.65422  0.20762  1.0000
  H   H125      1.0  0.00501  0.61887  0.20004  1.0000
  H   H126      1.0  0.00434  0.64809  0.24074  1.0000
  H   H127      1.0  0.07869  0.68518  0.23948  1.0000
  H   H128      1.0  0.07933  0.65570  0.19882  1.0000
  C   C131      1.0  0.14495  0.82683  0.30166  1.0000
  H   H129      1.0  0.05962  0.61068  0.24771  1.0000
  H   H130      1.0  0.01171  0.68474  0.34639  1.0000
  C   C132      1.0  0.13596  0.84288  0.30294  1.0000
  H   H131      1.0  0.15353  0.79121  0.31575  1.0000
  C   C133      1.0  0.14030  0.85758  0.33090  1.0000
  C   C134      1.0  0.04209  0.59698  0.25193  1.0000
  C   C135      1.0  0.99043  0.71928  0.41974  1.0000
  C   C136      1.0  0.99615  0.74047  0.36769  1.0000
  H   H132      1.0  0.15712  0.86746  0.37903  1.0000
  H   H133      1.0  0.02312  0.73672  0.39337  1.0000
  H   H134      1.0  0.14089  0.90514  0.06206  1.0000
  H   H135      1.0  0.08881  0.79487  0.15048  1.0000
  C   C137      1.0  0.07640  0.76049  0.17212  1.0000
  H   H136      1.0  0.07348  0.72292  0.21998  1.0000
  C   C138      1.0  0.05184  0.56964  0.22060  1.0000
  C   C139      1.0  0.10781  0.77697  0.13216  1.0000
  S   S50       1.0  0.99644  0.57691  0.10082  1.0000
  C   C140      1.0  0.99658  0.56288  0.25989  1.0000
  H   H137      1.0  0.09844  0.72305  0.15753  1.0000
  C   C141      1.0  0.17010  0.92525  0.02990  1.0000
  S   S51       1.0  0.16431  0.86127  0.47614  1.0000
  C   C142      1.0  0.14960  0.90541  0.03863  1.0000
  H   H138      1.0  0.99913  0.49854  0.20575  1.0000
  Fe  Fe25      1.0  0.21727  0.90979  0.06519  1.0000
  C   C143      1.0  0.01279  0.55787  0.24312  1.0000
  C   C144      1.0  0.99365  0.70095  0.30032  1.0000
  C   C145      1.0  0.16263  0.84016  0.35471  1.0000
  H   H139      1.0  0.11950  0.79149  0.11669  1.0000
  C   C146      1.0  0.00496  0.73235  0.39335  1.0000
  H   H140      1.0  0.18243  0.81508  0.30914  1.0000
  H   H141      1.0  0.17274  0.83903  0.37540  1.0000
  H   H142      1.0  0.00718  0.54042  0.23268  1.0000
  H   H143      1.0  0.13307  0.86979  0.33249  1.0000
  H   H144      1.0  0.12542  0.84361  0.28253  1.0000
  H   H145      1.0  0.17157  0.80470  0.35083  1.0000
  C   C147      1.0  0.16692  0.80837  0.32563  1.0000
  N   N12       1.0  0.15774  0.82536  0.32762  1.0000
  C   C148      1.0  0.15384  0.85635  0.35690  1.0000
  H   H146      1.0  0.05946  0.70402  0.18447  1.0000
  Fe  Fe26      1.0  0.99311  0.54030  0.10140  1.0000
  H   H147      1.0  0.14133  0.81535  0.27994  1.0000
  H   H148      1.0  0.17708  0.94024  0.04694  1.0000
  C   C149      1.0  0.09053  0.77883  0.15098  1.0000
  Fe  Fe27      1.0  0.20160  0.87042  0.01163  1.0000
  N   N13       1.0  0.03523  0.57480  0.23945  1.0000
  H   H149      1.0  0.12521  0.87007  0.02415  1.0000
  H   H150      1.0  0.01237  0.71224  0.30521  1.0000
  H   H151      1.0  0.12449  0.75552  0.12064  1.0000
  C   C150      1.0  0.99104  0.50403  0.02830  1.0000
  C   C151      1.0  0.14083  0.88577  0.01742  1.0000
  C   C152      1.0  0.09600  0.73862  0.15556  1.0000
  H   H152      1.0  0.06883  0.57727  0.23350  1.0000
  C   C153      1.0  0.11068  0.75681  0.13455  1.0000
  H   H153      1.0  0.02281  0.51378  0.49760  1.0000
  C   C154      1.0  0.98288  0.66755  0.38012  1.0000
  H   H154      1.0  0.03181  0.62036  0.27819  1.0000
  H   H155      1.0  0.99757  0.71360  0.43990  1.0000
  S   S52       1.0  0.22111  0.94661  0.07192  1.0000
  H   H156      1.0  0.04572  0.55041  0.21784  1.0000
  H   H157      1.0  0.05434  0.57730  0.19516  1.0000
  H   H158      1.0  0.20634  0.96165  0.00805  1.0000
  C   C155      1.0  0.00344  0.58542  0.27280  1.0000
  H   H159      1.0  0.98660  0.71308  0.29313  1.0000
  H   H160      1.0  0.99191  0.68881  0.27921  1.0000
  N   N14       1.0  0.98199  0.68759  0.33021  1.0000
  N   N15       1.0  0.18149  0.92555  0.00074  1.0000
  H   H161      1.0  0.99092  0.58968  0.28517  1.0000
  H   H162      1.0  0.03889  0.57250  0.71468  1.0000
  S   S53       1.0  0.00958  0.55316  0.65145  1.0000
  C   C156      1.0  0.03144  0.56172  0.73655  1.0000
  S   S54       1.0  0.01382  0.62045  0.65062  1.0000
  Fe  Fe28      1.0  0.21024  0.91182  0.57335  1.0000
  H   H163      1.0  0.03016  0.70450  0.89998  1.0000
  Fe  Fe29      1.0  0.04837  0.74067  0.80954  1.0000
  S   S55       1.0  0.06684  0.72301  0.83402  1.0000
  S   S56       1.0  0.00930  0.72578  0.81585  1.0000
  Fe  Fe30      1.0  0.09166  0.77208  0.76740  1.0000
  S   S57       1.0  0.11284  0.75622  0.78962  1.0000
  S   S58       1.0  0.10251  0.79873  0.72497  1.0000
  Fe  Fe31      1.0  0.08064  0.72152  0.78277  1.0000
  S   S59       1.0  0.08140  0.68828  0.76324  1.0000
  Fe  Fe32      1.0  0.09699  0.75943  0.83891  1.0000
  S   S60       1.0  0.11354  0.76731  0.89088  1.0000
  S   S61       1.0  0.06053  0.73721  0.75779  1.0000
  S   S62       1.0  0.07739  0.77729  0.81713  1.0000
  N   N16       1.0  0.01328  0.56237  0.75328  1.0000
  S   S63       1.0  0.21311  0.85656  0.53563  1.0000
  S   S64       1.0  0.18797  0.86341  0.95805  1.0000
  S   S65       1.0  0.98349  0.56707  0.59225  1.0000
  H   H164      1.0  0.02271  0.77853  0.83397  1.0000
  Fe  Fe33      1.0  0.20219  0.86191  0.58794  1.0000
  S   S66       1.0  0.19259  0.83591  0.63127  1.0000
  C   C157      1.0  0.10264  0.73489  0.69552  1.0000
  S   S67       1.0  0.17868  0.87639  0.57090  1.0000
  C   C158      1.0  0.12812  0.80949  0.70010  1.0000
  C   C159      1.0  0.12994  0.82323  0.67200  1.0000
  C   C160      1.0  0.14952  0.83150  0.65080  1.0000
  C   C161      1.0  0.16777  0.82644  0.65774  1.0000
  C   C162      1.0  0.16599  0.81273  0.68589  1.0000
  C   C163      1.0  0.14627  0.80423  0.70691  1.0000
  H   H165      1.0  0.11592  0.82724  0.66635  1.0000
  H   H166      1.0  0.15033  0.84158  0.62890  1.0000
  H   H167      1.0  0.17993  0.80859  0.69145  1.0000
  H   H168      1.0  0.14511  0.79364  0.72838  1.0000
  C   C164      1.0  0.13411  0.79434  0.90901  1.0000
  C   C165      1.0  0.14090  0.79460  0.94243  1.0000
  C   C166      1.0  0.15725  0.81555  0.95791  1.0000
  C   C167      1.0  0.16709  0.83652  0.94002  1.0000
  C   C168      1.0  0.16029  0.83632  0.90662  1.0000
  C   C169      1.0  0.14387  0.81538  0.89119  1.0000
  H   H169      1.0  0.13348  0.77842  0.95641  1.0000
  H   H170      1.0  0.21801  0.94219  0.99615  1.0000
  H   H171      1.0  0.16781  0.85243  0.89250  1.0000
  H   H172      1.0  0.13886  0.81546  0.86547  1.0000
  C   C170      1.0  0.03144  0.63805  0.68390  1.0000
  C   C171      1.0  0.03200  0.65985  0.69076  1.0000
  C   C172      1.0  0.04668  0.67506  0.71562  1.0000
  C   C173      1.0  0.06137  0.66885  0.73349  1.0000
  C   C174      1.0  0.06081  0.64701  0.72668  1.0000
  C   C175      1.0  0.04583  0.63160  0.70215  1.0000
  H   H173      1.0  0.02106  0.66508  0.67666  1.0000
  H   H174      1.0  0.04685  0.69174  0.72053  1.0000
  H   H175      1.0  0.07229  0.64217  0.74012  1.0000
  H   H176      1.0  0.04610  0.61522  0.69645  1.0000
  H   H177      1.0  0.20322  0.95101  0.96557  1.0000
  C   C176      1.0  0.00193  0.69233  0.93581  1.0000
  C   C177      1.0  0.14836  0.77406  0.61737  1.0000
  H   H178      1.0  0.16671  0.78213  0.62574  1.0000
  C   C178      1.0  0.99077  0.73577  0.91004  1.0000
  Fe  Fe34      1.0  0.19062  0.87269  0.51885  1.0000
  H   H179      1.0  0.00126  0.63624  0.58723  1.0000
  Fe  Fe35      1.0  0.99189  0.53737  0.60211  1.0000
  C   C179      1.0  0.99430  0.72217  0.85419  1.0000
  H   H180      1.0  0.00735  0.67461  0.85707  1.0000
  H   H181      1.0  0.03710  0.52057  0.78292  1.0000
  H   H182      1.0  0.02248  0.74985  0.88086  1.0000
  C   C180      1.0  0.99961  0.67478  0.88125  1.0000
  H   H183      1.0  0.10926  0.77513  0.63678  1.0000
  H   H184      1.0  0.12641  0.72083  0.70371  1.0000
  H   H185      1.0  0.99842  0.65847  0.53871  1.0000
  H   H186      1.0  0.05426  0.54573  0.73304  1.0000
  H   H187      1.0  0.15642  0.89835  0.67140  1.0000
  H   H188      1.0  0.14521  0.78880  0.60897  1.0000
  Fe  Fe36      1.0  0.99788  0.58079  0.64344  1.0000
  S   S68       1.0  0.20964  0.94438  0.59614  1.0000
  C   C181      1.0  0.20778  0.93112  0.68449  1.0000
  H   H189      1.0  0.16229  0.81538  0.98358  1.0000
  N   N17       1.0  0.13271  0.76091  0.64472  1.0000
  N   N18       1.0  0.98669  0.76832  0.83277  1.0000
  H   H190      1.0  0.00765  0.58219  0.71497  1.0000
  C   C182      1.0  0.11302  0.76302  0.65099  1.0000
  S   S69       1.0  0.00903  0.52712  0.55934  1.0000
  H   H191      1.0  0.18253  0.90620  0.95742  1.0000
  H   H192      1.0  0.01184  0.70580  0.95412  1.0000
  H   H193      1.0  0.08262  0.75251  0.68231  1.0000
  H   H194      1.0  0.99801  0.78936  0.87713  1.0000
  C   C183      1.0  0.00441  0.73693  0.88180  1.0000
  C   C184      1.0  0.01241  0.69164  0.90532  1.0000
  H   H195      1.0  0.20410  0.94593  0.68689  1.0000
  H   H196      1.0  0.14607  0.76223  0.59564  1.0000
  C   C185      1.0  0.13757  0.74592  0.66318  1.0000
  H   H197      1.0  0.01143  0.59453  0.75663  1.0000
  C   C186      1.0  0.17313  0.90629  0.97999  1.0000
  C   C187      1.0  0.12262  0.73269  0.68886  1.0000
  C   C188      1.0  0.17104  0.90906  0.65444  1.0000
  H   H198      1.0  0.16769  0.90068  0.62918  1.0000
  H   H199      1.0  0.18581  0.87682  0.65128  1.0000
  N   N19       1.0  0.19280  0.91113  0.66786  1.0000
  C   C189      1.0  0.04034  0.54675  0.74696  1.0000
  C   C190      1.0  0.99562  0.50105  0.53476  1.0000
  H   H200      1.0  0.99843  0.74787  0.93077  1.0000
  C   C191      1.0  0.03087  0.53279  0.77507  1.0000
  S   S70       1.0  0.21981  0.90973  0.51979  1.0000
  H   H201      1.0  0.14644  0.87076  0.97164  1.0000
  H   H202      1.0  0.15313  0.74420  0.65816  1.0000
  H   H203      1.0  0.21694  0.98681  0.63091  1.0000
  H   H204      1.0  0.17186  0.92660  0.65103  1.0000
  H   H205      1.0  0.09102  0.72480  0.71544  1.0000
  H   H206      1.0  0.01042  0.77103  0.79324  1.0000
  H   H207      1.0  0.98956  0.54930  0.79418  1.0000
  C   C192      1.0  0.19762  0.89260  0.66450  1.0000
  C   C193      1.0  0.09780  0.75019  0.67663  1.0000
  H   H208      1.0  0.00500  0.52291  0.81397  1.0000
  C   C194      1.0  0.00421  0.54909  0.78127  1.0000
  C   C195      1.0  0.00976  0.77974  0.81723  1.0000
  C   C196      1.0  0.01286  0.53413  0.79259  1.0000
  H   H209      1.0  0.01488  0.79848  0.81221  1.0000
  C   C197      1.0  0.00387  0.57787  0.74190  1.0000
  C   C198      1.0  0.00637  0.49936  0.50481  1.0000
  H   H210      1.0  0.99652  0.49651  0.70325  1.0000
  C   C199      1.0  0.15266  0.88616  0.98791  1.0000
  C   C200      1.0  0.98355  0.77558  0.86391  1.0000
  H   H211      1.0  0.22482  0.83724  0.96710  1.0000
  H   H212      1.0  0.01976  0.51458  0.99386  1.0000
  C   C201      1.0  0.20329  0.94613  0.99211  1.0000
  C   C202      1.0  0.98467  0.63511  0.58026  1.0000
  C   C203      1.0  0.00230  0.50140  0.99950  1.0000
  C   C204      1.0  0.98291  0.64760  0.55288  1.0000
  H   H213      1.0  0.98466  0.56908  0.74449  1.0000
  C   C205      1.0  0.21809  0.89391  0.67731  1.0000
  C   C206      1.0  0.22854  0.93315  0.69739  1.0000
  H   H214      1.0  0.22190  0.87921  0.67391  1.0000
  N   N20       1.0  0.97929  0.67672  0.94204  1.0000
  Fe  Fe37      1.0  0.24597  0.33495  0.27790  1.0000
  H   H215      1.0  0.26176  0.21706  0.38152  1.0000
  S   S71       1.0  0.28441  0.36044  0.27044  1.0000
  H   H216      1.0  0.28786  0.09542  0.37041  1.0000
  C   C207      1.0  0.39954  0.43914  0.22888  1.0000
  C   C208      1.0  0.30661  0.10300  0.37057  1.0000
  H   H217      1.0  0.26230  0.27974  0.42169  1.0000
  S   S72       1.0  0.28999  0.17515  0.04864  1.0000
  Fe  Fe38      1.0  0.29624  0.22690  0.45217  1.0000
  S   S73       1.0  0.33093  0.24095  0.42690  1.0000
  S   S74       1.0  0.27279  0.24387  0.44435  1.0000
  Fe  Fe39      1.0  0.32710  0.20441  0.43213  1.0000
  S   S75       1.0  0.34115  0.18871  0.39171  1.0000
  Fe  Fe40      1.0  0.34550  0.24799  0.47890  1.0000
  C   C209      1.0  0.33302  0.29907  0.43365  1.0000
  S   S76       1.0  0.29097  0.18952  0.45398  1.0000
  H   H218      1.0  0.31424  0.27220  0.39664  1.0000
  Fe  Fe41      1.0  0.30312  0.09506  0.24310  1.0000
  S   S77       1.0  0.33911  0.11441  0.22238  1.0000
  S   S78       1.0  0.28735  0.11115  0.28001  1.0000
  Fe  Fe42      1.0  0.29311  0.05000  0.20285  1.0000
  S   S79       1.0  0.32844  0.06671  0.17915  1.0000
  S   S80       1.0  0.27075  0.01034  0.19910  1.0000
  Fe  Fe43      1.0  0.34135  0.08080  0.23064  1.0000
  S   S81       1.0  0.37372  0.08091  0.25180  1.0000
  Fe  Fe44      1.0  0.32265  0.09853  0.17285  1.0000
  S   S82       1.0  0.33572  0.12080  0.12588  1.0000
  S   S83       1.0  0.30647  0.06264  0.25498  1.0000
  S   S84       1.0  0.28618  0.08077  0.19302  1.0000
  Fe  Fe45      1.0  0.41339  0.38318  0.11738  1.0000
  S   S85       1.0  0.39711  0.40091  0.08753  1.0000
  S   S86       1.0  0.40537  0.34505  0.10963  1.0000
  Fe  Fe46      1.0  0.43408  0.42397  0.16861  1.0000
  S   S87       1.0  0.41858  0.44416  0.14228  1.0000
  S   S88       1.0  0.45248  0.43201  0.21918  1.0000
  Fe  Fe47      1.0  0.38638  0.40939  0.13747  1.0000
  S   S89       1.0  0.34894  0.40254  0.14349  1.0000
  Fe  Fe48      1.0  0.43097  0.43387  0.09465  1.0000
  S   S90       1.0  0.44557  0.46150  0.05331  1.0000
  S   S91       1.0  0.40091  0.39006  0.16690  1.0000
  S   S92       1.0  0.44823  0.41539  0.12140  1.0000
  H   H219      1.0  0.46007  0.47987  0.20553  1.0000
  H   H220      1.0  0.47503  0.44305  0.28280  1.0000
  S   S93       1.0  0.45632  0.00660  0.46131  1.0000
  H   H221      1.0  0.34142  0.45166  0.23159  1.0000
  C   C210      1.0  0.38027  0.44090  0.21689  1.0000
  C   C211      1.0  0.34029  0.43474  0.22254  1.0000
  C   C212      1.0  0.37732  0.41906  0.27744  1.0000
  H   H222      1.0  0.47411  0.99277  0.40382  1.0000
  C   C213      1.0  0.24722  0.23400  0.34988  1.0000
  C   C214      1.0  0.46599  0.45885  0.24196  1.0000
  C   C215      1.0  0.31986  0.29026  0.40457  1.0000
  C   C216      1.0  0.33369  0.33603  0.42606  1.0000
  C   C217      1.0  0.47160  0.47133  0.02947  1.0000
  C   C218      1.0  0.37267  0.05881  0.27903  1.0000
  C   C219      1.0  0.39338  0.05851  0.28804  1.0000
  C   C220      1.0  0.39325  0.04193  0.31100  1.0000
  C   C221      1.0  0.37241  0.02582  0.32564  1.0000
  C   C222      1.0  0.35172  0.02605  0.31645  1.0000
  C   C223      1.0  0.35178  0.04221  0.29294  1.0000
  H   H223      1.0  0.40962  0.07129  0.27741  1.0000
  H   H224      1.0  0.40932  0.04207  0.31804  1.0000
  H   H225      1.0  0.33552  0.01365  0.32762  1.0000
  H   H226      1.0  0.33569  0.04201  0.28599  1.0000
  C   C224      1.0  0.25845  0.26713  0.40143  1.0000
  H   H227      1.0  0.46313  0.01293  0.07415  1.0000
  H   H228      1.0  0.46852  0.00130  0.29888  1.0000
  C   C225      1.0  0.30182  0.15804  0.06706  1.0000
  C   C226      1.0  0.32337  0.16005  0.05738  1.0000
  C   C227      1.0  0.33313  0.14788  0.07500  1.0000
  C   C228      1.0  0.32149  0.13361  0.10241  1.0000
  C   C229      1.0  0.29965  0.13108  0.11149  1.0000
  C   C230      1.0  0.28988  0.14322  0.09385  1.0000
  H   H229      1.0  0.33276  0.17141  0.03690  1.0000
  H   H230      1.0  0.35003  0.14993  0.06780  1.0000
  H   H231      1.0  0.29045  0.12008  0.13238  1.0000
  H   H232      1.0  0.27316  0.14150  0.10142  1.0000
  C   C231      1.0  0.32581  0.16934  0.35837  1.0000
  C   C232      1.0  0.30160  0.15784  0.35719  1.0000
  C   C233      1.0  0.29011  0.14060  0.33234  1.0000
  C   C234      1.0  0.30265  0.13461  0.30855  1.0000
  C   C235      1.0  0.32686  0.14663  0.30905  1.0000
  C   C236      1.0  0.33834  0.16394  0.33380  1.0000
  H   H233      1.0  0.29174  0.16180  0.37591  1.0000
  H   H234      1.0  0.27138  0.13146  0.33205  1.0000
  H   H235      1.0  0.33675  0.14229  0.29086  1.0000
  H   H236      1.0  0.35708  0.17279  0.33448  1.0000
  C   C237      1.0  0.36880  0.30224  0.01583  1.0000
  C   C238      1.0  0.37094  0.29100  0.04435  1.0000
  C   C239      1.0  0.38246  0.30437  0.07280  1.0000
  C   C240      1.0  0.39154  0.32896  0.07315  1.0000
  C   C241      1.0  0.38930  0.34015  0.04469  1.0000
  C   C242      1.0  0.37823  0.32686  0.01604  1.0000
  H   H237      1.0  0.36386  0.27208  0.04437  1.0000
  H   H238      1.0  0.38429  0.29563  0.09468  1.0000
  H   H239      1.0  0.39640  0.35906  0.04455  1.0000
  C   C243      1.0  0.32039  0.32770  0.39696  1.0000
  C   C244      1.0  0.33001  0.38640  0.17647  1.0000
  C   C245      1.0  0.30673  0.38194  0.17555  1.0000
  C   C246      1.0  0.29188  0.37203  0.20321  1.0000
  C   C247      1.0  0.30028  0.36676  0.23229  1.0000
  C   C248      1.0  0.32330  0.37033  0.23265  1.0000
  C   C249      1.0  0.33803  0.37983  0.20476  1.0000
  H   H240      1.0  0.30034  0.38695  0.15380  1.0000
  H   H241      1.0  0.27433  0.36970  0.20272  1.0000
  H   H242      1.0  0.32998  0.36640  0.25506  1.0000
  H   H243      1.0  0.35588  0.38316  0.20589  1.0000
  S   S94       1.0  0.23953  0.31871  0.32909  1.0000
  H   H244      1.0  0.23999  0.99635  0.08397  1.0000
  C   C250      1.0  0.31302  0.99777  0.16281  1.0000
  C   C251      1.0  0.26320  0.24807  0.40513  1.0000
  C   C252      1.0  0.25823  0.23187  0.37885  1.0000
  H   H245      1.0  0.32360  0.42008  0.23108  1.0000
  S   S95       1.0  0.37542  0.28405  0.49035  1.0000
  H   H246      1.0  0.30299  0.29782  0.36384  1.0000
  H   H247      1.0  0.37332  0.13290  0.36585  1.0000
  H   H248      1.0  0.25977  0.02185  0.13302  1.0000
  H   H249      1.0  0.37047  0.10200  0.32681  1.0000
  C   C253      1.0  0.34718  0.33915  0.13867  1.0000
  H   H250      1.0  0.35613  0.11121  0.29627  1.0000
  N   N21       1.0  0.33978  0.32170  0.44399  1.0000
  H   H251      1.0  0.38151  0.44918  0.19293  1.0000
  C   C254      1.0  0.31805  0.09630  0.34616  1.0000
  N   N22       1.0  0.36004  0.43200  0.23488  1.0000
  H   H252      1.0  0.33984  0.43426  0.19467  1.0000
  H   H253      1.0  0.24234  0.22077  0.33029  1.0000
  C   C255      1.0  0.24807  0.26961  0.37215  1.0000
  C   C256      1.0  0.35847  0.42144  0.26501  1.0000
  H   H254      1.0  0.41283  0.42631  0.26829  1.0000
  C   C257      1.0  0.46938  0.00555  0.09345  1.0000
  C   C258      1.0  0.32592  0.31722  0.03861  1.0000
  H   H255      1.0  0.33905  0.35399  0.43421  1.0000
  N   N23       1.0  0.33977  0.33175  0.10412  1.0000
  C   C259      1.0  0.33350  0.30905  0.09461  1.0000
  C   C260      1.0  0.33915  0.34736  0.08162  1.0000
  C   C261      1.0  0.32628  0.30139  0.06185  1.0000
  C   C262      1.0  0.33236  0.34037  0.04849  1.0000
  H   H256      1.0  0.33246  0.35290  0.03050  1.0000
  H   H257      1.0  0.34414  0.36539  0.08913  1.0000
  S   S96       1.0  0.37125  0.00620  0.35731  1.0000
  C   C263      1.0  0.35340  0.10006  0.31857  1.0000
  H   H258      1.0  0.37590  0.41027  0.30097  1.0000
  N   N24       1.0  0.31663  0.16590  0.18391  1.0000
  C   C264      1.0  0.30501  0.17613  0.16825  1.0000
  C   C265      1.0  0.33768  0.16911  0.17203  1.0000
  C   C266      1.0  0.31473  0.19050  0.14044  1.0000
  C   C267      1.0  0.34795  0.18345  0.14440  1.0000
  C   C268      1.0  0.33636  0.19419  0.12854  1.0000
  C   C269      1.0  0.30572  0.15000  0.21199  1.0000
  H   H259      1.0  0.28786  0.17275  0.17668  1.0000
  H   H260      1.0  0.34632  0.15993  0.18314  1.0000
  H   H261      1.0  0.30511  0.19782  0.12715  1.0000
  H   H262      1.0  0.36423  0.18522  0.13436  1.0000
  H   H263      1.0  0.34361  0.20446  0.10613  1.0000
  H   H264      1.0  0.29390  0.15493  0.22648  1.0000
  H   H265      1.0  0.29560  0.13171  0.20253  1.0000
  H   H266      1.0  0.31887  0.15048  0.22993  1.0000
  S   S97       1.0  0.34522  0.21281  0.48230  1.0000
  C   C270      1.0  0.39798  0.42801  0.25917  1.0000
  S   S98       1.0  0.43459  0.00244  0.36634  1.0000
  C   C271      1.0  0.47143  0.99422  0.48362  1.0000
  H   H267      1.0  0.34236  0.41425  0.27917  1.0000
  N   N25       1.0  0.34173  0.10659  0.34518  1.0000
  H   H268      1.0  0.33296  0.32877  0.15640  1.0000
  H   H269      1.0  0.32193  0.28355  0.05403  1.0000
  C   C272      1.0  0.31350  0.30466  0.38618  1.0000
  H   H270      1.0  0.29800  0.00677  0.10515  1.0000
  H   H271      1.0  0.35208  0.35800  0.14298  1.0000
  C   C273      1.0  0.35388  0.33043  0.47426  1.0000
  H   H272      1.0  0.33776  0.28773  0.44806  1.0000
  C   C274      1.0  0.35457  0.12405  0.36751  1.0000
  C   C275      1.0  0.34368  0.13126  0.39218  1.0000
  H   H273      1.0  0.31538  0.33897  0.38285  1.0000
  H   H274      1.0  0.30784  0.08337  0.32734  1.0000
  H   H275      1.0  0.34302  0.08139  0.31090  1.0000
  H   H276      1.0  0.33154  0.00245  0.16649  1.0000
  H   H277      1.0  0.31170  0.01433  0.15994  1.0000
  C   C276      1.0  0.46767  0.47983  0.22946  1.0000
  H   H278      1.0  0.33460  0.29689  0.11220  1.0000
  Fe  Fe49      1.0  0.39619  0.99162  0.36984  1.0000
  H   H279      1.0  0.31096  0.12682  0.41171  1.0000
  H   H280      1.0  0.35382  0.14578  0.40901  1.0000
  H   H281      1.0  0.36261  0.33666  0.14435  1.0000
  H   H282      1.0  0.41562  0.44626  0.21479  1.0000
  C   C277      1.0  0.31955  0.12060  0.39369  1.0000
  C   C278      1.0  0.24165  0.25260  0.34674  1.0000
  C   C279      1.0  0.25417  0.00314  0.13389  1.0000
  H   H283      1.0  0.24384  0.28395  0.37013  1.0000
  C   C280      1.0  0.47370  0.99145  0.28156  1.0000
  H   H284      1.0  0.37072  0.33017  0.47045  1.0000
  C   C281      1.0  0.25750  0.99326  0.16302  1.0000
  H   H285      1.0  0.32131  0.31164  0.01277  1.0000
  H   H286      1.0  0.34481  0.31902  0.49586  1.0000
  H   H287      1.0  0.35754  0.34867  0.48100  1.0000
  C   C282      1.0  0.47622  0.45920  0.27295  1.0000
  Fe  Fe50      1.0  0.30200  0.19736  0.00129  1.0000
  H   H288      1.0  0.28836  0.18771  0.87903  1.0000
  C   C283      1.0  0.30400  0.03829  0.59663  1.0000
  S   S99       1.0  0.25241  0.36068  0.71601  1.0000
  C   C284      1.0  0.45947  0.48104  0.91107  1.0000
  C   C285      1.0  0.26495  0.03075  0.58420  1.0000
  C   C286      1.0  0.45752  0.46562  0.74931  1.0000
  S   S100      1.0  0.33804  0.21584  0.97930  1.0000
  S   S101      1.0  0.29569  0.17879  0.55166  1.0000
  Fe  Fe51      1.0  0.28190  0.21719  0.94796  1.0000
  S   S102      1.0  0.31620  0.23634  0.92247  1.0000
  S   S103      1.0  0.24938  0.21890  0.93095  1.0000
  Fe  Fe52      1.0  0.31984  0.20351  0.92949  1.0000
  S   S104      1.0  0.33526  0.19186  0.88582  1.0000
  Fe  Fe53      1.0  0.33102  0.24701  0.97425  1.0000
  C   C287      1.0  0.46234  0.48211  0.77560  1.0000
  S   S105      1.0  0.28425  0.18327  0.95176  1.0000
  C   C288      1.0  0.33158  0.11431  0.86964  1.0000
  Fe  Fe54      1.0  0.30647  0.09356  0.74801  1.0000
  S   S106      1.0  0.34211  0.11850  0.72952  1.0000
  S   S107      1.0  0.28738  0.10211  0.78975  1.0000
  Fe  Fe55      1.0  0.30348  0.05236  0.70447  1.0000
  S   S108      1.0  0.33876  0.07478  0.68324  1.0000
  S   S109      1.0  0.29072  0.01369  0.69159  1.0000
  Fe  Fe56      1.0  0.34959  0.08783  0.73545  1.0000
  S   S110      1.0  0.38346  0.09008  0.75334  1.0000
  Fe  Fe57      1.0  0.32790  0.10318  0.67869  1.0000
  S   S111      1.0  0.33961  0.12287  0.62948  1.0000
  S   S112      1.0  0.31506  0.06392  0.75736  1.0000
  S   S113      1.0  0.29148  0.07976  0.69646  1.0000
  Fe  Fe58      1.0  0.40075  0.38526  0.62898  1.0000
  S   S114      1.0  0.38322  0.40717  0.61562  1.0000
  S   S115      1.0  0.38115  0.34560  0.61950  1.0000
  Fe  Fe59      1.0  0.43729  0.42553  0.67256  1.0000
  S   S116      1.0  0.42169  0.44928  0.66175  1.0000
  C   C289      1.0  0.47373  0.45790  0.74025  1.0000
  Fe  Fe60      1.0  0.38718  0.41764  0.67008  1.0000
  S   S117      1.0  0.36240  0.41844  0.71019  1.0000
  Fe  Fe61      1.0  0.41977  0.43654  0.60835  1.0000
  S   S118      1.0  0.43035  0.46364  0.56626  1.0000
  S   S119      1.0  0.40315  0.39463  0.68384  1.0000
  S   S120      1.0  0.43708  0.41396  0.61868  1.0000
  C   C290      1.0  0.36664  0.00942  0.76776  1.0000
  S   S121      1.0  0.38277  0.02342  0.86970  1.0000
  H   H289      1.0  0.38825  0.29519  0.63676  1.0000
  S   S122      1.0  0.44012  0.00931  0.87373  1.0000
  C   C291      1.0  0.40377  0.27903  0.56326  1.0000
  C   C292      1.0  0.34959  0.99693  0.79157  1.0000
  C   C293      1.0  0.34486  0.14436  0.91413  1.0000
  C   C294      1.0  0.45420  0.47313  0.53773  1.0000
  H   H290      1.0  0.32650  0.14084  0.91658  1.0000
  H   H291      1.0  0.37850  0.02333  0.69608  1.0000
  N   N26       1.0  0.36246  0.02159  0.74313  1.0000
  H   H292      1.0  0.24527  0.06076  0.61331  1.0000
  H   H293      1.0  0.46841  0.00841  0.79379  1.0000
  C   C295      1.0  0.38362  0.07217  0.78638  1.0000
  C   C296      1.0  0.36463  0.06146  0.80792  1.0000
  C   C297      1.0  0.36506  0.04711  0.83381  1.0000
  C   C298      1.0  0.38411  0.04270  0.83777  1.0000
  C   C299      1.0  0.40315  0.05335  0.81621  1.0000
  C   C300      1.0  0.40302  0.06835  0.79088  1.0000
  H   H294      1.0  0.34968  0.06434  0.80491  1.0000
  H   H295      1.0  0.35036  0.03901  0.85057  1.0000
  H   H296      1.0  0.41801  0.05026  0.81937  1.0000
  H   H297      1.0  0.41789  0.07684  0.77453  1.0000
  H   H298      1.0  0.38320  0.24678  0.53686  1.0000
  H   H299      1.0  0.38349  0.00997  0.76989  1.0000
  C   C301      1.0  0.47067  0.46487  0.53910  1.0000
  C   C302      1.0  0.30808  0.16321  0.57279  1.0000
  C   C303      1.0  0.32755  0.16179  0.56027  1.0000
  C   C304      1.0  0.33703  0.14949  0.57809  1.0000
  C   C305      1.0  0.32720  0.13851  0.60855  1.0000
  C   C306      1.0  0.30766  0.13982  0.62102  1.0000
  C   C307      1.0  0.29818  0.15214  0.60319  1.0000
  H   H300      1.0  0.33524  0.17006  0.53680  1.0000
  H   H301      1.0  0.35209  0.14846  0.56819  1.0000
  H   H302      1.0  0.29995  0.13148  0.64444  1.0000
  H   H303      1.0  0.28314  0.15319  0.61308  1.0000
  C   C308      1.0  0.32094  0.16735  0.85858  1.0000
  C   C309      1.0  0.29870  0.14937  0.86536  1.0000
  C   C310      1.0  0.28847  0.12974  0.84366  1.0000
  C   C311      1.0  0.30040  0.12778  0.81520  1.0000
  C   C312      1.0  0.32258  0.14582  0.80839  1.0000
  C   C313      1.0  0.33277  0.16546  0.83000  1.0000
  H   H304      1.0  0.28953  0.15032  0.88759  1.0000
  H   H305      1.0  0.27134  0.11582  0.84921  1.0000
  H   H306      1.0  0.33196  0.14459  0.78659  1.0000
  H   H307      1.0  0.35001  0.17922  0.82460  1.0000
  H   H308      1.0  0.41673  0.28595  0.54356  1.0000
  C   C314      1.0  0.35791  0.29387  0.54875  1.0000
  C   C315      1.0  0.35946  0.30792  0.57697  1.0000
  C   C316      1.0  0.37846  0.33029  0.58122  1.0000
  C   C317      1.0  0.39569  0.33874  0.55651  1.0000
  H   H309      1.0  0.35073  0.21422  0.56072  1.0000
  H   H310      1.0  0.34338  0.27657  0.54619  1.0000
  H   H311      1.0  0.34609  0.30122  0.59601  1.0000
  H   H312      1.0  0.41050  0.35585  0.55961  1.0000
  C   C318      1.0  0.35669  0.11553  0.82396  1.0000
  C   C319      1.0  0.33191  0.40120  0.71132  1.0000
  C   C320      1.0  0.31900  0.39122  0.68238  1.0000
  C   C321      1.0  0.29466  0.37861  0.68428  1.0000
  C   C322      1.0  0.28307  0.37530  0.71519  1.0000
  C   C323      1.0  0.29602  0.38461  0.74427  1.0000
  C   C324      1.0  0.32030  0.39781  0.74222  1.0000
  H   H313      1.0  0.32774  0.39385  0.65843  1.0000
  H   H314      1.0  0.28477  0.37163  0.66161  1.0000
  H   H315      1.0  0.28729  0.38245  0.76814  1.0000
  H   H316      1.0  0.33015  0.40562  0.76469  1.0000
  Fe  Fe62      1.0  0.40296  0.00292  0.87752  1.0000
  C   C325      1.0  0.47356  0.99787  0.77778  1.0000
  H   H317      1.0  0.39807  0.04079  0.72904  1.0000
  C   C326      1.0  0.24998  0.23884  0.90019  1.0000
  C   C327      1.0  0.38048  0.03462  0.71834  1.0000
  C   C328      1.0  0.28153  0.19513  0.86076  1.0000
  H   H318      1.0  0.32742  0.07433  0.60949  1.0000
  H   H319      1.0  0.24770  0.18045  0.88309  1.0000
  C   C329      1.0  0.33523  0.10450  0.84006  1.0000
  N   N27       1.0  0.30365  0.33593  0.74170  1.0000
  C   C330      1.0  0.31492  0.34454  0.77134  1.0000
  C   C331      1.0  0.31584  0.34005  0.71229  1.0000
  C   C332      1.0  0.33897  0.35853  0.77187  1.0000
  C   C333      1.0  0.33992  0.35379  0.71194  1.0000
  C   C334      1.0  0.35147  0.36328  0.74192  1.0000
  C   C335      1.0  0.27843  0.32151  0.74172  1.0000
  H   H320      1.0  0.30524  0.34101  0.79467  1.0000
  H   H321      1.0  0.30693  0.33330  0.68877  1.0000
  H   H322      1.0  0.34782  0.36604  0.79521  1.0000
  H   H323      1.0  0.34950  0.35774  0.68846  1.0000
  H   H324      1.0  0.37000  0.37477  0.74181  1.0000
  H   H325      1.0  0.27385  0.30282  0.74622  1.0000
  H   H326      1.0  0.27026  0.32748  0.76169  1.0000
  H   H327      1.0  0.27077  0.32301  0.71769  1.0000
  H   H328      1.0  0.46536  0.43567  0.94207  1.0000
  C   C336      1.0  0.28701  0.21903  0.81224  1.0000
  C   C337      1.0  0.39432  0.32453  0.52851  1.0000
  C   C338      1.0  0.24757  0.26529  0.84560  1.0000
  H   H329      1.0  0.44966  0.48795  0.78235  1.0000
  S   S123      1.0  0.46207  0.00885  0.96386  1.0000
  H   H330      1.0  0.33261  0.22804  0.56918  1.0000
  S   S124      1.0  0.46903  0.43818  0.70612  1.0000
  C   C339      1.0  0.34729  0.22557  0.57882  1.0000
  C   C340      1.0  0.25852  0.19102  0.86275  1.0000
  H   H331      1.0  0.28248  0.27153  0.83498  1.0000
  C   C341      1.0  0.43449  0.46506  0.95915  1.0000
  S   S125      1.0  0.23680  0.33374  0.81260  1.0000
  C   C342      1.0  0.29299  0.06941  0.59904  1.0000
  H   H332      1.0  0.30708  0.00850  0.76214  1.0000
  C   C343      1.0  0.29587  0.20924  0.83544  1.0000
  H   H333      1.0  0.35504  0.25550  0.62957  1.0000
  H   H334      1.0  0.26098  0.08067  0.57997  1.0000
  C   C344      1.0  0.32807  0.99666  0.78975  1.0000
  N   N28       1.0  0.36768  0.24842  0.58357  1.0000
  C   C345      1.0  0.38769  0.28418  0.61553  1.0000
  H   H335      1.0  0.34187  0.21574  0.60268  1.0000
  H   H336      1.0  0.42241  0.46569  0.97760  1.0000
  H   H337      1.0  0.34936  0.13655  0.93571  1.0000
  S   S126      1.0  0.29627  0.22949  0.99945  1.0000
  H   H338      1.0  0.35542  0.16381  0.91523  1.0000
  H   H339      1.0  0.31471  0.10582  0.88166  1.0000
  C   C346      1.0  0.26383  0.21447  0.81481  1.0000
  N   N29       1.0  0.34877  0.13470  0.88260  1.0000
  C   C347      1.0  0.30990  0.06189  0.60229  1.0000
  H   H340      1.0  0.43625  0.43582  0.98233  1.0000
  H   H341      1.0  0.31385  0.21265  0.83413  1.0000
  C   C348      1.0  0.38466  0.25685  0.55957  1.0000
  H   H342      1.0  0.32129  0.08877  0.82928  1.0000
  H   H343      1.0  0.35974  0.10825  0.80088  1.0000
  C   C349      1.0  0.24977  0.99982  0.65640  1.0000
  H   H344      1.0  0.38358  0.16164  0.87746  1.0000
  C   C350      1.0  0.37419  0.13615  0.83755  1.0000
  C   C351      1.0  0.36993  0.14553  0.86712  1.0000
  H   H345      1.0  0.39091  0.14480  0.82511  1.0000
  H   H346      1.0  0.47170  0.47345  0.60815  1.0000
  C   C352      1.0  0.47416  0.99475  0.98896  1.0000
  C   C353      1.0  0.36890  0.26184  0.61115  1.0000
  C   C354      1.0  0.40521  0.29278  0.59138  1.0000
  N   N30       1.0  0.46690  0.46435  0.91384  1.0000
  C   C355      1.0  0.37557  0.30194  0.52468  1.0000
  H   H347      1.0  0.31681  0.03211  0.59990  1.0000
  C   C356      1.0  0.26914  0.25042  0.87915  1.0000
  H   H348      1.0  0.28468  0.24869  0.88314  1.0000
  H   H349      1.0  0.29807  0.23021  0.79262  1.0000
  S   S127      1.0  0.35385  0.28648  0.97976  1.0000
  C   C357      1.0  0.26782  0.26333  0.85177  1.0000
  H   H350      1.0  0.24854  0.01453  0.66809  1.0000
  C   C358      1.0  0.47696  0.48459  0.63028  1.0000
  H   H351      1.0  0.44123  0.45886  0.73610  1.0000
  H   H352      1.0  0.37672  0.33566  0.99401  1.0000
  H   H353      1.0  0.46862  0.45156  0.55701  1.0000
  H   H354      1.0  0.29762  0.08769  0.60405  1.0000
  H   H355      1.0  0.37944  0.05068  0.71043  1.0000
  C   C359      1.0  0.34123  0.02098  0.74072  1.0000
  S   S128      1.0  0.31120  0.23558  0.50391  1.0000
  N   N31       1.0  0.27090  0.05394  0.58988  1.0000
  C   C360      1.0  0.45875  0.44826  0.93903  1.0000
  C   C361      1.0  0.28144  0.02263  0.58723  1.0000
  C   C362      1.0  0.25325  0.06205  0.58819  1.0000
  H   H356      1.0  0.41939  0.31044  0.59383  1.0000
  Fe  Fe63      1.0  0.30940  0.19974  0.50375  1.0000
  C   C363      1.0  0.45699  0.48999  0.51349  1.0000
  H   H357      1.0  0.23948  0.05143  0.56992  1.0000
  C   C364      1.0  0.44223  0.44818  0.96178  1.0000
  S   S129      1.0  0.24574  0.27885  0.80822  1.0000
  H   H358      1.0  0.25711  0.22239  0.79700  1.0000
  H   H359      1.0  0.27657  0.00416  0.58317  1.0000
  H   H360      1.0  0.40809  0.33093  0.51003  1.0000
  N   N32       1.0  0.25000  0.20082  0.84008  1.0000
  H   H361      1.0  0.24729  0.01828  0.57778  1.0000
  H   H362      1.0  0.33781  0.03039  0.72098  1.0000
  C   C365      1.0  0.26883  0.99600  0.66305  1.0000
  C   C366      1.0  0.44315  0.48164  0.93367  1.0000
  Fe  Fe64      1.0  0.23009  0.33865  0.75898  1.0000
  C   C367      1.0  0.22990  0.24129  0.89454  1.0000
  C   C368      1.0  0.32375  0.00858  0.76401  1.0000
  Fe  Fe65      1.0  0.43396  0.99179  0.92419  1.0000
  H   H363      1.0  0.47897  0.44606  0.88081  1.0000
  S   S130      1.0  0.38532  0.95489  0.35076  1.0000
  H   H364      1.0  0.40989  0.96459  0.48159  1.0000
  S   S131      1.0  0.42173  0.95147  0.40292  1.0000
  Fe  Fe66      1.0  0.42338  0.96486  0.35051  1.0000
  S   S132      1.0  0.43928  0.95091  0.31034  1.0000
  Fe  Fe67      1.0  0.38480  0.94540  0.40471  1.0000
  S   S133      1.0  0.35503  0.91247  0.42607  1.0000
  C   C369      1.0  0.31334  0.91316  0.37251  1.0000
  Fe  Fe68      1.0  0.24786  0.88689  0.04828  1.0000
  S   S134      1.0  0.39389  0.98139  0.42399  1.0000
  C   C370      1.0  0.33448  0.91338  0.45482  1.0000
  C   C371      1.0  0.33851  0.93407  0.47189  1.0000
  C   C372      1.0  0.25000  0.96892  0.16387  1.0000
  N   N33       1.0  0.31088  0.93045  0.39433  1.0000
  H   H365      1.0  0.45829  0.96201  0.45502  1.0000
  C   C373      1.0  0.31353  0.89293  0.46046  1.0000
  H   H366      1.0  0.35447  0.94993  0.46783  1.0000
  C   C374      1.0  0.29209  0.92342  0.41519  1.0000
  H   H367      1.0  0.27493  0.93385  0.45362  1.0000
  H   H368      1.0  0.30283  0.91012  0.34957  1.0000
  H   H369      1.0  0.33176  0.91920  0.36517  1.0000
  C   C375      1.0  0.30586  0.96326  0.43521  1.0000
  S   S135      1.0  0.28603  0.89626  0.04624  1.0000
  C   C376      1.0  0.29656  0.89328  0.48247  1.0000
  H   H370      1.0  0.33455  0.91146  0.03789  1.0000
  C   C377      1.0  0.23927  0.95452  0.13592  1.0000
  C   C378      1.0  0.32188  0.93425  0.49453  1.0000
  H   H371      1.0  0.45931  0.93541  0.25763  1.0000
  H   H372      1.0  0.29193  0.92710  0.10800  1.0000
  H   H373      1.0  0.44648  0.95068  0.06492  1.0000
  H   H374      1.0  0.30788  0.89631  0.38583  1.0000
  H   H375      1.0  0.30300  0.98923  0.18575  1.0000
  C   C379      1.0  0.29331  0.94462  0.10730  1.0000
  C   C380      1.0  0.46966  0.97251  0.11912  1.0000
  Fe  Fe69      1.0  0.43094  0.98830  0.41888  1.0000
  S   S136      1.0  0.23325  0.90543  0.01735  1.0000
  C   C381      1.0  0.46165  0.96690  0.28109  1.0000
  C   C382      1.0  0.46858  0.95441  0.25826  1.0000
  H   H376      1.0  0.39710  0.93371  0.47287  1.0000
  H   H377      1.0  0.27947  0.90504  0.41659  1.0000
  H   H378      1.0  0.44393  0.97505  0.04816  1.0000
  C   C383      1.0  0.32805  0.91374  0.01414  1.0000
  H   H379      1.0  0.27949  0.94013  0.05747  1.0000
  H   H380      1.0  0.31032  0.87677  0.44757  1.0000
  H   H381      1.0  0.25241  0.96114  0.18638  1.0000
  C   C384      1.0  0.32690  0.95362  0.39286  1.0000
  H   H382      1.0  0.30718  0.95412  0.15693  1.0000
  N   N34       1.0  0.30367  0.98204  0.13375  1.0000
  C   C385      1.0  0.28934  0.93967  0.43606  1.0000
  H   H383      1.0  0.47120  0.95638  0.37743  1.0000
  H   H384      1.0  0.46381  0.95372  0.12005  1.0000
  C   C386      1.0  0.24293  0.98864  0.10616  1.0000
  C   C387      1.0  0.47612  0.95992  0.00821  1.0000
  C   C388      1.0  0.29697  0.98941  0.10583  1.0000
  C   C389      1.0  0.32471  0.97035  0.41336  1.0000
  H   H385      1.0  0.28218  0.98009  0.05632  1.0000
  C   C390      1.0  0.28808  0.97444  0.07805  1.0000
  H   H386      1.0  0.33769  0.98865  0.41230  1.0000
  H   H387      1.0  0.34162  0.95927  0.37601  1.0000
  C   C391      1.0  0.28633  0.95195  0.07882  1.0000
  H   H388      1.0  0.42634  0.95969  0.08373  1.0000
  S   S137      1.0  0.23365  0.89305  0.09692  1.0000
  N   N35       1.0  0.46166  0.98180  0.09493  1.0000
  C   C392      1.0  0.46913  0.97195  0.47565  1.0000
  H   H389      1.0  0.30417  0.97595  0.45173  1.0000
  C   C393      1.0  0.30194  0.95997  0.13476  1.0000
  H   H390      1.0  0.47762  0.51129  0.47238  1.0000
  C   C394      1.0  0.23543  0.96428  0.10708  1.0000
  C   C395      1.0  0.30470  0.90869  0.01141  1.0000
  C   C396      1.0  0.44366  0.96603  0.07185  1.0000
  H   H391      1.0  0.28043  0.87752  0.48643  1.0000
  H   H392      1.0  0.47853  0.94494  0.48870  1.0000
  C   C397      1.0  0.47601  0.49860  0.49107  1.0000
  H   H393      1.0  0.47858  0.93938  0.32526  1.0000
  H   H394      1.0  0.46979  0.94109  0.00704  1.0000
  H   H395      1.0  0.23347  0.93581  0.13705  1.0000
  H   H396      1.0  0.46869  0.50114  0.01051  1.0000
  H   H397      1.0  0.25890  0.84782  0.00428  1.0000
  H   H398      1.0  0.29940  0.85469  0.00711  1.0000
  C   C398      1.0  0.40157  0.94699  0.49338  1.0000
  C   C399      1.0  0.47848  0.49135  0.00943  1.0000
  S   S138      1.0  0.38871  0.96733  0.85304  1.0000
  C   C400      1.0  0.30072  0.91400  0.49967  1.0000
  S   S139      1.0  0.42068  0.95512  0.90347  1.0000
  Fe  Fe70      1.0  0.42536  0.97242  0.85307  1.0000
  S   S140      1.0  0.44042  0.95861  0.81129  1.0000
  Fe  Fe71      1.0  0.38530  0.95363  0.90538  1.0000
  S   S141      1.0  0.35000  0.92296  0.91766  1.0000
  C   C401      1.0  0.41915  0.92477  0.51996  1.0000
  C   C402      1.0  0.47041  0.94521  0.87888  1.0000
  H   H399      1.0  0.46074  0.94107  0.76166  1.0000
  C   C403      1.0  0.33433  0.92223  0.95462  1.0000
  C   C404      1.0  0.34280  0.92053  0.98596  1.0000
  H   H400      1.0  0.46628  0.49412  0.89147  1.0000
  H   H401      1.0  0.32526  0.95034  0.50776  1.0000
  C   C405      1.0  0.29650  0.91167  0.98051  1.0000
  C   C406      1.0  0.31122  0.91822  0.95219  1.0000
  C   C407      1.0  0.42944  0.96356  0.53906  1.0000
  H   H402      1.0  0.45458  0.97706  0.57894  1.0000
  H   H403      1.0  0.27858  0.90787  0.97804  1.0000
  H   H404      1.0  0.30442  0.91917  0.92799  1.0000
  H   H405      1.0  0.45354  0.93841  0.86567  1.0000
  H   H406      1.0  0.25364  0.94643  0.61538  1.0000
  C   C408      1.0  0.29696  0.86561  0.92468  1.0000
  S   S142      1.0  0.23300  0.89757  0.59366  1.0000
  C   C409      1.0  0.27002  0.97664  0.64812  1.0000
  H   H407      1.0  0.28465  0.97348  0.65321  1.0000
  H   H408      1.0  0.45449  0.50000  0.62046  1.0000
  H   H409      1.0  0.23663  0.86846  0.96053  1.0000
  C   C410      1.0  0.27393  0.86166  0.92379  1.0000
  H   H410      1.0  0.45255  0.95977  0.97029  1.0000
  H   H411      1.0  0.40939  0.91008  0.50324  1.0000
  H   H412      1.0  0.43614  0.90702  0.54437  1.0000
  C   C411      1.0  0.23670  0.85210  0.95120  1.0000
  H   H413      1.0  0.36037  0.92308  0.98808  1.0000
  C   C412      1.0  0.43405  0.92282  0.54333  1.0000
  H   H414      1.0  0.42823  0.97981  0.53692  1.0000
  Fe  Fe72      1.0  0.24177  0.89409  0.53980  1.0000
  C   C413      1.0  0.29217  0.85588  0.98328  1.0000
  C   C414      1.0  0.44671  0.94165  0.56487  1.0000
  N   N36       1.0  0.41724  0.94508  0.51782  1.0000
  C   C415      1.0  0.25240  0.96120  0.62670  1.0000
  H   H415      1.0  0.30806  0.87203  0.90276  1.0000
  H   H416      1.0  0.47328  0.98083  0.91734  1.0000
  S   S143      1.0  0.28025  0.91604  0.52741  1.0000
  C   C416      1.0  0.46233  0.97339  0.78073  1.0000
  C   C417      1.0  0.46931  0.96002  0.75967  1.0000
  C   C418      1.0  0.23374  0.91443  0.69359  1.0000
  C   C419      1.0  0.46636  0.97048  0.98727  1.0000
  C   C420      1.0  0.26924  0.85210  0.98152  1.0000
  H   H417      1.0  0.46694  0.94172  0.90607  1.0000
  H   H418      1.0  0.26723  0.86471  0.90065  1.0000
  C   C421      1.0  0.30610  0.86276  0.95467  1.0000
  N   N37       1.0  0.26034  0.85480  0.95195  1.0000
  S   S144      1.0  0.39831  0.98896  0.92993  1.0000
  C   C422      1.0  0.47322  0.51280  0.66704  1.0000
  H   H419      1.0  0.38522  0.94434  0.50587  1.0000
  C   C423      1.0  0.44431  0.96211  0.56291  1.0000
  H   H420      1.0  0.32426  0.86695  0.95601  1.0000
  H   H421      1.0  0.44425  0.49635  0.51194  1.0000
  C   C424      1.0  0.46723  0.49949  0.63737  1.0000
  H   H422      1.0  0.24077  0.94939  0.70943  1.0000
  H   H423      1.0  0.46511  0.52387  0.67287  1.0000
  H   H424      1.0  0.24996  0.91589  0.70290  1.0000
  C   C425      1.0  0.23308  0.96464  0.62057  1.0000
  H   H425      1.0  0.31492  0.98748  0.80855  1.0000
  H   H426      1.0  0.45893  0.94069  0.58234  1.0000
  C   C426      1.0  0.23189  0.98409  0.63537  1.0000
  H   H427      1.0  0.47885  0.52246  0.73386  1.0000
  H   H428      1.0  0.43754  0.49508  0.93175  1.0000
  H   H429      1.0  0.35340  0.98827  0.81204  1.0000
  H   H430      1.0  0.22937  0.84834  0.92552  1.0000
  S   S145      1.0  0.57471  0.99326  0.17286  1.0000
  H   H431      1.0  0.47938  0.44340  0.04299  1.0000
  C   C427      1.0  0.55898  0.48857  0.28778  1.0000
  C   C428      1.0  0.71038  0.99861  0.41586  1.0000
  S   S146      1.0  0.54750  0.01125  0.12160  1.0000
  Fe  Fe73      1.0  0.58111  0.00871  0.12123  1.0000
  S   S147      1.0  0.61984  0.03261  0.11466  1.0000
  N   N38       1.0  0.65349  0.01640  0.00166  1.0000
  H   H432      1.0  0.49805  0.02712  0.01302  1.0000
  H   H433      1.0  0.50240  0.02225  0.26115  1.0000
  S   S148      1.0  0.72002  0.07711  0.43063  1.0000
  C   C429      1.0  0.66681  0.02575  0.46896  1.0000
  H   H434      1.0  0.66531  0.01185  0.45081  1.0000
  C   C430      1.0  0.50151  0.99772  0.03275  1.0000
  H   H435      1.0  0.60322  0.99516  0.04534  1.0000
  C   C431      1.0  0.50383  0.46629  0.00618  1.0000
  C   C432      1.0  0.66587  0.07260  0.02538  1.0000
  C   C433      1.0  0.52027  0.47369  0.21314  1.0000
  C   C434      1.0  0.62764  0.05410  0.05236  1.0000
  C   C435      1.0  0.63686  0.04785  0.07965  1.0000
  C   C436      1.0  0.66058  0.05395  0.07955  1.0000
  C   C437      1.0  0.67494  0.06596  0.05240  1.0000
  H   H436      1.0  0.50992  0.48212  0.20370  1.0000
  H   H437      1.0  0.60947  0.04974  0.05229  1.0000
  H   H438      1.0  0.66790  0.04935  0.10065  1.0000
  H   H439      1.0  0.69317  0.07064  0.05283  1.0000
  C   C438      1.0  0.48449  0.45889  0.02787  1.0000
  H   H440      1.0  0.63053  0.99853  0.21588  1.0000
  H   H441      1.0  0.49201  0.03954  0.11503  1.0000
  N   N39       1.0  0.53491  0.48682  0.24145  1.0000
  C   C439      1.0  0.71848  0.99260  0.35793  1.0000
  C   C440      1.0  0.48562  0.99378  0.38339  1.0000
  C   C441      1.0  0.51649  0.01672  0.34511  1.0000
  C   C442      1.0  0.65689  0.99926  0.05306  1.0000
  H   H442      1.0  0.68525  0.03915  0.47009  1.0000
  S   S149      1.0  0.71616  0.01604  0.45280  1.0000
  C   C443      1.0  0.62081  0.99891  0.03886  1.0000
  Fe  Fe74      1.0  0.71593  0.08889  0.48236  1.0000
  C   C444      1.0  0.63399  0.99357  0.06117  1.0000
  C   C445      1.0  0.51480  0.99587  0.33105  1.0000
  H   H443      1.0  0.50272  0.03157  0.38257  1.0000
  H   H444      1.0  0.51491  0.00831  0.05038  1.0000
  C   C446      1.0  0.49186  0.00831  0.01163  1.0000
  C   C447      1.0  0.63088  0.01039  0.00903  1.0000
  C   C448      1.0  0.50177  0.01560  0.37147  1.0000
  H   H445      1.0  0.50763  0.45561  0.22076  1.0000
  C   C449      1.0  0.48834  0.48035  0.29112  1.0000
  S   S150      1.0  0.52575  0.00641  0.21377  1.0000
  C   C450      1.0  0.64217  0.06667  0.02552  1.0000
  H   H446      1.0  0.54006  0.45793  0.25707  1.0000
  H   H447      1.0  0.65718  0.03504  0.45980  1.0000
  H   H448      1.0  0.52603  0.99690  0.31016  1.0000
  C   C451      1.0  0.66637  0.01056  0.02283  1.0000
  C   C452      1.0  0.49376  0.01134  0.14140  1.0000
  S   S151      1.0  0.67992  0.08536  0.49206  1.0000
  H   H449      1.0  0.49636  0.48042  0.31474  1.0000
  H   H450      1.0  0.50637  0.02280  0.15957  1.0000
  C   C453      1.0  0.48569  0.02069  0.11647  1.0000
  Fe  Fe75      1.0  0.53974  0.99232  0.17107  1.0000
  H   H451      1.0  0.53114  0.47256  0.19229  1.0000
  C   C454      1.0  0.49295  0.00327  0.26019  1.0000
  H   H452      1.0  0.68422  0.01506  0.01663  1.0000
  H   H453      1.0  0.52893  0.03359  0.33529  1.0000
  H   H454      1.0  0.51361  0.45650  0.00510  1.0000
  C   C455      1.0  0.72246  0.00755  0.38598  1.0000
  H   H455      1.0  0.72838  0.99954  0.33522  1.0000
  H   H456      1.0  0.66737  0.99535  0.07030  1.0000
  C   C456      1.0  0.54417  0.47616  0.26142  1.0000
  H   H457      1.0  0.62465  0.01197  0.49518  1.0000
  H   H458      1.0  0.56623  0.48010  0.30376  1.0000
  H   H459      1.0  0.63505  0.07192  0.00484  1.0000
  C   C457      1.0  0.49276  0.49073  0.49303  1.0000
  H   H460      1.0  0.62065  0.07587  0.64275  1.0000
  C   C458      1.0  0.49704  0.99709  0.52998  1.0000
  H   H461      1.0  0.57361  0.46499  0.86215  1.0000
  H   H462      1.0  0.50035  0.02770  0.75237  1.0000
  S   S152      1.0  0.54591  0.01125  0.61548  1.0000
  Fe  Fe76      1.0  0.57849  0.00735  0.62024  1.0000
  S   S153      1.0  0.61691  0.03291  0.61734  1.0000
  C   C459      1.0  0.70120  0.02619  0.85931  1.0000
  H   H463      1.0  0.66250  0.01554  0.95073  1.0000
  C   C460      1.0  0.56051  0.07193  0.62764  1.0000
  H   H464      1.0  0.50116  0.47041  0.90390  1.0000
  C   C461      1.0  0.49476  0.46684  0.75782  1.0000
  H   H465      1.0  0.61332  0.09118  0.59036  1.0000
  C   C462      1.0  0.66382  0.99250  0.84605  1.0000
  C   C463      1.0  0.59074  0.05415  0.69197  1.0000
  H   H466      1.0  0.65543  0.99988  0.86248  1.0000
  H   H467      1.0  0.68235  0.04103  0.97411  1.0000
  C   C464      1.0  0.67204  0.06565  0.55509  1.0000
  C   C465      1.0  0.65780  0.05431  0.58266  1.0000
  C   C466      1.0  0.63379  0.04661  0.58161  1.0000
  C   C467      1.0  0.62409  0.05057  0.55284  1.0000
  C   C468      1.0  0.66247  0.07007  0.52657  1.0000
  H   H468      1.0  0.50743  0.46101  0.75098  1.0000
  H   H469      1.0  0.66546  0.05144  0.60491  1.0000
  H   H470      1.0  0.60565  0.04484  0.55181  1.0000
  H   H471      1.0  0.49501  0.02317  0.90603  1.0000
  H   H472      1.0  0.69416  0.02627  0.88478  1.0000
  C   C469      1.0  0.59967  0.08355  0.60903  1.0000
  C   C470      1.0  0.69796  0.99448  0.82109  1.0000
  H   H473      1.0  0.54347  0.07056  0.62358  1.0000
  H   H474      1.0  0.69050  0.07154  0.55624  1.0000
  H   H475      1.0  0.60205  0.04578  0.68613  1.0000
  C   C471      1.0  0.60369  0.07473  0.63869  1.0000
  H   H476      1.0  0.67772  0.00039  0.57140  1.0000
  C   C472      1.0  0.49279  0.48343  0.65241  1.0000
  H   H477      1.0  0.65545  0.03917  0.96181  1.0000
  H   H478      1.0  0.51807  0.03670  0.85337  1.0000
  C   C473      1.0  0.66380  0.02848  0.97036  1.0000
  C   C474      1.0  0.56509  0.06305  0.65688  1.0000
  N   N40       1.0  0.68739  0.00368  0.84211  1.0000
  N   N41       1.0  0.58630  0.06399  0.66164  1.0000
  C   C475      1.0  0.49172  0.00876  0.75430  1.0000
  H   H479      1.0  0.57446  0.08859  0.58038  1.0000
  C   C476      1.0  0.50878  0.01810  0.85888  1.0000
  H   H480      1.0  0.55137  0.05484  0.67530  1.0000
  C   C477      1.0  0.48558  0.00680  0.51070  1.0000
  H   H481      1.0  0.70131  0.04084  0.84467  1.0000
  H   H482      1.0  0.61066  0.99491  0.55114  1.0000
  C   C478      1.0  0.63846  0.06255  0.52560  1.0000
  S   S154      1.0  0.68358  0.08826  0.99114  1.0000
  C   C479      1.0  0.57788  0.08204  0.60345  1.0000
  H   H483      1.0  0.62073  0.01521  0.99242  1.0000
  H   H484      1.0  0.59929  0.06822  0.71105  1.0000
  H   H485      1.0  0.57439  0.04019  0.70271  1.0000
  H   H486      1.0  0.50759  0.00679  0.55105  1.0000
  C   C480      1.0  0.51041  0.48607  0.98570  1.0000
  S   S155      1.0  0.71962  0.07387  0.92951  1.0000
  C   C481      1.0  0.48993  0.47384  0.51720  1.0000
  Fe  Fe77      1.0  0.71814  0.08864  0.98007  1.0000
  C   C482      1.0  0.67325  0.01203  0.52282  1.0000
  C   C483      1.0  0.62818  0.99934  0.54314  1.0000
  S   S156      1.0  0.52233  0.00999  0.70508  1.0000
  H   H487      1.0  0.56590  0.48177  0.91442  1.0000
  C   C484      1.0  0.49971  0.48356  0.78380  1.0000
  S   S157      1.0  0.70765  0.01239  0.94952  1.0000
  C   C485      1.0  0.64320  0.99636  0.56494  1.0000
  H   H488      1.0  0.50267  0.46749  0.51883  1.0000
  C   C486      1.0  0.49587  0.01056  0.88835  1.0000
  C   C487      1.0  0.70814  0.99248  0.91878  1.0000
  C   C488      1.0  0.48439  0.46412  0.89065  1.0000
  H   H489      1.0  0.49977  0.47120  0.64773  1.0000
  C   C489      1.0  0.63623  0.00908  0.51160  1.0000
  H   H490      1.0  0.71664  0.00317  0.81811  1.0000
  H   H491      1.0  0.48749  0.02406  0.51703  1.0000
  H   H492      1.0  0.48700  0.47558  0.86870  1.0000
  H   H493      1.0  0.51615  0.49058  0.79659  1.0000
  H   H494      1.0  0.59760  0.48335  0.83591  1.0000
  H   H495      1.0  0.51874  0.00715  0.81281  1.0000
  C   C490      1.0  0.66586  0.00260  0.55470  1.0000
  H   H496      1.0  0.69085  0.01674  0.51487  1.0000
  N   N42       1.0  0.65862  0.01563  0.50207  1.0000
  C   C491      1.0  0.50928  0.00156  0.83626  1.0000
  H   H497      1.0  0.63098  0.06602  0.50364  1.0000
  C   C492      1.0  0.49878  0.99536  0.73339  1.0000
  Fe  Fe78      1.0  0.53521  0.99269  0.66523  1.0000
  H   H498      1.0  0.57360  0.48965  0.84064  1.0000
  C   C493      1.0  0.58454  0.48338  0.85405  1.0000
  H   H499      1.0  0.71940  0.02954  0.86290  1.0000
  C   C494      1.0  0.72827  0.99645  0.90113  1.0000
  S   S158      1.0  0.56917  0.99193  0.67172  1.0000
  Fe  Fe79      1.0  0.55128  0.57674  0.39782  1.0000
  S   S159      1.0  0.56636  0.55730  0.42617  1.0000
  S   S160      1.0  0.55959  0.61469  0.40833  1.0000
  Fe  Fe80      1.0  0.52655  0.53579  0.34799  1.0000
  S   S161      1.0  0.54029  0.51354  0.37300  1.0000
  S   S162      1.0  0.50655  0.52874  0.29906  1.0000
  Fe  Fe81      1.0  0.53104  0.52596  0.42156  1.0000
  H   H500      1.0  0.67919  0.96968  0.27136  1.0000
  Fe  Fe82      1.0  0.57416  0.54684  0.37551  1.0000
  S   S163      1.0  0.61003  0.54995  0.36658  1.0000
  S   S164      1.0  0.51523  0.54630  0.39625  1.0000
  S   S165      1.0  0.56118  0.56820  0.34744  1.0000
  Fe  Fe83      1.0  0.71346  0.62447  0.23566  1.0000
  S   S166      1.0  0.59449  0.67478  0.03355  1.0000
  S   S167      1.0  0.67449  0.60110  0.24151  1.0000
  C   C495      1.0  0.65276  0.97447  0.24485  1.0000
  C   C496      1.0  0.67163  0.87777  0.44399  1.0000
  Fe  Fe84      1.0  0.67012  0.91306  0.31678  1.0000
  S   S168      1.0  0.63707  0.89736  0.34602  1.0000
  S   S169      1.0  0.69867  0.95043  0.32386  1.0000
  Fe  Fe85      1.0  0.65345  0.87046  0.26868  1.0000
  S   S170      1.0  0.61898  0.85163  0.29485  1.0000
  S   S171      1.0  0.66504  0.86115  0.21897  1.0000
  Fe  Fe86      1.0  0.61933  0.88685  0.29633  1.0000
  S   S172      1.0  0.58788  0.89252  0.28858  1.0000
  Fe  Fe87      1.0  0.63965  0.86354  0.34259  1.0000
  S   S173      1.0  0.62763  0.84170  0.38992  1.0000
  S   S174      1.0  0.65217  0.90491  0.26707  1.0000
  S   S175      1.0  0.67440  0.88011  0.31645  1.0000
  Fe  Fe88      1.0  0.63758  0.75592  0.08535  1.0000
  S   S176      1.0  0.67215  0.77521  0.05965  1.0000
  S   S177      1.0  0.62458  0.76598  0.13312  1.0000
  Fe  Fe89      1.0  0.62240  0.71265  0.03889  1.0000
  H   H501      1.0  0.65362  0.95031  0.31972  1.0000
  N   N43       1.0  0.66908  0.65925  0.10598  1.0000
  Fe  Fe90      1.0  0.67287  0.74051  0.05951  1.0000
  S   S178      1.0  0.70514  0.73649  0.06770  1.0000
  H   H502      1.0  0.66398  0.98280  0.22364  1.0000
  S   S179      1.0  0.67470  0.78968  0.46912  1.0000
  S   S180      1.0  0.64007  0.72215  0.08880  1.0000
  S   S181      1.0  0.61702  0.74497  0.03727  1.0000
  Fe  Fe91      1.0  0.55815  0.95839  0.14668  1.0000
  S   S182      1.0  0.57309  0.93289  0.15248  1.0000
  Fe  Fe92      1.0  0.53129  0.97469  0.09939  1.0000
  S   S183      1.0  0.50351  0.95883  0.05911  1.0000
  C   C497      1.0  0.69404  0.90299  0.39897  1.0000
  S   S184      1.0  0.52238  0.95585  0.14887  1.0000
  H   H503      1.0  0.60277  0.97289  0.21853  1.0000
  C   C498      1.0  0.69735  0.71025  0.16139  1.0000
  C   C499      1.0  0.61631  0.96069  0.27218  1.0000
  C   C500      1.0  0.58510  0.90555  0.25156  1.0000
  C   C501      1.0  0.60047  0.90989  0.22475  1.0000
  C   C502      1.0  0.59687  0.91882  0.19472  1.0000
  C   C503      1.0  0.57830  0.92408  0.19162  1.0000
  C   C504      1.0  0.56350  0.92069  0.21889  1.0000
  C   C505      1.0  0.56673  0.91113  0.24864  1.0000
  H   H504      1.0  0.61461  0.90557  0.22670  1.0000
  H   H505      1.0  0.60831  0.92135  0.17361  1.0000
  H   H506      1.0  0.54901  0.92449  0.21655  1.0000
  H   H507      1.0  0.55476  0.90777  0.26932  1.0000
  C   C506      1.0  0.65381  0.83429  0.19607  1.0000
  C   C507      1.0  0.63477  0.81393  0.20729  1.0000
  C   C508      1.0  0.62602  0.79324  0.18758  1.0000
  C   C509      1.0  0.63622  0.79264  0.15657  1.0000
  C   C510      1.0  0.65525  0.81302  0.14533  1.0000
  C   C511      1.0  0.66396  0.83371  0.16501  1.0000
  H   H508      1.0  0.62685  0.81404  0.23120  1.0000
  H   H509      1.0  0.61131  0.77754  0.19651  1.0000
  H   H510      1.0  0.66315  0.81289  0.12143  1.0000
  H   H511      1.0  0.67864  0.84943  0.15607  1.0000
  C   C512      1.0  0.63992  0.82549  0.40951  1.0000
  C   C513      1.0  0.62899  0.81238  0.43813  1.0000
  C   C514      1.0  0.63892  0.80051  0.45597  1.0000
  C   C515      1.0  0.66004  0.80182  0.44544  1.0000
  C   C516      1.0  0.67084  0.81470  0.41656  1.0000
  C   C517      1.0  0.66084  0.82647  0.39862  1.0000
  H   H512      1.0  0.61280  0.81155  0.44672  1.0000
  H   H513      1.0  0.69952  0.67275  0.07537  1.0000
  H   H514      1.0  0.68719  0.81581  0.40828  1.0000
  H   H515      1.0  0.66944  0.83654  0.37669  1.0000
  C   C518      1.0  0.70211  0.96874  0.35926  1.0000
  C   C519      1.0  0.59962  0.63641  0.49210  1.0000
  C   C520      1.0  0.68945  0.95999  0.38878  1.0000
  H   H516      1.0  0.67565  0.65739  0.15775  1.0000
  H   H517      1.0  0.67666  0.94175  0.39010  1.0000
  H   H518      1.0  0.51440  0.54733  0.47181  1.0000
  H   H519      1.0  0.68587  0.70729  0.18258  1.0000
  C   C521      1.0  0.69277  0.71807  0.13104  1.0000
  C   C522      1.0  0.70840  0.72344  0.10435  1.0000
  H   H520      1.0  0.67805  0.63703  0.30159  1.0000
  C   C523      1.0  0.48065  0.96230  0.49480  1.0000
  H   H521      1.0  0.65556  0.86978  0.45815  1.0000
  H   H522      1.0  0.67776  0.72098  0.12888  1.0000
  C   C524      1.0  0.66148  0.96715  0.27167  1.0000
  H   H523      1.0  0.68438  0.96774  0.44007  1.0000
  C   C525      1.0  0.57770  0.63203  0.44126  1.0000
  C   C526      1.0  0.58701  0.62268  0.46457  1.0000
  C   C527      1.0  0.49020  0.50137  0.27850  1.0000
  C   C528      1.0  0.49353  0.97342  0.03130  1.0000
  C   C529      1.0  0.59487  0.66935  0.47229  1.0000
  C   C530      1.0  0.58192  0.65548  0.44505  1.0000
  H   H524      1.0  0.58385  0.60466  0.46204  1.0000
  C   C531      1.0  0.70480  0.76445  0.19444  1.0000
  C   C532      1.0  0.62177  0.97903  0.21689  1.0000
  H   H525      1.0  0.57482  0.66289  0.42713  1.0000
  C   C533      1.0  0.62785  0.56450  0.33188  1.0000
  C   C534      1.0  0.65137  0.56978  0.33212  1.0000
  C   C535      1.0  0.66613  0.58159  0.30511  1.0000
  C   C536      1.0  0.65727  0.58753  0.27714  1.0000
  C   C537      1.0  0.63371  0.58210  0.27686  1.0000
  C   C538      1.0  0.61915  0.57101  0.30428  1.0000
  H   H526      1.0  0.65822  0.56472  0.35333  1.0000
  H   H527      1.0  0.68417  0.58544  0.30549  1.0000
  H   H528      1.0  0.62669  0.58655  0.25525  1.0000
  H   H529      1.0  0.60117  0.56722  0.30382  1.0000
  C   C539      1.0  0.55472  0.52270  0.27318  1.0000
  S   S185      1.0  0.56532  0.97369  0.09518  1.0000
  H   H530      1.0  0.52570  0.61873  0.47267  1.0000
  H   H531      1.0  0.61836  0.65874  0.08564  1.0000
  H   H532      1.0  0.63614  0.86937  0.17048  1.0000
  H   H533      1.0  0.56216  0.62667  0.02015  1.0000
  C   C540      1.0  0.68163  0.66939  0.07773  1.0000
  S   S186      1.0  0.72063  0.64040  0.18431  1.0000
  C   C541      1.0  0.64714  0.95628  0.29894  1.0000
  N   N44       1.0  0.59988  0.85573  0.17751  1.0000
  C   C542      1.0  0.59694  0.84774  0.20965  1.0000
  C   C543      1.0  0.57833  0.84632  0.22912  1.0000
  C   C544      1.0  0.56588  0.86131  0.18275  1.0000
  C   C545      1.0  0.56274  0.85316  0.21554  1.0000
  H   H534      1.0  0.60921  0.84268  0.22043  1.0000
  H   H535      1.0  0.57627  0.84052  0.25490  1.0000
  H   H536      1.0  0.55428  0.86743  0.17235  1.0000
  H   H537      1.0  0.54874  0.85290  0.23085  1.0000
  N   N45       1.0  0.64727  0.63319  0.32721  1.0000
  C   C546      1.0  0.62823  0.63700  0.32731  1.0000
  C   C547      1.0  0.65062  0.62101  0.35263  1.0000
  C   C548      1.0  0.61187  0.62841  0.35325  1.0000
  C   C549      1.0  0.63445  0.61191  0.37869  1.0000
  C   C550      1.0  0.61503  0.61573  0.37899  1.0000
  C   C551      1.0  0.66404  0.64230  0.29958  1.0000
  H   H538      1.0  0.62556  0.64666  0.30721  1.0000
  H   H539      1.0  0.66553  0.61771  0.35248  1.0000
  H   H540      1.0  0.59669  0.63134  0.35341  1.0000
  H   H541      1.0  0.63667  0.60143  0.39807  1.0000
  H   H542      1.0  0.60229  0.60867  0.39894  1.0000
  H   H543      1.0  0.63656  0.64705  0.13117  1.0000
  C   C552      1.0  0.67876  0.77297  0.15998  1.0000
  C   C553      1.0  0.67377  0.89313  0.41811  1.0000
  H   H544      1.0  0.69860  0.66004  0.13057  1.0000
  C   C554      1.0  0.70908  0.88182  0.43183  1.0000
  H   H545      1.0  0.69591  0.91489  0.37873  1.0000
  H   H546      1.0  0.61290  0.94384  0.31989  1.0000
  C   C555      1.0  0.68715  0.85707  0.47876  1.0000
  H   H547      1.0  0.65531  0.63514  0.27525  1.0000
  C   C556      1.0  0.48419  0.97329  0.36853  1.0000
  C   C557      1.0  0.58469  0.86255  0.16399  1.0000
  H   H548      1.0  0.62002  0.86350  0.13216  1.0000
  C   C558      1.0  0.61967  0.85714  0.15797  1.0000
  C   C559      1.0  0.63619  0.66176  0.08335  1.0000
  H   H549      1.0  0.58720  0.86936  0.13877  1.0000
  N   N46       1.0  0.63039  0.97108  0.24529  1.0000
  C   C560      1.0  0.54008  0.50982  0.24695  1.0000
  H   H550      1.0  0.67224  0.66179  0.29921  1.0000
  H   H551      1.0  0.61897  0.83951  0.15609  1.0000
  H   H552      1.0  0.55816  0.54070  0.27802  1.0000
  H   H553      1.0  0.63048  0.79073  0.47819  1.0000
  H   H554      1.0  0.69547  0.84569  0.47280  1.0000
  C   C561      1.0  0.56433  0.51202  0.29355  1.0000
  H   H555      1.0  0.66872  0.84500  0.48469  1.0000
  C   C562      1.0  0.64658  0.65525  0.10892  1.0000
  C   C563      1.0  0.51786  0.58226  0.46961  1.0000
  H   H556      1.0  0.62655  0.98555  0.08501  1.0000
  H   H557      1.0  0.50728  0.57875  0.44738  1.0000
  H   H558      1.0  0.49322  0.95632  0.22003  1.0000
  H   H559      1.0  0.57573  0.52179  0.31400  1.0000
  H   H560      1.0  0.59852  0.95778  0.27255  1.0000
  H   H561      1.0  0.67249  0.63248  0.13237  1.0000
  C   C564      1.0  0.71180  0.89726  0.40574  1.0000
  H   H562      1.0  0.66424  0.75511  0.15560  1.0000
  C   C565      1.0  0.67941  0.65188  0.13288  1.0000
  C   C566      1.0  0.62439  0.95292  0.29922  1.0000
  H   H563      1.0  0.71174  0.78102  0.11393  1.0000
  Fe  Fe93      1.0  0.65191  0.76212  0.01164  1.0000
  H   H564      1.0  0.50610  0.94573  0.34412  1.0000
  C   C567      1.0  0.48780  0.96622  0.23688  1.0000
  S   S187      1.0  0.51820  0.50221  0.46748  1.0000
  C   C568      1.0  0.52210  0.56467  0.48334  1.0000
  H   H565      1.0  0.62490  0.97185  0.19296  1.0000
  N   N47       1.0  0.49857  0.97453  0.34256  1.0000
  C   C569      1.0  0.64897  0.67238  0.05471  1.0000
  C   C570      1.0  0.60347  0.65974  0.49624  1.0000
  H   H566      1.0  0.67462  0.78086  0.18238  1.0000
  H   H567      1.0  0.69248  0.76012  0.21494  1.0000
  H   H568      1.0  0.68213  0.68519  0.03008  1.0000
  H   H569      1.0  0.50475  0.95568  0.30238  1.0000
  C   C571      1.0  0.69379  0.97480  0.41705  1.0000
  H   H570      1.0  0.59761  0.68725  0.47527  1.0000
  N   N48       1.0  0.68914  0.87226  0.45050  1.0000
  H   H571      1.0  0.72294  0.87742  0.43697  1.0000
  H   H572      1.0  0.67968  0.78405  0.13832  1.0000
  H   H573      1.0  0.64115  0.67766  0.03484  1.0000
  C   C572      1.0  0.71723  0.70718  0.16488  1.0000
  H   H574      1.0  0.65955  0.89689  0.41257  1.0000
  N   N49       1.0  0.70049  0.77170  0.16447  1.0000
  H   H575      1.0  0.72752  0.90471  0.39076  1.0000
  C   C573      1.0  0.67185  0.67633  0.05186  1.0000
  C   C574      1.0  0.71562  0.77634  0.13822  1.0000
  S   S188      1.0  0.72478  0.70185  0.20478  1.0000
  H   H576      1.0  0.53242  0.51823  0.23164  1.0000
  C   C575      1.0  0.52809  0.60470  0.48395  1.0000
  C   C576      1.0  0.72485  0.76191  0.19884  1.0000
  C   C577      1.0  0.49704  0.95277  0.32793  1.0000
  H   H577      1.0  0.49190  0.97971  0.16205  1.0000
  H   H578      1.0  0.72787  0.75531  0.22219  1.0000
  S   S189      1.0  0.65550  0.72884  0.00970  1.0000
  C   C578      1.0  0.48569  0.98711  0.14278  1.0000
  H   H579      1.0  0.48118  0.51718  0.23767  1.0000
  C   C579      1.0  0.47974  0.50096  0.24768  1.0000
  C   C580      1.0  0.72781  0.71954  0.10745  1.0000
  C   C581      1.0  0.50028  0.99073  0.23806  1.0000
  Fe  Fe94      1.0  0.55920  0.57203  0.89411  1.0000
  S   S190      1.0  0.57904  0.55249  0.90807  1.0000
  S   S191      1.0  0.57526  0.61171  0.90274  1.0000
  Fe  Fe95      1.0  0.52319  0.52958  0.85356  1.0000
  S   S192      1.0  0.54115  0.50811  0.86478  1.0000
  H   H580      1.0  0.69041  0.76585  0.63009  1.0000
  Fe  Fe96      1.0  0.54359  0.52193  0.91737  1.0000
  C   C582      1.0  0.66518  0.65714  0.61250  1.0000
  Fe  Fe97      1.0  0.57438  0.54075  0.85416  1.0000
  S   S193      1.0  0.59957  0.53777  0.81681  1.0000
  S   S194      1.0  0.52401  0.54220  0.90686  1.0000
  S   S195      1.0  0.55607  0.56142  0.83951  1.0000
  Fe  Fe98      1.0  0.52990  0.97475  0.59321  1.0000
  C   C583      1.0  0.54609  0.87031  0.69745  1.0000
  S   S196      1.0  0.70821  0.60236  0.80264  1.0000
  H   H581      1.0  0.50252  0.51392  0.97218  1.0000
  H   H582      1.0  0.55099  0.62694  0.52241  1.0000
  Fe  Fe99      1.0  0.67458  0.90753  0.82200  1.0000
  S   S197      1.0  0.63984  0.89575  0.84576  1.0000
  S   S198      1.0  0.70743  0.93845  0.84120  1.0000
  Fe  Fe100     1.0  0.65479  0.86972  0.76663  1.0000
  S   S199      1.0  0.61833  0.85545  0.78660  1.0000
  S   S200      1.0  0.66736  0.85907  0.71897  1.0000
  Fe  Fe101     1.0  0.62661  0.89345  0.79346  1.0000
  S   S201      1.0  0.60233  0.90966  0.78878  1.0000
  Fe  Fe102     1.0  0.63486  0.85903  0.83721  1.0000
  S   S202      1.0  0.61691  0.83319  0.87913  1.0000
  S   S203      1.0  0.66183  0.90760  0.77000  1.0000
  S   S204      1.0  0.67085  0.87090  0.81695  1.0000
  Fe  Fe103     1.0  0.64118  0.75704  0.58548  1.0000
  S   S205      1.0  0.67686  0.78042  0.56562  1.0000
  S   S206      1.0  0.62363  0.76570  0.62950  1.0000
  Fe  Fe104     1.0  0.63517  0.71528  0.53973  1.0000
  H   H583      1.0  0.65335  0.64558  0.63117  1.0000
  S   S207      1.0  0.61727  0.67535  0.53312  1.0000
  Fe  Fe105     1.0  0.68263  0.74850  0.56895  1.0000
  C   C584      1.0  0.59358  0.51068  0.93960  1.0000
  C   C585      1.0  0.67251  0.68379  0.56667  1.0000
  S   S208      1.0  0.66439  0.78455  0.96484  1.0000
  S   S209      1.0  0.64819  0.72617  0.59230  1.0000
  S   S210      1.0  0.62485  0.74428  0.53451  1.0000
  Fe  Fe106     1.0  0.55264  0.95710  0.64537  1.0000
  S   S211      1.0  0.56252  0.92804  0.65530  1.0000
  H   H584      1.0  0.69546  0.86790  0.50128  1.0000
  S   S212      1.0  0.50672  0.96063  0.54719  1.0000
  C   C586      1.0  0.59186  0.65607  0.99904  1.0000
  S   S213      1.0  0.51754  0.95624  0.64263  1.0000
  C   C587      1.0  0.66400  0.87636  0.92731  1.0000
  C   C588      1.0  0.70796  0.87967  0.92967  1.0000
  C   C589      1.0  0.54231  0.60929  0.51184  1.0000
  C   C590      1.0  0.59484  0.91882  0.75135  1.0000
  C   C591      1.0  0.60353  0.91636  0.72018  1.0000
  C   C592      1.0  0.59468  0.92092  0.69068  1.0000
  C   C593      1.0  0.57740  0.92829  0.69219  1.0000
  C   C594      1.0  0.56981  0.93212  0.72343  1.0000
  C   C595      1.0  0.57844  0.92729  0.75287  1.0000
  H   H585      1.0  0.61632  0.91006  0.71873  1.0000
  H   H586      1.0  0.60060  0.91791  0.66656  1.0000
  H   H587      1.0  0.55636  0.93754  0.72488  1.0000
  H   H588      1.0  0.57168  0.92929  0.77690  1.0000
  C   C596      1.0  0.65391  0.83362  0.69320  1.0000
  C   C597      1.0  0.63220  0.81505  0.70081  1.0000
  C   C598      1.0  0.62286  0.79465  0.68043  1.0000
  C   C599      1.0  0.63518  0.79253  0.65251  1.0000
  C   C600      1.0  0.65672  0.81125  0.64466  1.0000
  C   C601      1.0  0.66595  0.83171  0.66482  1.0000
  H   H589      1.0  0.62285  0.81617  0.72272  1.0000
  H   H590      1.0  0.60620  0.78020  0.68672  1.0000
  H   H591      1.0  0.66635  0.80990  0.62323  1.0000
  H   H592      1.0  0.68273  0.84603  0.65869  1.0000
  C   C602      1.0  0.62950  0.81832  0.90133  1.0000
  C   C603      1.0  0.65077  0.81961  0.89172  1.0000
  C   C604      1.0  0.66081  0.80853  0.91098  1.0000
  C   C605      1.0  0.64983  0.79623  0.94013  1.0000
  C   C606      1.0  0.62843  0.79468  0.94956  1.0000
  C   C607      1.0  0.61828  0.80562  0.93011  1.0000
  H   H593      1.0  0.65954  0.82928  0.86959  1.0000
  H   H594      1.0  0.67733  0.80970  0.90343  1.0000
  H   H595      1.0  0.61985  0.78535  0.97201  1.0000
  H   H596      1.0  0.60180  0.80456  0.93769  1.0000
  C   C608      1.0  0.70724  0.95901  0.87114  1.0000
  H   H597      1.0  0.67191  0.96861  0.92585  1.0000
  C   C609      1.0  0.68702  0.95532  0.88831  1.0000
  H   H598      1.0  0.61681  0.86703  0.70595  1.0000
  H   H599      1.0  0.67100  0.93968  0.88340  1.0000
  H   H600      1.0  0.65920  0.75021  0.66835  1.0000
  C   C610      1.0  0.69743  0.70546  0.66619  1.0000
  C   C611      1.0  0.69691  0.71971  0.64017  1.0000
  C   C612      1.0  0.71611  0.73093  0.61910  1.0000
  H   H601      1.0  0.60684  0.72808  0.94774  1.0000
  C   C613      1.0  0.55361  0.86561  0.72767  1.0000
  H   H602      1.0  0.68255  0.69700  0.68257  1.0000
  H   H603      1.0  0.68171  0.72207  0.63661  1.0000
  H   H604      1.0  0.69146  0.63036  0.62212  1.0000
  N   N50       1.0  0.48873  0.51150  0.68872  1.0000
  C   C614      1.0  0.58320  0.62694  0.94160  1.0000
  C   C615      1.0  0.56927  0.61849  0.97011  1.0000
  C   C616      1.0  0.69523  0.68712  0.56495  1.0000
  H   H605      1.0  0.71753  0.90746  0.89326  1.0000
  C   C617      1.0  0.60648  0.66411  0.97114  1.0000
  C   C618      1.0  0.60209  0.64963  0.94253  1.0000
  H   H606      1.0  0.55454  0.60117  0.96962  1.0000
  H   H607      1.0  0.54583  0.64629  0.93139  1.0000
  H   H608      1.0  0.62063  0.68178  0.97109  1.0000
  H   H609      1.0  0.61302  0.65628  0.92064  1.0000
  C   C619      1.0  0.62910  0.55863  0.81175  1.0000
  C   C620      1.0  0.64196  0.57332  0.83808  1.0000
  C   C621      1.0  0.66611  0.58725  0.83460  1.0000
  C   C622      1.0  0.67748  0.58735  0.80438  1.0000
  C   C623      1.0  0.66443  0.57339  0.77763  1.0000
  C   C624      1.0  0.64045  0.55882  0.78152  1.0000
  H   H610      1.0  0.63344  0.57341  0.86143  1.0000
  H   H611      1.0  0.67607  0.59788  0.85550  1.0000
  H   H612      1.0  0.67299  0.57297  0.75446  1.0000
  H   H613      1.0  0.63069  0.54739  0.76111  1.0000
  H   H614      1.0  0.59708  0.83706  0.71682  1.0000
  S   S214      1.0  0.48946  0.51324  0.82416  1.0000
  C   C625      1.0  0.68756  0.97184  0.91228  1.0000
  C   C626      1.0  0.61589  0.52925  0.93665  1.0000
  H   H615      1.0  0.65480  0.84868  0.96279  1.0000
  N   N51       1.0  0.57450  0.67561  0.90941  1.0000
  C   C627      1.0  0.59152  0.69819  0.91391  1.0000
  H   H616      1.0  0.67829  0.90439  0.89153  1.0000
  S   S215      1.0  0.56342  0.97245  0.59415  1.0000
  C   C628      1.0  0.62793  0.53258  0.90646  1.0000
  H   H617      1.0  0.65497  0.79346  0.74822  1.0000
  H   H618      1.0  0.60621  0.62885  0.51053  1.0000
  C   C629      1.0  0.66879  0.86181  0.94813  1.0000
  C   C630      1.0  0.55969  0.67613  0.96462  1.0000
  S   S216      1.0  0.67030  0.73623  0.51679  1.0000
  C   C631      1.0  0.57699  0.69914  0.96943  1.0000
  H   H619      1.0  0.55903  0.64512  0.87738  1.0000
  H   H620      1.0  0.55066  0.55580  0.54731  1.0000
  H   H621      1.0  0.55801  0.59532  0.54576  1.0000
  C   C632      1.0  0.49478  0.52580  0.71949  1.0000
  H   H622      1.0  0.64653  0.87439  0.92578  1.0000
  H   H623      1.0  0.57769  0.85640  0.75124  1.0000
  H   H624      1.0  0.72516  0.88093  0.93018  1.0000
  H   H625      1.0  0.53314  0.87652  0.69726  1.0000
  S   S217      1.0  0.53447  0.49435  0.95799  1.0000
  H   H626      1.0  0.63968  0.66623  0.59200  1.0000
  H   H627      1.0  0.57164  0.67296  0.85638  1.0000
  H   H628      1.0  0.58235  0.86100  0.64489  1.0000
  S   S218      1.0  0.72198  0.62675  0.70374  1.0000
  C   C633      1.0  0.68169  0.89296  0.90774  1.0000
  H   H629      1.0  0.63735  0.75614  0.71516  1.0000
  H   H630      1.0  0.54778  0.66702  0.98486  1.0000
  C   C634      1.0  0.69550  0.84813  0.97066  1.0000
  C   C635      1.0  0.66729  0.76628  0.68314  1.0000
  H   H631      1.0  0.58976  0.66150  0.87458  1.0000
  H   H632      1.0  0.68649  0.64501  0.65808  1.0000
  C   C636      1.0  0.60057  0.85127  0.69863  1.0000
  C   C637      1.0  0.70381  0.89466  0.90879  1.0000
  H   H633      1.0  0.60342  0.84488  0.67385  1.0000
  H   H634      1.0  0.69427  0.82449  0.73350  1.0000
  H   H635      1.0  0.71411  0.65773  0.63832  1.0000
  H   H636      1.0  0.54651  0.86810  0.75122  1.0000
  H   H637      1.0  0.70730  0.69945  0.54716  1.0000
  N   N52       1.0  0.59562  0.49886  0.88281  1.0000
  H   H638      1.0  0.55125  0.87305  0.64409  1.0000
  C   C638      1.0  0.66090  0.96174  0.80798  1.0000
  N   N53       1.0  0.68755  0.66058  0.61075  1.0000
  C   C639      1.0  0.70247  0.67517  0.58717  1.0000
  C   C640      1.0  0.66473  0.79040  0.72826  1.0000
  C   C641      1.0  0.65023  0.97133  0.82913  1.0000
  H   H639      1.0  0.63154  0.96227  0.83232  1.0000
  H   H640      1.0  0.64505  0.54731  0.90347  1.0000
  H   H641      1.0  0.65054  0.94532  0.79486  1.0000
  C   C642      1.0  0.72784  0.97964  0.87765  1.0000
  C   C643      1.0  0.49867  0.49723  0.68158  1.0000
  N   N54       1.0  0.68893  0.78352  0.67510  1.0000
  C   C644      1.0  0.59306  0.71030  0.94397  1.0000
  H   H642      1.0  0.72028  0.67816  0.58603  1.0000
  C   C645      1.0  0.68684  0.80783  0.72000  1.0000
  C   C646      1.0  0.57137  0.85908  0.72750  1.0000
  C   C647      1.0  0.57406  0.86179  0.66822  1.0000
  C   C648      1.0  0.55874  0.66450  0.93434  1.0000
  N   N55       1.0  0.48417  0.97039  0.87245  1.0000
  H   H643      1.0  0.49621  0.96484  0.82494  1.0000
  C   C649      1.0  0.71691  0.70189  0.67104  1.0000
  H   H644      1.0  0.50578  0.52151  0.73634  1.0000
  C   C650      1.0  0.68490  0.97331  0.80391  1.0000
  H   H645      1.0  0.50436  0.54474  0.71337  1.0000
  H   H646      1.0  0.58379  0.50824  0.96269  1.0000
  N   N56       1.0  0.58124  0.85707  0.69798  1.0000
  S   S219      1.0  0.71606  0.68335  0.70383  1.0000
  H   H647      1.0  0.71469  0.77437  0.65757  1.0000
  H   H648      1.0  0.71592  0.81772  0.68677  1.0000
  H   H649      1.0  0.62361  0.54132  0.95749  1.0000
  C   C651      1.0  0.69522  0.64769  0.63324  1.0000
  N   N57       1.0  0.69057  0.86358  0.94907  1.0000
  C   C652      1.0  0.49660  0.97762  0.84334  1.0000
  C   C653      1.0  0.54633  0.59134  0.52477  1.0000
  C   C654      1.0  0.55633  0.86837  0.66750  1.0000
  S   S220      1.0  0.71602  0.74896  0.58611  1.0000
  C   C655      1.0  0.57365  0.66327  0.87785  1.0000
  C   C656      1.0  0.57356  0.63305  0.99866  1.0000
  H   H650      1.0  0.60425  0.70684  0.89439  1.0000
  C   C657      1.0  0.61748  0.51712  0.87965  1.0000
  H   H651      1.0  0.49259  0.96031  0.72028  1.0000
  C   C658      1.0  0.69883  0.80401  0.69329  1.0000
  C   C659      1.0  0.65734  0.66873  0.59054  1.0000
  H   H652      1.0  0.62672  0.52023  0.85596  1.0000
  H   H653      1.0  0.69342  0.96564  0.78816  1.0000
  C   C660      1.0  0.65487  0.76946  0.70980  1.0000
  H   H654      1.0  0.71133  0.79598  0.63260  1.0000
  H   H655      1.0  0.68000  0.83599  0.98525  1.0000
  C   C661      1.0  0.49447  0.97469  0.52224  1.0000
  Fe  Fe107     1.0  0.66127  0.76616  0.51495  1.0000
  C   C662      1.0  0.70201  0.77979  0.64762  1.0000
  H   H656      1.0  0.66670  0.69304  0.54973  1.0000
  H   H657      1.0  0.55090  0.54610  0.50476  1.0000
  H   H658      1.0  0.70091  0.83693  0.95521  1.0000
  C   C663      1.0  0.58355  0.49571  0.91216  1.0000
  H   H659      1.0  0.52425  0.53455  0.52823  1.0000
  H   H660      1.0  0.70944  0.85866  0.98867  1.0000
  C   C664      1.0  0.48739  0.97089  0.73614  1.0000
  H   H661      1.0  0.63730  0.98955  0.58987  1.0000
  C   C665      1.0  0.54081  0.55066  0.52352  1.0000
  H   H662      1.0  0.57831  0.70797  0.99328  1.0000
  N   N58       1.0  0.53616  0.56934  0.51056  1.0000
  H   H663      1.0  0.51063  0.49576  0.69894  1.0000
  C   C666      1.0  0.48355  0.98650  0.89469  1.0000
  C   C667      1.0  0.49762  0.49858  0.98751  1.0000
  H   H664      1.0  0.47959  0.93529  0.86981  1.0000
  C   C668      1.0  0.48353  0.49135  0.79277  1.0000
  H   H665      1.0  0.96049  0.45847  0.31105  1.0000
  S   S221      1.0  0.95292  0.41350  0.37153  1.0000
  Fe  Fe108     1.0  0.73457  0.05609  0.45654  1.0000
  S   S222      1.0  0.95961  0.43577  0.46645  1.0000
  Fe  Fe109     1.0  0.95672  0.38036  0.37404  1.0000
  S   S223      1.0  0.92771  0.34343  0.36511  1.0000
  Fe  Fe110     1.0  0.91094  0.20646  0.19491  1.0000
  S   S224      1.0  0.90127  0.23221  0.17205  1.0000
  S   S225      1.0  0.93857  0.19722  0.17503  1.0000
  Fe  Fe111     1.0  0.87124  0.19083  0.24693  1.0000
  S   S226      1.0  0.85914  0.21616  0.22742  1.0000
  S   S227      1.0  0.85527  0.16243  0.28682  1.0000
  Fe  Fe112     1.0  0.86441  0.20391  0.17610  1.0000
  S   S228      1.0  0.83962  0.19645  0.13227  1.0000
  Fe  Fe113     1.0  0.89732  0.24214  0.22530  1.0000
  S   S229      1.0  0.91695  0.28179  0.23438  1.0000
  S   S230      1.0  0.87426  0.17733  0.19564  1.0000
  S   S231      1.0  0.90908  0.21753  0.24797  1.0000
  C   C669      1.0  0.93189  0.20447  0.08364  1.0000
  H   H666      1.0  0.94527  0.37117  0.20906  1.0000
  C   C670      1.0  0.89799  0.21915  0.08815  1.0000
  S   S232      1.0  0.75089  0.12105  0.48090  1.0000
  S   S233      1.0  0.79250  0.10369  0.04068  1.0000
  Fe  Fe114     1.0  0.75628  0.10707  0.43113  1.0000
  S   S234      1.0  0.77039  0.13402  0.38897  1.0000
  H   H667      1.0  0.91913  0.32798  0.21366  1.0000
  S   S235      1.0  0.77151  0.08513  0.45319  1.0000
  C   C671      1.0  0.82673  0.17048  0.10708  1.0000
  C   C672      1.0  0.83089  0.15124  0.11246  1.0000
  C   C673      1.0  0.82029  0.13102  0.09187  1.0000
  C   C674      1.0  0.80523  0.12962  0.06590  1.0000
  C   C675      1.0  0.80084  0.14874  0.06082  1.0000
  C   C676      1.0  0.81159  0.16905  0.08124  1.0000
  H   H668      1.0  0.84211  0.15181  0.13260  1.0000
  H   H669      1.0  0.82371  0.11628  0.09611  1.0000
  H   H670      1.0  0.78924  0.14791  0.04106  1.0000
  H   H671      1.0  0.80810  0.18373  0.07696  1.0000
  C   C677      1.0  0.83209  0.15544  0.31577  1.0000
  C   C678      1.0  0.81925  0.16791  0.31730  1.0000
  C   C679      1.0  0.80043  0.16104  0.33981  1.0000
  C   C680      1.0  0.79429  0.14177  0.36116  1.0000
  C   C681      1.0  0.80723  0.12939  0.35978  1.0000
  C   C682      1.0  0.82597  0.13618  0.33715  1.0000
  H   H672      1.0  0.82380  0.18285  0.30125  1.0000
  H   H673      1.0  0.79057  0.17077  0.34074  1.0000
  H   H674      1.0  0.80263  0.11443  0.37582  1.0000
  H   H675      1.0  0.83573  0.12635  0.33609  1.0000
  C   C683      1.0  0.92662  0.32536  0.33051  1.0000
  C   C684      1.0  0.90801  0.30260  0.32791  1.0000
  C   C685      1.0  0.90554  0.28837  0.29949  1.0000
  C   C686      1.0  0.92159  0.29692  0.27325  1.0000
  C   C687      1.0  0.94053  0.31947  0.27627  1.0000
  C   C688      1.0  0.94315  0.33357  0.30484  1.0000
  H   H676      1.0  0.89511  0.29610  0.34764  1.0000
  H   H677      1.0  0.89075  0.27117  0.29733  1.0000
  H   H678      1.0  0.95296  0.32627  0.25600  1.0000
  H   H679      1.0  0.95751  0.35106  0.30640  1.0000
  C   C689      1.0  0.96241  0.31875  0.40934  1.0000
  H   H680      1.0  0.94456  0.31573  0.40817  1.0000
  H   H681      1.0  0.89636  0.16271  0.13291  1.0000
  H   H682      1.0  0.89466  0.15294  0.08971  1.0000
  H   H683      1.0  0.92171  0.16489  0.11263  1.0000
  H   H684      1.0  0.93992  0.45408  0.01950  1.0000
  C   C690      1.0  0.97494  0.19845  0.14039  1.0000
  C   C691      1.0  0.97890  0.33466  0.38757  1.0000
  H   H685      1.0  0.89570  0.31787  0.24267  1.0000
  C   C692      1.0  0.80436  0.16859  0.45949  1.0000
  C   C693      1.0  0.96391  0.21177  0.15032  1.0000
  S   S236      1.0  0.97320  0.38923  0.42486  1.0000
  N   N59       1.0  0.82662  0.14971  0.47790  1.0000
  C   C694      1.0  0.95080  0.39377  0.25182  1.0000
  H   H686      1.0  0.95624  0.29473  0.44964  1.0000
  N   N60       1.0  0.91951  0.35454  0.24673  1.0000
  C   C695      1.0  0.93888  0.37279  0.23364  1.0000
  C   C696      1.0  0.91141  0.35664  0.27771  1.0000
  H   H687      1.0  0.95399  0.23875  0.06345  1.0000
  C   C697      1.0  0.92295  0.37732  0.29658  1.0000
  C   C698      1.0  0.93687  0.22701  0.07300  1.0000
  C   C699      1.0  0.90689  0.33306  0.22672  1.0000
  C   C700      1.0  0.95734  0.46734  0.01376  1.0000
  H   H688      1.0  0.89630  0.34209  0.28843  1.0000
  H   H689      1.0  0.96799  0.18035  0.14819  1.0000
  C   C701      1.0  0.96846  0.48690  0.03533  1.0000
  H   H690      1.0  0.97659  0.41228  0.00341  1.0000
  C   C702      1.0  0.81294  0.15242  0.45440  1.0000
  H   H691      1.0  0.78515  0.16488  0.15352  1.0000
  H   H692      1.0  0.89589  0.33571  0.20796  1.0000
  N   N61       1.0  0.80488  0.13105  0.21380  1.0000
  C   C703      1.0  0.80938  0.15361  0.22137  1.0000
  C   C704      1.0  0.79358  0.12043  0.18485  1.0000
  C   C705      1.0  0.80211  0.16600  0.20003  1.0000
  C   C706      1.0  0.78594  0.13227  0.16305  1.0000
  C   C707      1.0  0.79024  0.15519  0.17079  1.0000
  C   C708      1.0  0.81320  0.11875  0.23630  1.0000
  H   H693      1.0  0.81886  0.16221  0.24387  1.0000
  H   H694      1.0  0.79057  0.10280  0.17824  1.0000
  H   H695      1.0  0.80613  0.18407  0.20569  1.0000
  H   H696      1.0  0.77740  0.12404  0.13974  1.0000
  C   C709      1.0  0.83456  0.13190  0.47271  1.0000
  H   H697      1.0  0.80515  0.09959  0.23090  1.0000
  H   H698      1.0  0.83234  0.12618  0.23400  1.0000
  H   H699      1.0  0.80901  0.12099  0.26277  1.0000
  H   H700      1.0  0.87694  0.18535  0.10938  1.0000
  H   H701      1.0  0.94533  0.19897  0.08197  1.0000
  H   H702      1.0  0.73533  0.02580  0.38477  1.0000
  C   C710      1.0  0.97435  0.46085  0.49261  1.0000
  C   C711      1.0  0.91979  0.23438  0.07541  1.0000
  C   C712      1.0  0.97316  0.23525  0.13988  1.0000
  C   C713      1.0  0.96033  0.48011  0.27004  1.0000
  H   H703      1.0  0.83704  0.12941  0.44564  1.0000
  C   C714      1.0  0.90557  0.16638  0.10839  1.0000
  H   H704      1.0  0.95179  0.41223  0.29756  1.0000
  H   H705      1.0  0.82150  0.11487  0.48309  1.0000
  C   C715      1.0  0.89375  0.19687  0.09893  1.0000
  N   N62       1.0  0.91066  0.18990  0.09699  1.0000
  H   H706      1.0  0.79326  0.17039  0.44085  1.0000
  H   H707      1.0  0.91677  0.37863  0.32149  1.0000
  S   S237      1.0  0.72955  0.06556  0.00708  1.0000
  H   H708      1.0  0.88451  0.22461  0.09042  1.0000
  H   H709      1.0  0.96473  0.24571  0.14739  1.0000
  H   H710      1.0  0.80834  0.14183  0.43170  1.0000
  H   H711      1.0  0.92347  0.25190  0.06763  1.0000
  Fe  Fe115     1.0  0.97267  0.42392  0.42028  1.0000
  C   C716      1.0  0.94268  0.39601  0.28339  1.0000
  C   C717      1.0  0.96895  0.46714  0.28816  1.0000
  H   H712      1.0  0.96629  0.40828  0.24171  1.0000
  H   H713      1.0  0.93561  0.47498  0.46109  1.0000
  H   H714      1.0  0.85133  0.13704  0.48543  1.0000
  C   C718      1.0  0.93704  0.48704  0.48137  1.0000
  H   H715      1.0  0.95965  0.48853  0.05756  1.0000
  H   H716      1.0  0.97391  0.34403  0.36964  1.0000
  C   C719      1.0  0.96912  0.30697  0.43263  1.0000
  H   H717      1.0  0.94517  0.48128  0.27915  1.0000
  H   H718      1.0  0.80264  0.19403  0.49369  1.0000
  C   C720      1.0  0.80962  0.18182  0.48908  1.0000
  H   H719      1.0  0.97901  0.44050  0.04827  1.0000
  S   S238      1.0  0.95441  0.43874  0.96033  1.0000
  S   S239      1.0  0.95145  0.41397  0.86799  1.0000
  H   H720      1.0  0.90308  0.46507  0.50087  1.0000
  C   C721      1.0  0.91879  0.37423  0.79516  1.0000
  Fe  Fe116     1.0  0.95596  0.38151  0.87444  1.0000
  S   S240      1.0  0.92665  0.34481  0.86515  1.0000
  Fe  Fe117     1.0  0.90714  0.20765  0.69274  1.0000
  S   S241      1.0  0.89644  0.23295  0.67035  1.0000
  S   S242      1.0  0.93255  0.19502  0.67332  1.0000
  Fe  Fe118     1.0  0.87204  0.19562  0.75126  1.0000
  S   S243      1.0  0.85928  0.22074  0.73336  1.0000
  S   S244      1.0  0.86315  0.17396  0.79923  1.0000
  Fe  Fe119     1.0  0.85984  0.20583  0.68169  1.0000
  S   S245      1.0  0.82968  0.19536  0.64544  1.0000
  Fe  Fe120     1.0  0.89695  0.24564  0.72363  1.0000
  S   S246      1.0  0.91734  0.28514  0.73308  1.0000
  S   S247      1.0  0.87038  0.17956  0.70045  1.0000
  S   S248      1.0  0.90973  0.22161  0.74514  1.0000
  H   H721      1.0  0.91922  0.16808  0.73553  1.0000
  H   H722      1.0  0.95090  0.40619  0.79357  1.0000
  H   H723      1.0  0.95162  0.48946  0.78659  1.0000
  S   S249      1.0  0.75426  0.11881  0.97481  1.0000
  S   S250      1.0  0.79342  0.10888  0.54217  1.0000
  Fe  Fe121     1.0  0.75679  0.10150  0.92631  1.0000
  S   S251      1.0  0.76646  0.12045  0.87599  1.0000
  C   C722      1.0  0.91274  0.34697  0.74958  1.0000
  S   S252      1.0  0.76984  0.07803  0.94962  1.0000
  C   C723      1.0  0.81930  0.17066  0.61785  1.0000
  C   C724      1.0  0.83020  0.15634  0.61483  1.0000
  C   C725      1.0  0.82172  0.13722  0.59207  1.0000
  C   C726      1.0  0.80230  0.13220  0.57200  1.0000
  C   C727      1.0  0.79130  0.14641  0.57516  1.0000
  C   C728      1.0  0.79978  0.16553  0.59795  1.0000
  H   H724      1.0  0.84530  0.16014  0.62981  1.0000
  H   H725      1.0  0.83041  0.12640  0.58971  1.0000
  H   H726      1.0  0.77636  0.14279  0.55989  1.0000
  H   H727      1.0  0.79119  0.17646  0.60015  1.0000
  C   C729      1.0  0.83574  0.15748  0.81866  1.0000
  C   C730      1.0  0.81534  0.15600  0.80527  1.0000
  C   C731      1.0  0.79419  0.14392  0.82269  1.0000
  C   C732      1.0  0.79316  0.13323  0.85364  1.0000
  C   C733      1.0  0.81347  0.13419  0.86657  1.0000
  C   C734      1.0  0.83463  0.14625  0.84913  1.0000
  H   H728      1.0  0.81587  0.16439  0.78174  1.0000
  H   H729      1.0  0.77855  0.14319  0.81240  1.0000
  H   H730      1.0  0.81295  0.12603  0.89030  1.0000
  H   H731      1.0  0.85029  0.14720  0.85965  1.0000
  C   C735      1.0  0.92588  0.32691  0.83055  1.0000
  C   C736      1.0  0.94357  0.33464  0.80652  1.0000
  C   C737      1.0  0.94125  0.32096  0.77758  1.0000
  C   C738      1.0  0.92137  0.29938  0.77250  1.0000
  C   C739      1.0  0.90411  0.29118  0.79719  1.0000
  C   C740      1.0  0.90635  0.30495  0.82604  1.0000
  H   H732      1.0  0.95868  0.35147  0.80969  1.0000
  H   H733      1.0  0.95465  0.32741  0.75855  1.0000
  H   H734      1.0  0.88864  0.27474  0.79335  1.0000
  H   H735      1.0  0.89260  0.29888  0.84453  1.0000
  H   H736      1.0  0.91073  0.14209  0.76072  1.0000
  H   H737      1.0  0.82728  0.18864  0.53651  1.0000
  C   C741      1.0  0.96890  0.23196  0.63839  1.0000
  C   C742      1.0  0.93432  0.36265  0.73635  1.0000
  C   C743      1.0  0.83181  0.16255  0.50704  1.0000
  H   H738      1.0  0.85054  0.23622  0.83169  1.0000
  H   H739      1.0  0.74426  0.01219  0.90611  1.0000
  C   C744      1.0  0.97061  0.19537  0.64423  1.0000
  C   C745      1.0  0.97167  0.47060  0.79072  1.0000
  C   C746      1.0  0.79431  0.18360  0.88148  1.0000
  C   C747      1.0  0.95908  0.20883  0.65048  1.0000
  S   S253      1.0  0.72943  0.06712  0.50844  1.0000
  H   H740      1.0  0.94728  0.44805  0.52997  1.0000
  Fe  Fe122     1.0  0.96955  0.42598  0.91779  1.0000
  H   H741      1.0  0.82633  0.11149  0.72954  1.0000
  H   H742      1.0  0.96017  0.24257  0.64302  1.0000
  H   H743      1.0  0.90261  0.32992  0.73773  1.0000
  C   C748      1.0  0.96873  0.46450  0.98525  1.0000
  H   H744      1.0  0.91325  0.37853  0.81884  1.0000
  H   H745      1.0  0.96477  0.46355  0.81512  1.0000
  H   H746      1.0  0.79210  0.16573  0.92765  1.0000
  H   H747      1.0  0.94048  0.35752  0.71394  1.0000
  H   H748      1.0  0.83262  0.10837  0.66842  1.0000
  C   C749      1.0  0.90505  0.35279  0.77929  1.0000
  H   H749      1.0  0.86410  0.21721  0.82888  1.0000
  C   C750      1.0  0.96382  0.46235  0.52285  1.0000
  N   N63       1.0  0.83223  0.20367  0.85667  1.0000
  C   C751      1.0  0.84720  0.21766  0.82926  1.0000
  C   C752      1.0  0.84147  0.19756  0.88312  1.0000
  H   H750      1.0  0.77575  0.17740  0.88000  1.0000
  C   C753      1.0  0.82726  0.18413  0.90931  1.0000
  C   C754      1.0  0.80352  0.17702  0.90831  1.0000
  H   H751      1.0  0.80166  0.20172  0.83466  1.0000
  H   H752      1.0  0.87285  0.12551  0.64582  1.0000
  H   H753      1.0  0.85979  0.20245  0.88359  1.0000
  C   C755      1.0  0.97055  0.39987  0.73875  1.0000
  H   H754      1.0  0.83444  0.17861  0.92969  1.0000
  H   H755      1.0  0.83897  0.21040  0.80469  1.0000
  C   C756      1.0  0.90466  0.15398  0.74952  1.0000
  H   H756      1.0  0.89986  0.16301  0.76984  1.0000
  S   S254      1.0  0.97087  0.39198  0.92613  1.0000
  C   C757      1.0  0.94015  0.38961  0.78103  1.0000
  C   C758      1.0  0.80903  0.19713  0.85581  1.0000
  Fe  Fe123     1.0  0.76587  0.09434  0.99862  1.0000
  H   H757      1.0  0.88888  0.34033  0.79070  1.0000
  N   N64       1.0  0.94768  0.38368  0.75207  1.0000
  N   N65       1.0  0.88491  0.14064  0.72744  1.0000
  C   C759      1.0  0.88858  0.13818  0.69413  1.0000
  C   C760      1.0  0.86290  0.13049  0.74035  1.0000
  C   C761      1.0  0.86986  0.12649  0.67243  1.0000
  C   C762      1.0  0.84377  0.11866  0.71939  1.0000
  C   C763      1.0  0.84731  0.11688  0.68515  1.0000
  H   H758      1.0  0.96591  0.48336  0.56681  1.0000
  H   H759      1.0  0.90604  0.14606  0.68391  1.0000
  H   H760      1.0  0.85998  0.13226  0.76682  1.0000
  H   H761      1.0  0.96330  0.17756  0.65328  1.0000
  H   H762      1.0  0.84186  0.15973  0.52631  1.0000
  Fe  Fe124     1.0  0.73216  0.05153  0.95614  1.0000
  C   C764      1.0  0.82351  0.17888  0.51300  1.0000
  C   C765      1.0  0.96423  0.48525  0.77448  1.0000
  H   H763      1.0  0.88806  0.47207  0.55141  1.0000
  C   C766      1.0  0.91883  0.48140  0.50424  1.0000
  H   H764      1.0  0.97419  0.39382  0.71427  1.0000
  H   H765      1.0  0.97176  0.41758  0.73528  1.0000
  Fe  Fe125     1.0  0.76476  0.09806  0.50306  1.0000
  C   C767      1.0  0.97433  0.48235  0.54379  1.0000
  C   C768      1.0  0.90184  0.49048  0.55428  1.0000
  Fe  Fe126     1.0  0.91060  0.67413  0.45802  1.0000
  S   S255      1.0  0.89646  0.63992  0.43016  1.0000
  S   S256      1.0  0.94961  0.69739  0.45456  1.0000
  H   H766      1.0  0.78655  0.60179  0.41997  1.0000
  S   S257      1.0  0.85203  0.61937  0.48110  1.0000
  S   S258      1.0  0.86010  0.67937  0.05312  1.0000
  Fe  Fe127     1.0  0.88838  0.62329  0.48077  1.0000
  H   H767      1.0  0.94997  0.68759  0.31938  1.0000
  Fe  Fe128     1.0  0.86179  0.63945  0.43266  1.0000
  S   S259      1.0  0.83529  0.62347  0.39083  1.0000
  H   H768      1.0  0.96566  0.74133  0.34871  1.0000
  S   S260      1.0  0.87636  0.67543  0.45656  1.0000
  Fe  Fe129     1.0  0.75518  0.64038  0.18620  1.0000
  S   S261      1.0  0.77318  0.67653  0.20921  1.0000
  S   S262      1.0  0.76900  0.62628  0.14330  1.0000
  Fe  Fe130     1.0  0.76344  0.65731  0.25834  1.0000
  S   S263      1.0  0.79110  0.67255  0.29886  1.0000
  H   H769      1.0  0.89195  0.55288  0.03005  1.0000
  S   S264      1.0  0.74661  0.62097  0.23536  1.0000
  Fe  Fe131     1.0  0.96168  0.56075  0.12605  1.0000
  S   S265      1.0  0.93182  0.56870  0.11523  1.0000
  H   H770      1.0  0.77418  0.59989  0.46147  1.0000
  H   H771      1.0  0.88073  0.52122  0.02968  1.0000
  C   C769      1.0  0.74046  0.76680  0.17231  1.0000
  S   S266      1.0  0.95714  0.52374  0.12342  1.0000
  S   S267      1.0  0.91232  0.67455  0.00905  1.0000
  C   C770      1.0  0.81928  0.67190  0.47380  1.0000
  H   H772      1.0  0.93002  0.66500  0.36974  1.0000
  N   N66       1.0  0.79816  0.63433  0.44666  1.0000
  Fe  Fe132     1.0  0.87494  0.66748  0.00860  1.0000
  C   C771      1.0  0.94485  0.60396  0.02730  1.0000
  C   C772      1.0  0.94770  0.59292  0.05582  1.0000
  C   C773      1.0  0.93148  0.58640  0.08189  1.0000
  C   C774      1.0  0.91309  0.59209  0.07991  1.0000
  C   C775      1.0  0.91048  0.60351  0.05166  1.0000
  C   C776      1.0  0.79898  0.66876  0.42230  1.0000
  H   H773      1.0  0.96193  0.58865  0.05707  1.0000
  H   H774      1.0  0.90047  0.58710  0.09999  1.0000
  H   H775      1.0  0.89592  0.60727  0.05007  1.0000
  C   C777      1.0  0.83387  0.66433  0.07631  1.0000
  C   C778      1.0  0.82731  0.67722  0.09902  1.0000
  C   C779      1.0  0.80725  0.66600  0.11915  1.0000
  C   C780      1.0  0.79356  0.64164  0.11696  1.0000
  C   C781      1.0  0.79998  0.62877  0.09404  1.0000
  C   C782      1.0  0.81998  0.64002  0.07380  1.0000
  H   H776      1.0  0.83789  0.69604  0.10113  1.0000
  H   H777      1.0  0.80257  0.67616  0.13659  1.0000
  H   H778      1.0  0.78951  0.60993  0.09207  1.0000
  H   H779      1.0  0.82479  0.62984  0.05654  1.0000
  C   C783      1.0  0.82430  0.63766  0.36393  1.0000
  C   C784      1.0  0.80587  0.62386  0.34244  1.0000
  C   C785      1.0  0.79567  0.63423  0.32197  1.0000
  C   C786      1.0  0.80388  0.65857  0.32280  1.0000
  C   C787      1.0  0.82253  0.67240  0.34392  1.0000
  C   C788      1.0  0.83273  0.66202  0.36440  1.0000
  H   H780      1.0  0.79926  0.60498  0.34192  1.0000
  H   H781      1.0  0.78127  0.62337  0.30596  1.0000
  H   H782      1.0  0.82904  0.69126  0.34464  1.0000
  H   H783      1.0  0.84691  0.67284  0.38079  1.0000
  C   C789      1.0  0.96683  0.71362  0.42034  1.0000
  C   C790      1.0  0.92607  0.60900  0.02491  1.0000
  C   C791      1.0  0.95787  0.72134  0.39435  1.0000
  C   C792      1.0  0.81310  0.68252  0.44828  1.0000
  H   H784      1.0  0.93980  0.71735  0.39473  1.0000
  C   C793      1.0  0.97117  0.49160  0.24030  1.0000
  C   C794      1.0  0.79152  0.64452  0.42200  1.0000
  Fe  Fe133     1.0  0.73781  0.67492  0.21127  1.0000
  H   H785      1.0  0.97870  0.54941  0.26219  1.0000
  C   C795      1.0  0.81151  0.64761  0.47270  1.0000
  N   N67       1.0  0.81601  0.63789  0.19859  1.0000
  C   C796      1.0  0.81407  0.65096  0.22465  1.0000
  C   C797      1.0  0.83258  0.64828  0.17440  1.0000
  C   C798      1.0  0.82843  0.67522  0.22634  1.0000
  C   C799      1.0  0.84723  0.67250  0.17530  1.0000
  C   C800      1.0  0.84500  0.68604  0.20135  1.0000
  C   C801      1.0  0.80094  0.61246  0.19744  1.0000
  H   H786      1.0  0.80121  0.64274  0.24419  1.0000
  H   H787      1.0  0.83409  0.63799  0.15359  1.0000
  H   H788      1.0  0.82651  0.68554  0.24680  1.0000
  H   H789      1.0  0.85982  0.68071  0.15538  1.0000
  H   H790      1.0  0.85600  0.70489  0.20209  1.0000
  H   H791      1.0  0.78324  0.60818  0.20653  1.0000
  H   H792      1.0  0.79874  0.60558  0.17128  1.0000
  H   H793      1.0  0.80827  0.60334  0.21302  1.0000
  H   H794      1.0  0.81933  0.70140  0.44857  1.0000
  C   C802      1.0  0.95059  0.53434  0.03554  1.0000
  C   C803      1.0  0.94782  0.66888  0.36445  1.0000
  H   H795      1.0  0.79426  0.67682  0.40205  1.0000
  H   H796      1.0  0.83023  0.68242  0.49419  1.0000
  H   H797      1.0  0.78096  0.63403  0.40129  1.0000
  H   H798      1.0  0.75558  0.76398  0.17501  1.0000
  C   C804      1.0  0.73210  0.71119  0.13753  1.0000
  H   H799      1.0  0.89407  0.53857  0.06678  1.0000
  S   S268      1.0  0.95972  0.50791  0.21878  1.0000
  H   H800      1.0  0.80371  0.60466  0.45560  1.0000
  H   H801      1.0  0.73995  0.72365  0.08683  1.0000
  C   C805      1.0  0.89485  0.53809  0.03893  1.0000
  S   S269      1.0  0.90712  0.60113  0.48381  1.0000
  H   H802      1.0  0.95129  0.65266  0.40938  1.0000
  Fe  Fe134     1.0  0.97490  0.53163  0.17356  1.0000
  C   C806      1.0  0.92935  0.53251  0.04660  1.0000
  C   C807      1.0  0.95923  0.68174  0.33610  1.0000
  C   C808      1.0  0.79010  0.60889  0.44603  1.0000
  H   H803      1.0  0.74759  0.70909  0.14016  1.0000
  S   S270      1.0  0.72980  0.65920  0.26248  1.0000
  H   H804      1.0  0.97199  0.51219  0.46861  1.0000
  C   C809      1.0  0.95947  0.54438  0.00461  1.0000
  S   S271      1.0  0.97635  0.56730  0.17810  1.0000
  H   H805      1.0  0.92276  0.52502  0.07099  1.0000
  H   H806      1.0  0.95701  0.60819  0.00672  1.0000
  N   N68       1.0  0.91734  0.54061  0.02735  1.0000
  H   H807      1.0  0.81645  0.63954  0.49266  1.0000
  H   H808      1.0  0.96028  0.52819  0.05088  1.0000
  C   C810      1.0  0.97256  0.73494  0.36833  1.0000
  H   H809      1.0  0.74741  0.77705  0.12057  1.0000
  C   C811      1.0  0.95748  0.50793  0.48556  1.0000
  C   C812      1.0  0.73591  0.77417  0.14183  1.0000
  C   C813      1.0  0.95980  0.66194  0.38672  1.0000
  H   H810      1.0  0.94639  0.64688  0.49787  1.0000
  Fe  Fe135     1.0  0.91538  0.68924  0.95752  1.0000
  S   S272      1.0  0.90457  0.65488  0.93120  1.0000
  S   S273      1.0  0.94985  0.72071  0.94489  1.0000
  H   H811      1.0  0.79050  0.60672  0.92430  1.0000
  C   C814      1.0  0.96859  0.75045  0.81649  1.0000
  S   S274      1.0  0.85168  0.66858  0.54637  1.0000
  C   C815      1.0  0.94248  0.63247  0.56230  1.0000
  H   H812      1.0  0.74358  0.98264  0.86449  1.0000
  Fe  Fe136     1.0  0.86822  0.64994  0.93647  1.0000
  S   S275      1.0  0.84181  0.63291  0.89480  1.0000
  C   C816      1.0  0.94702  0.55244  0.98500  1.0000
  S   S276      1.0  0.87923  0.68578  0.95906  1.0000
  Fe  Fe137     1.0  0.75861  0.63313  0.69260  1.0000
  S   S277      1.0  0.77489  0.67231  0.69990  1.0000
  S   S278      1.0  0.76895  0.61554  0.65020  1.0000
  Fe  Fe138     1.0  0.77847  0.66411  0.75375  1.0000
  S   S279      1.0  0.81086  0.68414  0.78525  1.0000
  H   H813      1.0  0.95548  0.67288  0.52371  1.0000
  S   S280      1.0  0.76405  0.62541  0.74575  1.0000
  Fe  Fe139     1.0  0.95011  0.54479  0.61842  1.0000
  S   S281      1.0  0.91537  0.54151  0.60323  1.0000
  C   C817      1.0  0.85400  0.67192  0.65533  1.0000
  C   C818      1.0  0.97083  0.70552  0.85576  1.0000
  H   H814      1.0  0.74452  0.60824  0.84907  1.0000
  S   S282      1.0  0.95716  0.51390  0.62500  1.0000
  Fe  Fe140     1.0  0.90024  0.63981  0.98279  1.0000
  C   C819      1.0  0.84097  0.64797  0.66206  1.0000
  C   C820      1.0  0.75898  0.65451  0.85089  1.0000
  H   H815      1.0  0.96285  0.69412  0.83444  1.0000
  Fe  Fe141     1.0  0.97406  0.53134  0.67366  1.0000
  C   C821      1.0  0.92887  0.58177  0.52044  1.0000
  C   C822      1.0  0.93130  0.56907  0.54707  1.0000
  C   C823      1.0  0.91381  0.55934  0.57120  1.0000
  C   C824      1.0  0.89428  0.56319  0.56918  1.0000
  C   C825      1.0  0.89223  0.57666  0.54313  1.0000
  N   N69       1.0  0.82697  0.64066  0.68977  1.0000
  H   H816      1.0  0.94652  0.56649  0.54842  1.0000
  H   H817      1.0  0.88064  0.55563  0.58773  1.0000
  H   H818      1.0  0.87706  0.57940  0.54155  1.0000
  C   C826      1.0  0.82751  0.65315  0.57316  1.0000
  C   C827      1.0  0.81984  0.66615  0.59379  1.0000
  C   C828      1.0  0.80175  0.65491  0.61714  1.0000
  C   C829      1.0  0.79093  0.63044  0.61990  1.0000
  C   C830      1.0  0.79821  0.61738  0.59867  1.0000
  C   C831      1.0  0.81644  0.62865  0.57546  1.0000
  H   H819      1.0  0.82823  0.68511  0.59215  1.0000
  H   H820      1.0  0.79632  0.66520  0.63315  1.0000
  H   H821      1.0  0.78988  0.59842  0.60050  1.0000
  H   H822      1.0  0.82213  0.61839  0.55978  1.0000
  C   C832      1.0  0.83452  0.64782  0.86373  1.0000
  C   C833      1.0  0.81763  0.63444  0.83998  1.0000
  C   C834      1.0  0.81014  0.64533  0.81608  1.0000
  C   C835      1.0  0.81975  0.66982  0.81525  1.0000
  C   C836      1.0  0.83688  0.68327  0.83873  1.0000
  C   C837      1.0  0.84414  0.67233  0.86304  1.0000
  H   H823      1.0  0.81005  0.61547  0.84037  1.0000
  H   H824      1.0  0.79698  0.63469  0.79832  1.0000
  H   H825      1.0  0.84442  0.70223  0.83834  1.0000
  H   H826      1.0  0.85706  0.68284  0.88131  1.0000
  S   S283      1.0  0.96481  0.51482  0.72523  1.0000
  H   H827      1.0  0.94975  0.67194  0.97074  1.0000
  C   C838      1.0  0.81354  0.61549  0.69649  1.0000
  H   H828      1.0  0.93913  0.69156  0.88468  1.0000
  H   H829      1.0  0.97603  0.54593  0.99610  1.0000
  C   C839      1.0  0.78433  0.65283  0.89447  1.0000
  C   C840      1.0  0.96712  0.71950  0.91119  1.0000
  C   C841      1.0  0.82620  0.65674  0.71196  1.0000
  C   C842      1.0  0.85273  0.68841  0.67727  1.0000
  N   N70       1.0  0.96194  0.64599  0.54406  1.0000
  C   C843      1.0  0.97318  0.49476  0.74292  1.0000
  H   H830      1.0  0.79693  0.61165  0.70929  1.0000
  H   H831      1.0  0.97646  0.66754  0.50065  1.0000
  C   C844      1.0  0.75784  0.61737  0.86768  1.0000
  H   H832      1.0  0.95967  0.76963  0.90514  1.0000
  C   C845      1.0  0.73607  0.71289  0.64980  1.0000
  H   H833      1.0  0.75899  0.58574  0.88289  1.0000
  Fe  Fe142     1.0  0.86754  0.65532  0.50509  1.0000
  C   C846      1.0  0.83887  0.68082  0.70590  1.0000
  H   H834      1.0  0.80863  0.60507  0.67277  1.0000
  C   C847      1.0  0.94103  0.51659  0.53491  1.0000
  H   H835      1.0  0.86235  0.70703  0.67199  1.0000
  N   N71       1.0  0.92104  0.49612  0.53066  1.0000
  H   H836      1.0  0.82366  0.60952  0.71236  1.0000
  C   C848      1.0  0.73575  0.72760  0.62414  1.0000
  H   H837      1.0  0.86440  0.67757  0.63264  1.0000
  S   S284      1.0  0.90291  0.65747  0.50879  1.0000
  H   H838      1.0  0.97567  0.53872  0.51666  1.0000
  H   H839      1.0  0.84157  0.63526  0.64439  1.0000
  C   C849      1.0  0.92577  0.55027  0.99674  1.0000
  S   S285      1.0  0.74424  0.66193  0.76849  1.0000
  H   H840      1.0  0.80693  0.64982  0.93133  1.0000
  C   C850      1.0  0.96008  0.65897  0.51525  1.0000
  N   N72       1.0  0.76688  0.64117  0.87200  1.0000
  C   C851      1.0  0.96486  0.62102  0.59869  1.0000
  C   C852      1.0  0.90938  0.58563  0.51838  1.0000
  H   H841      1.0  0.81562  0.65105  0.73441  1.0000
  H   H842      1.0  0.77064  0.66130  0.82886  1.0000
  H   H843      1.0  0.75123  0.71038  0.65348  1.0000
  H   H844      1.0  0.83778  0.69345  0.72329  1.0000
  C   C853      1.0  0.94363  0.61974  0.58980  1.0000
  H   H845      1.0  0.94276  0.52805  0.55602  1.0000
  H   H846      1.0  0.79229  0.67182  0.89671  1.0000
  S   S286      1.0  0.86240  0.63124  0.98596  1.0000
  H   H847      1.0  0.93252  0.72461  0.81907  1.0000
  C   C854      1.0  0.76590  0.60453  0.88676  1.0000
  C   C855      1.0  0.78341  0.61624  0.91016  1.0000
  H   H848      1.0  0.96601  0.61104  0.61973  1.0000
  H   H849      1.0  0.97123  0.74415  0.79228  1.0000
  S   S287      1.0  0.96373  0.56012  0.66879  1.0000
  H   H850      1.0  0.74101  0.64339  0.84183  1.0000
  C   C856      1.0  0.79263  0.64052  0.91418  1.0000
  C   C857      1.0  0.95736  0.70397  0.88428  1.0000
  C   C858      1.0  0.96190  0.76467  0.87977  1.0000
  C   C859      1.0  0.94338  0.74637  0.86346  1.0000
  C   C860      1.0  0.96853  0.67774  0.97401  1.0000
  C   C861      1.0  0.94666  0.73927  0.83153  1.0000
  H   H851      1.0  0.96655  0.64541  0.86959  1.0000
  H   H852      1.0  0.92805  0.60849  0.60363  1.0000
  C   C862      1.0  0.95954  0.52283  0.51251  1.0000
  H   H853      1.0  0.92677  0.73719  0.87611  1.0000
  H   H854      1.0  0.92582  0.63098  0.55504  1.0000
  H   H855      1.0  0.75072  0.73633  0.60800  1.0000
  H   H856      1.0  0.75896  0.66959  0.86487  1.0000
  H   H857      1.0  0.97052  0.66600  0.99247  1.0000
  H   H858      1.0  0.94900  0.64695  0.92437  1.0000
  C   C863      1.0  0.97671  0.65853  0.88818  1.0000
  H   H859      1.0  0.95384  0.56045  0.96100  1.0000
  H   H860      1.0  0.94219  0.58871  0.50134  1.0000
  Fe  Fe143     1.0  0.73867  0.66572  0.71403  1.0000
  H   H861      1.0  0.97600  0.69600  0.98410  1.0000
  C   C864      1.0  0.96682  0.65962  0.91904  1.0000
  S   S288      1.0  0.92143  0.61987  0.98682  1.0000
  H   H862      1.0  0.89411  0.50254  0.55047  1.0000
  H   H863      1.0  0.90818  0.49282  0.58052  1.0000
  H   H864      1.0  0.91634  0.55690  0.98163  1.0000
  Fe  Fe144     1.0  0.72927  0.62334  0.75785  1.0000
