data_image0
_chemical_formula_structural       CH5CHC2SC2NH2CHCNH3C2HC2HCH2CHCNCH4C4H4CSHCH3C3HC2HCHC2SNCH2C2H15C2H2C3NC5NC2SHCNHFeSHFeHCFeCFeCSHCSFeSCFeSFeSHCHCHCHSC2H2SCHCHSCHSH3C4HCH2C2H2CNCHCSHSH2C3HCHCFeS2CSHC2FeSH2SCFeSFeSC7H4FeSFeSHFeHFeSCS2HNHCNFeCH2C3HCHCHC2SH3NC2H3C2H2C2HCHS2HSHCH3C3HSHCH2FeSCFeC2FeHFeSH2FeS2FeSCFeSFeS2H2C3NC3H2C4H2SH2C3SCH3CHC3HC2SCH2CNSCHSH3C2HCHCSH2CHCH2C2SHC2SHC3HC2FeS2FeH2CSH2FeSFeS2FeHFeHS2C4SC2SC7H5C3HC2H2CH3C3SCH5Fe2CNSNSCHCHCH2SHC2H2C2HNHC2H5C2H2CSFeCFeSCFe2HSH3C3HC3HCFeCHCNSFeCS2C3SCH2CHFeSCH2SNSC3H2CHCH4C4SFeCSCSHSH5CHCH3FeSFeS2FeHFeCS2FeH2CH2FeS2NC4HS2HC6H5CSHFeSHCH2CHC3H2C2HCHCHC3HCSH2CSC3NH3C2HFeH2C2HCHC2SCH3C2H2C4H2SH3C2HSCH2C4SH3NSCH3SHCHCNH2C2H3C2HCH2CH3CHCH3CN2HC3H4C4HC
_chemical_formula_sum              "C288 H288 S96 N24 Fe48"
_cell_length_a       37.6763
_cell_length_b       37.827
_cell_length_c       40.8384
_cell_angle_alpha    90.492
_cell_angle_beta     89.8539
_cell_angle_gamma    120.094

_space_group_name_H-M_alt    "P 1"
_space_group_IT_number       1

loop_
  _space_group_symop_operation_xyz
  'x, y, z'

loop_
  _atom_site_type_symbol
  _atom_site_label
  _atom_site_symmetry_multiplicity
  _atom_site_fract_x
  _atom_site_fract_y
  _atom_site_fract_z
  _atom_site_occupancy
  C   C1        1.0  0.48065  0.01024  0.23298  1.0000
  H   H1        1.0  0.04611  0.37456  0.04604  1.0000
  H   H2        1.0  0.01161  0.43409  0.11891  1.0000
  H   H3        1.0  0.47644  0.43798  0.04781  1.0000
  H   H4        1.0  0.13380  0.45535  0.11676  1.0000
  H   H5        1.0  0.45250  0.10788  0.07972  1.0000
  C   C2        1.0  0.42897  0.15795  0.05464  1.0000
  H   H6        1.0  0.39651  0.41967  0.15610  1.0000
  C   C3        1.0  0.05356  0.39418  0.06748  1.0000
  C   C4        1.0  0.45743  0.46568  0.08553  1.0000
  S   S1        1.0  0.40804  0.48388  0.29502  1.0000
  C   C5        1.0  0.40248  0.41868  0.18197  1.0000
  C   C6        1.0  0.10267  0.43980  0.10737  1.0000
  N   N1        1.0  0.07342  0.44649  0.12120  1.0000
  H   H7        1.0  0.11704  0.40951  0.06897  1.0000
  H   H8        1.0  0.43848  0.18935  0.04615  1.0000
  C   C7        1.0  0.09324  0.41359  0.08037  1.0000
  H   H9        1.0  0.43407  0.16024  0.08160  1.0000
  C   C8        1.0  0.02391  0.40126  0.08168  1.0000
  N   N2        1.0  0.45291  0.14213  0.03827  1.0000
  H   H10       1.0  0.25654  0.48315  0.08434  1.0000
  H   H11       1.0  0.39581  0.13756  0.04955  1.0000
  H   H12       1.0  0.42508  0.44456  0.08173  1.0000
  C   C9        1.0  0.37917  0.39157  0.23598  1.0000
  C   C10       1.0  0.03449  0.42779  0.10862  1.0000
  H   H13       1.0  0.35493  0.37149  0.25251  1.0000
  C   C11       1.0  0.46176  0.11590  0.05442  1.0000
  C   C12       1.0  0.37126  0.39162  0.20263  1.0000
  H   H14       1.0  0.05830  0.46746  0.16485  1.0000
  C   C13       1.0  0.44113  0.44583  0.19510  1.0000
  H   H15       1.0  0.99327  0.38733  0.07134  1.0000
  H   H16       1.0  0.42394  0.41910  0.27427  1.0000
  C   C14       1.0  0.46489  0.15245  0.00644  1.0000
  H   H17       1.0  0.34082  0.37135  0.19290  1.0000
  C   C15       1.0  0.08464  0.47621  0.14802  1.0000
  N   N3        1.0  0.44871  0.44535  0.22779  1.0000
  C   C16       1.0  0.41836  0.41865  0.24817  1.0000
  H   H18       1.0  0.47042  0.02467  0.21559  1.0000
  H   H19       1.0  0.41048  0.47665  0.00267  1.0000
  H   H20       1.0  0.11045  0.47844  0.16278  1.0000
  H   H21       1.0  0.46477  0.46782  0.17904  1.0000
  C   C17       1.0  0.48355  0.09964  0.03876  1.0000
  C   C18       1.0  0.44620  0.48518  0.32164  1.0000
  C   C19       1.0  0.48649  0.46180  0.06625  1.0000
  C   C20       1.0  0.44266  0.48953  0.99670  1.0000
  H   H22       1.0  0.45813  0.17349  0.99370  1.0000
  H   H23       1.0  0.02037  0.45649  0.48383  1.0000
  H   H24       1.0  0.45405  0.42944  0.38435  1.0000
  H   H25       1.0  0.23607  0.46602  0.61482  1.0000
  C   C21       1.0  0.44480  0.00730  0.40288  1.0000
  S   S2        1.0  0.48417  0.04238  0.56348  1.0000
  H   H26       1.0  0.47995  0.43560  0.63221  1.0000
  C   C22       1.0  0.42303  0.99704  0.64041  1.0000
  H   H27       1.0  0.03533  0.43369  0.40199  1.0000
  H   H28       1.0  0.43295  0.01826  0.62015  1.0000
  H   H29       1.0  0.47474  0.23145  0.51370  1.0000
  C   C23       1.0  0.00890  0.46610  0.46353  1.0000
  C   C24       1.0  0.47468  0.02192  0.42740  1.0000
  C   C25       1.0  0.46995  0.48799  0.58644  1.0000
  H   H30       1.0  0.43790  0.46661  0.58153  1.0000
  C   C26       1.0  0.46368  0.45327  0.36628  1.0000
  C   C27       1.0  0.06272  0.46257  0.39404  1.0000
  H   H31       1.0  0.40238  0.43163  0.34787  1.0000
  C   C28       1.0  0.01971  0.46226  0.34895  1.0000
  H   H32       1.0  0.00192  0.42916  0.35012  1.0000
  C   C29       1.0  0.45219  0.99349  0.37327  1.0000
  C   C30       1.0  0.43443  0.45460  0.34550  1.0000
  S   S3        1.0  0.48609  0.11198  0.62982  1.0000
  N   N4        1.0  0.05121  0.48412  0.37047  1.0000
  C   C31       1.0  0.24016  0.48976  0.63196  1.0000
  H   H33       1.0  0.08524  0.45538  0.38280  1.0000
  H   H34       1.0  0.07641  0.48136  0.41655  1.0000
  C   C32       1.0  0.45784  0.42864  0.65260  1.0000
  C   C33       1.0  0.00901  0.48228  0.32575  1.0000
  H   H35       1.0  0.46918  0.03232  0.45071  1.0000
  H   H36       1.0  0.43161  0.43100  0.64272  1.0000
  H   H37       1.0  0.08900  0.43159  0.64541  1.0000
  H   H38       1.0  0.41585  0.00634  0.40686  1.0000
  H   H39       1.0  0.00554  0.46242  0.74160  1.0000
  H   H40       1.0  0.41494  0.45371  0.81133  1.0000
  H   H41       1.0  0.03402  0.40115  0.68737  1.0000
  H   H42       1.0  0.42011  0.43087  0.70680  1.0000
  H   H43       1.0  0.45533  0.04724  0.78702  1.0000
  H   H44       1.0  0.02430  0.42837  0.75197  1.0000
  H   H45       1.0  0.42722  0.41441  0.95196  1.0000
  H   H46       1.0  0.41350  0.03718  0.67266  1.0000
  H   H47       1.0  0.28327  0.48263  0.66223  1.0000
  H   H48       1.0  0.42836  0.45133  0.92379  1.0000
  H   H49       1.0  0.41809  0.40348  0.84835  1.0000
  C   C34       1.0  0.45249  0.45361  0.70669  1.0000
  C   C35       1.0  0.01399  0.44021  0.73151  1.0000
  H   H50       1.0  0.45032  0.47692  0.75467  1.0000
  H   H51       1.0  0.00014  0.47216  0.97268  1.0000
  C   C36       1.0  0.44115  0.46326  0.82724  1.0000
  C   C37       1.0  0.08373  0.45103  0.66206  1.0000
  C   C38       1.0  0.47649  0.44663  0.86969  1.0000
  N   N5        1.0  0.04621  0.45879  0.70661  1.0000
  C   C39       1.0  0.44297  0.43485  0.84839  1.0000
  C   C40       1.0  0.05283  0.43412  0.68580  1.0000
  C   C41       1.0  0.46193  0.02568  0.77482  1.0000
  C   C42       1.0  0.99567  0.47251  0.94656  1.0000
  C   C43       1.0  0.46933  0.47967  0.73377  1.0000
  N   N6        1.0  0.45448  0.47502  0.97051  1.0000
  C   C44       1.0  0.41165  0.00772  0.66987  1.0000
  C   C45       1.0  0.47988  0.03479  0.74350  1.0000
  S   S4        1.0  0.47606  0.40982  0.89689  1.0000
  H   H52       1.0  0.39194  0.43316  0.95676  1.0000
  C   C46       1.0  0.42381  0.44188  0.94990  1.0000
  N   N7        1.0  0.47637  0.45700  0.68029  1.0000
  H   H53       1.0  0.44673  0.39679  0.66055  1.0000
  Fe  Fe1       1.0  0.35196  0.53728  0.20649  1.0000
  S   S5        1.0  0.40380  0.57957  0.17439  1.0000
  H   H54       1.0  0.46272  0.53152  0.03794  1.0000
  Fe  Fe2       1.0  0.41087  0.52345  0.25152  1.0000
  H   H55       1.0  0.47234  0.66137  0.29620  1.0000
  C   C47       1.0  0.25029  0.49789  0.10456  1.0000
  Fe  Fe3       1.0  0.43793  0.60669  0.22172  1.0000
  C   C48       1.0  0.03867  0.53385  0.16634  1.0000
  Fe  Fe4       1.0  0.42621  0.53445  0.17723  1.0000
  C   C49       1.0  0.47911  0.96357  0.01889  1.0000
  S   S6        1.0  0.38507  0.56590  0.25376  1.0000
  H   H56       1.0  0.29540  0.49644  0.13650  1.0000
  C   C50       1.0  0.45236  0.98064  0.25480  1.0000
  S   S7        1.0  0.09419  0.58169  0.02489  1.0000
  Fe  Fe5       1.0  0.15444  0.52770  0.05019  1.0000
  S   S8        1.0  0.15116  0.57438  0.08218  1.0000
  C   C51       1.0  0.01092  0.50986  0.14181  1.0000
  Fe  Fe6       1.0  0.08386  0.54133  0.06872  1.0000
  S   S9        1.0  0.16860  0.56415  0.00405  1.0000
  Fe  Fe7       1.0  0.16190  0.60929  0.03487  1.0000
  S   S10       1.0  0.21101  0.67622  0.02842  1.0000
  H   H57       1.0  0.31249  0.61919  0.17081  1.0000
  C   C52       1.0  0.47092  0.71023  0.32314  1.0000
  H   H58       1.0  0.34168  0.67801  0.27511  1.0000
  C   C53       1.0  0.46832  0.68768  0.29464  1.0000
  H   H59       1.0  0.09386  0.50674  0.13775  1.0000
  C   C54       1.0  0.46487  0.96135  0.27767  1.0000
  H   H60       1.0  0.02224  0.54056  0.30677  1.0000
  S   S11       1.0  0.02520  0.51315  0.09976  1.0000
  C   C55       1.0  0.46244  0.70033  0.26403  1.0000
  C   C56       1.0  0.28331  0.59997  0.06521  1.0000
  H   H61       1.0  0.27278  0.75766  0.00989  1.0000
  H   H62       1.0  0.36036  0.65568  0.15149  1.0000
  S   S12       1.0  0.46634  0.56582  0.22155  1.0000
  C   C57       1.0  0.33186  0.62561  0.14860  1.0000
  H   H63       1.0  0.18960  0.53737  0.12509  1.0000
  C   C58       1.0  0.45811  0.73517  0.26251  1.0000
  H   H64       1.0  0.25696  0.66969  0.08983  1.0000
  S   S13       1.0  0.46359  0.67545  0.22715  1.0000
  C   C59       1.0  0.22035  0.50939  0.10102  1.0000
  H   H65       1.0  0.29553  0.66943  0.13907  1.0000
  S   S14       1.0  0.19314  0.49915  0.06352  1.0000
  H   H66       1.0  0.45619  0.93814  0.03288  1.0000
  H   H67       1.0  0.22688  0.54867  0.17768  1.0000
  H   H68       1.0  0.38130  0.65406  0.30711  1.0000
  C   C60       1.0  0.26385  0.52347  0.16069  1.0000
  C   C61       1.0  0.23371  0.53473  0.15719  1.0000
  C   C62       1.0  0.21247  0.52829  0.12740  1.0000
  C   C63       1.0  0.46640  0.74495  0.32166  1.0000
  H   H69       1.0  0.24886  0.62471  0.04259  1.0000
  C   C64       1.0  0.27047  0.65019  0.09070  1.0000
  H   H70       1.0  0.27897  0.57941  0.04494  1.0000
  H   H71       1.0  0.06992  0.55597  0.15993  1.0000
  C   C65       1.0  0.30530  0.60077  0.09307  1.0000
  C   C66       1.0  0.29227  0.64989  0.11835  1.0000
  H   H72       1.0  0.31838  0.58096  0.09382  1.0000
  H   H73       1.0  0.34065  0.60160  0.14752  1.0000
  C   C67       1.0  0.26595  0.62496  0.06405  1.0000
  N   N8        1.0  0.30918  0.62523  0.11931  1.0000
  C   C68       1.0  0.02567  0.52985  0.19927  1.0000
  H   H74       1.0  0.04729  0.54894  0.21794  1.0000
  C   C69       1.0  0.46978  0.49689  0.10931  1.0000
  S   S15       1.0  0.43138  0.50154  0.13128  1.0000
  H   H75       1.0  0.42047  0.97257  0.25389  1.0000
  S   S16       1.0  0.28942  0.53201  0.19881  1.0000
  H   H76       1.0  0.45409  0.74557  0.23895  1.0000
  H   H77       1.0  0.13440  0.66635  0.99867  1.0000
  C   C70       1.0  0.34612  0.68423  0.30121  1.0000
  C   C71       1.0  0.45941  0.75700  0.29117  1.0000
  C   C72       1.0  0.27242  0.50544  0.13408  1.0000
  H   H78       1.0  0.31319  0.71725  0.30318  1.0000
  C   C73       1.0  0.33030  0.70627  0.31690  1.0000
  H   H79       1.0  0.45604  0.78370  0.28957  1.0000
  C   C74       1.0  0.47201  0.52081  0.01661  1.0000
  Fe  Fe8       1.0  0.10047  0.53465  0.99565  1.0000
  S   S17       1.0  0.42788  0.92502  0.30519  1.0000
  S   S18       1.0  0.08692  0.49271  0.03840  1.0000
  C   C75       1.0  0.36835  0.67070  0.31920  1.0000
  S   S19       1.0  0.37186  0.49035  0.20743  1.0000
  H   H80       1.0  0.17164  0.71795  0.99065  1.0000
  C   C76       1.0  0.23886  0.69591  0.99126  1.0000
  C   C77       1.0  0.33738  0.71483  0.35043  1.0000
  Fe  Fe9       1.0  0.45295  0.82145  0.36837  1.0000
  S   S20       1.0  0.39696  0.81864  0.34685  1.0000
  H   H81       1.0  0.09787  0.54326  0.38646  1.0000
  H   H82       1.0  0.47662  0.70076  0.34651  1.0000
  S   S21       1.0  0.41065  0.89213  0.39718  1.0000
  C   C78       1.0  0.30464  0.55692  0.58112  1.0000
  Fe  Fe10      1.0  0.37990  0.82329  0.39900  1.0000
  S   S22       1.0  0.31379  0.77713  0.41298  1.0000
  Fe  Fe11      1.0  0.43338  0.88758  0.34685  1.0000
  S   S23       1.0  0.43447  0.82342  0.42071  1.0000
  C   C79       1.0  0.32565  0.61463  0.61753  1.0000
  C   C80       1.0  0.26562  0.70524  0.50928  1.0000
  C   C81       1.0  0.30674  0.73685  0.50687  1.0000
  C   C82       1.0  0.32225  0.75861  0.47744  1.0000
  C   C83       1.0  0.29655  0.74937  0.45017  1.0000
  C   C84       1.0  0.25557  0.71749  0.45249  1.0000
  C   C85       1.0  0.24023  0.69535  0.48176  1.0000
  H   H83       1.0  0.35379  0.78312  0.47610  1.0000
  H   H84       1.0  0.23539  0.71015  0.43161  1.0000
  H   H85       1.0  0.20852  0.67125  0.48321  1.0000
  H   H86       1.0  0.35200  0.68496  0.41750  1.0000
  Fe  Fe12      1.0  0.10631  0.55100  0.52397  1.0000
  S   S24       1.0  0.12065  0.60979  0.54968  1.0000
  Fe  Fe13      1.0  0.15638  0.53476  0.57558  1.0000
  S   S25       1.0  0.17240  0.59188  0.60331  1.0000
  H   H87       1.0  0.34314  0.63196  0.63878  1.0000
  Fe  Fe14      1.0  0.10610  0.57326  0.59605  1.0000
  H   H88       1.0  0.02730  0.55125  0.42231  1.0000
  Fe  Fe15      1.0  0.18514  0.62166  0.55381  1.0000
  S   S26       1.0  0.24703  0.67974  0.54727  1.0000
  C   C86       1.0  0.46460  0.96042  0.49032  1.0000
  S   S27       1.0  0.17212  0.56506  0.52616  1.0000
  S   S28       1.0  0.07259  0.54544  0.47580  1.0000
  H   H89       1.0  0.32665  0.74488  0.52799  1.0000
  N   N9        1.0  0.36049  0.70269  0.36764  1.0000
  H   H90       1.0  0.45295  0.50757  0.47477  1.0000
  C   C87       1.0  0.27956  0.60382  0.57392  1.0000
  N   N10       1.0  0.30184  0.62610  0.60049  1.0000
  Fe  Fe16      1.0  0.46667  0.89193  0.41574  1.0000
  C   C88       1.0  0.00866  0.49851  0.64584  1.0000
  H   H91       1.0  0.32506  0.73208  0.36238  1.0000
  H   H92       1.0  0.42941  0.98077  0.51832  1.0000
  C   C89       1.0  0.30048  0.66286  0.61002  1.0000
  C   C90       1.0  0.32741  0.57990  0.60810  1.0000
  C   C91       1.0  0.21830  0.51048  0.62728  1.0000
  H   H93       1.0  0.43868  0.93873  0.47576  1.0000
  C   C92       1.0  0.01274  0.51931  0.42883  1.0000
  H   H94       1.0  0.13156  0.50678  0.64125  1.0000
  C   C93       1.0  0.45948  0.98440  0.51447  1.0000
  H   H95       1.0  0.34552  0.57029  0.62211  1.0000
  C   C94       1.0  0.48065  0.51670  0.61209  1.0000
  C   C95       1.0  0.07308  0.52591  0.36923  1.0000
  S   S29       1.0  0.08870  0.51397  0.57053  1.0000
  H   H96       1.0  0.26811  0.65558  0.61258  1.0000
  H   H97       1.0  0.39442  0.67147  0.36607  1.0000
  H   H98       1.0  0.31636  0.67595  0.63365  1.0000
  N   N11       1.0  0.42207  0.96053  0.63722  1.0000
  C   C96       1.0  0.02808  0.50745  0.45533  1.0000
  C   C97       1.0  0.36901  0.71287  0.40252  1.0000
  H   H99       1.0  0.42188  0.95818  0.58511  1.0000
  H   H100      1.0  0.35987  0.73528  0.41067  1.0000
  H   H101      1.0  0.46933  0.96917  0.60427  1.0000
  C   C98       1.0  0.37548  0.68046  0.35257  1.0000
  C   C99       1.0  0.06294  0.54690  0.34645  1.0000
  H   H102      1.0  0.30476  0.52923  0.57416  1.0000
  H   H103      1.0  0.42916  0.98182  0.35399  1.0000
  C   C100      1.0  0.28045  0.56883  0.56393  1.0000
  C   C101      1.0  0.22376  0.54087  0.64990  1.0000
  H   H104      1.0  0.26154  0.55043  0.54360  1.0000
  C   C102      1.0  0.02173  0.58739  0.53121  1.0000
  H   H105      1.0  0.26063  0.61287  0.56048  1.0000
  S   S30       1.0  0.46911  0.77146  0.35866  1.0000
  S   S31       1.0  0.44081  0.51546  0.63643  1.0000
  H   H106      1.0  0.40250  0.72710  0.40732  1.0000
  S   S32       1.0  0.06950  0.57960  0.63803  1.0000
  H   H107      1.0  0.03709  0.60419  0.58202  1.0000
  C   C103      1.0  0.99487  0.55689  0.50953  1.0000
  H   H108      1.0  0.20724  0.55708  0.64693  1.0000
  H   H109      1.0  0.31515  0.68648  0.59074  1.0000
  H   H110      1.0  0.04722  0.61549  0.52188  1.0000
  C   C104      1.0  0.01614  0.58098  0.56487  1.0000
  C   C105      1.0  0.03067  0.52484  0.32458  1.0000
  C   C106      1.0  0.43536  0.95076  0.60635  1.0000
  H   H111      1.0  0.42572  0.91784  0.60430  1.0000
  S   S33       1.0  0.18408  0.49683  0.59334  1.0000
  H   H112      1.0  0.07979  0.58004  0.34587  1.0000
  C   C107      1.0  0.48617  0.52519  0.47604  1.0000
  H   H113      1.0  0.00001  0.56204  0.48344  1.0000
  H   H114      1.0  0.02095  0.49179  0.62424  1.0000
  Fe  Fe17      1.0  0.36484  0.54588  0.71996  1.0000
  S   S34       1.0  0.40639  0.58673  0.68105  1.0000
  C   C108      1.0  0.10124  0.51830  0.68131  1.0000
  Fe  Fe18      1.0  0.43798  0.54791  0.75781  1.0000
  C   C109      1.0  0.47809  0.72039  0.82413  1.0000
  C   C110      1.0  0.39907  0.98072  0.69609  1.0000
  Fe  Fe19      1.0  0.44760  0.62344  0.72289  1.0000
  H   H115      1.0  0.47796  0.80432  0.97768  1.0000
  Fe  Fe20      1.0  0.43678  0.54838  0.68260  1.0000
  S   S35       1.0  0.40523  0.58386  0.76186  1.0000
  H   H116      1.0  0.39104  0.64267  0.81592  1.0000
  H   H117      1.0  0.32791  0.64085  0.74488  1.0000
  Fe  Fe21      1.0  0.44690  0.81940  0.87049  1.0000
  S   S36       1.0  0.39598  0.81173  0.83830  1.0000
  S   S37       1.0  0.45050  0.90975  0.96680  1.0000
  Fe  Fe22      1.0  0.43798  0.88153  0.91521  1.0000
  S   S38       1.0  0.38578  0.87652  0.88435  1.0000
  C   C111      1.0  0.14330  0.69128  0.98069  1.0000
  Fe  Fe23      1.0  0.36229  0.80846  0.88479  1.0000
  S   S39       1.0  0.29922  0.75151  0.89197  1.0000
  Fe  Fe24      1.0  0.42572  0.88049  0.84110  1.0000
  S   S40       1.0  0.43944  0.90930  0.78987  1.0000
  S   S41       1.0  0.41234  0.81337  0.91684  1.0000
  H   H118      1.0  0.25239  0.57183  0.69524  1.0000
  H   H119      1.0  0.32044  0.72242  0.82824  1.0000
  C   C112      1.0  0.16409  0.65725  0.88634  1.0000
  C   C113      1.0  0.48277  0.95853  0.98508  1.0000
  C   C114      1.0  0.45797  0.95936  0.77421  1.0000
  N   N12       1.0  0.15083  0.67935  0.94832  1.0000
  C   C115      1.0  0.37489  0.65955  0.81870  1.0000
  C   C116      1.0  0.02288  0.49553  0.89234  1.0000
  C   C117      1.0  0.33299  0.68382  0.79643  1.0000
  H   H120      1.0  0.02358  0.57772  0.69498  1.0000
  H   H121      1.0  0.41096  0.90580  0.66097  1.0000
  C   C118      1.0  0.28765  0.75513  0.95909  1.0000
  C   C119      1.0  0.27987  0.73038  0.93128  1.0000
  C   C120      1.0  0.25257  0.68812  0.93402  1.0000
  C   C121      1.0  0.23219  0.67098  0.96374  1.0000
  H   H122      1.0  0.30844  0.78774  0.95745  1.0000
  H   H123      1.0  0.24630  0.66859  0.91277  1.0000
  S   S42       1.0  0.08022  0.52431  0.94203  1.0000
  H   H124      1.0  0.39023  0.92323  0.71350  1.0000
  H   H125      1.0  0.17001  0.64853  0.86247  1.0000
  C   C122      1.0  0.39854  0.94372  0.69277  1.0000
  C   C123      1.0  0.13045  0.63910  0.93889  1.0000
  C   C124      1.0  0.27167  0.52883  0.68185  1.0000
  S   S43       1.0  0.39256  0.50483  0.72013  1.0000
  C   C125      1.0  0.47690  0.96898  0.74321  1.0000
  H   H126      1.0  0.04874  0.51313  0.87643  1.0000
  H   H127      1.0  0.38030  0.65359  0.75086  1.0000
  H   H128      1.0  0.36159  0.71954  0.87423  1.0000
  C   C126      1.0  0.17711  0.70885  0.92719  1.0000
  H   H129      1.0  0.06487  0.52006  0.72111  1.0000
  C   C127      1.0  0.13696  0.62743  0.90787  1.0000
  C   C128      1.0  0.34961  0.63981  0.76264  1.0000
  C   C129      1.0  0.45841  0.74577  0.76650  1.0000
  H   H130      1.0  0.39741  0.67970  0.86792  1.0000
  C   C130      1.0  0.37839  0.68017  0.84822  1.0000
  C   C131      1.0  0.33561  0.70456  0.82570  1.0000
  S   S44       1.0  0.47330  0.77728  0.86360  1.0000
  C   C132      1.0  0.01007  0.54671  0.68576  1.0000
  H   H131      1.0  0.31559  0.68594  0.77622  1.0000
  H   H132      1.0  0.33866  0.60703  0.76745  1.0000
  C   C133      1.0  0.46634  0.71320  0.76519  1.0000
  N   N13       1.0  0.35229  0.66145  0.79333  1.0000
  S   S45       1.0  0.48315  0.58993  0.72011  1.0000
  C   C134      1.0  0.35861  0.70281  0.85167  1.0000
  H   H133      1.0  0.21057  0.63861  0.96499  1.0000
  S   S46       1.0  0.30037  0.53728  0.71849  1.0000
  H   H134      1.0  0.20639  0.72165  0.87981  1.0000
  H   H135      1.0  0.19384  0.74068  0.93481  1.0000
  H   H136      1.0  0.11929  0.55132  0.67923  1.0000
  C   C135      1.0  0.18418  0.69827  0.89593  1.0000
  C   C136      1.0  0.24969  0.54943  0.67727  1.0000
  H   H137      1.0  0.12133  0.59535  0.90085  1.0000
  C   C137      1.0  0.47007  0.75290  0.82543  1.0000
  H   H138      1.0  0.10940  0.61555  0.95544  1.0000
  C   C138      1.0  0.41057  0.93420  0.66306  1.0000
  S   S47       1.0  0.46566  0.69045  0.72679  1.0000
  H   H139      1.0  0.48217  0.67542  0.79361  1.0000
  H   H140      1.0  0.45148  0.75624  0.74414  1.0000
  C   C139      1.0  0.47565  0.70023  0.79428  1.0000
  H   H141      1.0  0.43637  0.98132  0.81386  1.0000
  C   C140      1.0  0.47280  0.50406  0.82737  1.0000
  H   H142      1.0  0.45369  0.79029  0.79701  1.0000
  H   H143      1.0  0.11854  0.69896  0.97917  1.0000
  C   C141      1.0  0.45970  0.76517  0.79649  1.0000
  C   C142      1.0  0.02940  0.49554  0.92629  1.0000
  S   S48       1.0  0.47887  0.88828  0.87217  1.0000
  H   H144      1.0  0.48214  0.94676  0.73057  1.0000
  C   C143      1.0  0.26716  0.73798  0.98882  1.0000
  C   C144      1.0  0.45122  0.98833  0.79019  1.0000
  S   S49       1.0  0.47206  0.54183  0.80205  1.0000
  H   H145      1.0  0.39124  0.98916  0.71936  1.0000
  C   C145      1.0  0.26719  0.49932  0.65874  1.0000
  C   C146      1.0  0.10788  0.49338  0.65979  1.0000
  C   C147      1.0  0.07027  0.50039  0.70488  1.0000
  H   H146      1.0  0.48622  0.71065  0.84631  1.0000
  C   C148      1.0  0.02654  0.53869  0.65758  1.0000
  C   C149      1.0  0.66149  0.28028  0.08265  1.0000
  Fe  Fe25      1.0  0.83067  0.37772  0.29048  1.0000
  S   S50       1.0  0.84388  0.43754  0.26858  1.0000
  S   S51       1.0  0.77513  0.31575  0.27685  1.0000
  Fe  Fe26      1.0  0.91065  0.45854  0.27843  1.0000
  H   H147      1.0  0.74546  0.14486  0.15399  1.0000
  H   H148      1.0  0.55078  0.23731  0.00630  1.0000
  C   C150      1.0  0.69299  0.16616  0.25386  1.0000
  S   S52       1.0  0.89757  0.39723  0.29735  1.0000
  H   H149      1.0  0.60564  0.34588  0.02941  1.0000
  H   H150      1.0  0.63253  0.11305  0.24863  1.0000
  Fe  Fe27      1.0  0.57048  0.10470  0.08868  1.0000
  S   S53       1.0  0.56896  0.08195  0.03623  1.0000
  Fe  Fe28      1.0  0.63168  0.17492  0.13528  1.0000
  S   S54       1.0  0.58209  0.16420  0.17070  1.0000
  S   S55       1.0  0.69755  0.22731  0.14083  1.0000
  Fe  Fe29      1.0  0.56012  0.09699  0.16381  1.0000
  H   H151      1.0  0.68045  0.26612  0.08190  1.0000
  Fe  Fe30      1.0  0.54469  0.15820  0.12577  1.0000
  H   H152      1.0  0.68753  0.17383  0.27830  1.0000
  S   S56       1.0  0.61218  0.10847  0.12962  1.0000
  S   S57       1.0  0.59566  0.17265  0.09093  1.0000
  C   C151      1.0  0.52574  0.27141  0.02943  1.0000
  C   C152      1.0  0.73673  0.42128  0.25610  1.0000
  C   C153      1.0  0.66221  0.13223  0.23728  1.0000
  C   C154      1.0  0.52071  0.22643  0.08609  1.0000
  S   S58       1.0  0.59491  0.41246  0.00162  1.0000
  C   C155      1.0  0.72365  0.37167  0.29802  1.0000
  C   C156      1.0  0.64002  0.27817  0.11113  1.0000
  S   S59       1.0  0.52352  0.29354  0.99204  1.0000
  C   C157      1.0  0.61307  0.31633  0.08420  1.0000
  C   C158      1.0  0.71749  0.25497  0.17800  1.0000
  C   C159      1.0  0.69374  0.24505  0.20642  1.0000
  C   C160      1.0  0.71152  0.26530  0.23618  1.0000
  C   C161      1.0  0.75307  0.29589  0.23787  1.0000
  C   C162      1.0  0.77645  0.30698  0.20918  1.0000
  C   C163      1.0  0.75874  0.28644  0.17944  1.0000
  H   H153      1.0  0.66203  0.22088  0.20579  1.0000
  H   H154      1.0  0.69319  0.25637  0.25824  1.0000
  H   H155      1.0  0.80854  0.33029  0.21013  1.0000
  H   H156      1.0  0.77739  0.29445  0.15757  1.0000
  H   H157      1.0  0.75425  0.21802  0.25084  1.0000
  C   C164      1.0  0.53506  0.03408  0.01728  1.0000
  C   C165      1.0  0.73907  0.38771  0.26711  1.0000
  C   C166      1.0  0.65781  0.30010  0.05516  1.0000
  H   H158      1.0  0.54706  0.19860  0.05594  1.0000
  C   C167      1.0  0.49651  0.11053  0.00654  1.0000
  C   C168      1.0  0.73054  0.19084  0.23850  1.0000
  H   H159      1.0  0.59786  0.29373  0.13370  1.0000
  H   H160      1.0  0.69258  0.10595  0.15045  1.0000
  C   C169      1.0  0.52205  0.02118  0.23389  1.0000
  H   H161      1.0  0.76509  0.20185  0.19415  1.0000
  H   H162      1.0  0.51376  0.48276  0.22370  1.0000
  H   H163      1.0  0.64204  0.26220  0.13240  1.0000
  C   C170      1.0  0.66961  0.12328  0.20555  1.0000
  C   C171      1.0  0.61555  0.29619  0.11195  1.0000
  C   C172      1.0  0.48862  0.47564  0.24137  1.0000
  S   S60       1.0  0.51259  0.19530  0.12072  1.0000
  C   C173      1.0  0.73655  0.18145  0.20648  1.0000
  H   H164      1.0  0.75007  0.43499  0.23273  1.0000
  H   H165      1.0  0.68759  0.43322  0.32114  1.0000
  H   H166      1.0  0.72666  0.34630  0.30678  1.0000
  H   H167      1.0  0.71655  0.46413  0.26759  1.0000
  H   H168      1.0  0.59374  0.33000  0.08502  1.0000
  Fe  Fe31      1.0  0.55915  0.44563  0.00194  1.0000
  Fe  Fe32      1.0  0.84085  0.45609  0.32083  1.0000
  C   C174      1.0  0.71784  0.43754  0.27558  1.0000
  N   N14       1.0  0.63362  0.31758  0.05614  1.0000
  S   S61       1.0  0.55969  0.05914  0.20774  1.0000
  N   N15       1.0  0.70654  0.14760  0.19067  1.0000
  S   S62       1.0  0.56625  0.48858  0.04457  1.0000
  C   C175      1.0  0.71352  0.13857  0.15706  1.0000
  H   H169      1.0  0.64542  0.09681  0.19292  1.0000
  C   C176      1.0  0.53746  0.22109  0.05716  1.0000
  H   H170      1.0  0.49937  0.29947  0.05930  1.0000
  C   C177      1.0  0.53940  0.24302  0.02893  1.0000
  H   H171      1.0  0.98385  0.46495  0.30889  1.0000
  H   H172      1.0  0.75372  0.37481  0.25218  1.0000
  S   S63       1.0  0.51701  0.08953  0.12207  1.0000
  H   H173      1.0  0.70814  0.15784  0.13967  1.0000
  C   C178      1.0  0.50490  0.00111  0.03490  1.0000
  C   C179      1.0  0.51058  0.27813  0.05871  1.0000
  H   H174      1.0  0.50173  0.00430  0.06093  1.0000
  H   H175      1.0  0.49562  0.46453  0.26425  1.0000
  C   C180      1.0  0.97021  0.48178  0.15077  1.0000
  C   C181      1.0  0.63043  0.33824  0.02698  1.0000
  H   H176      1.0  0.67422  0.30122  0.03297  1.0000
  N   N16       1.0  0.70571  0.38817  0.31717  1.0000
  H   H177      1.0  0.92577  0.45617  0.19007  1.0000
  C   C182      1.0  0.50768  0.25537  0.08682  1.0000
  C   C183      1.0  0.70184  0.42010  0.30603  1.0000
  H   H178      1.0  0.65976  0.36704  0.02264  1.0000
  H   H179      1.0  0.49447  0.25961  0.10903  1.0000
  H   H180      1.0  0.56642  0.00988  0.25765  1.0000
  H   H181      1.0  0.62258  0.31803  0.00504  1.0000
  H   H182      1.0  0.51391  0.09843  0.99440  1.0000
  C   C184      1.0  0.53458  0.00195  0.25682  1.0000
  C   C185      1.0  0.95725  0.47769  0.18371  1.0000
  H   H183      1.0  0.94837  0.46319  0.13204  1.0000
  H   H184      1.0  0.49066  0.07887  0.05148  1.0000
  C   C186      1.0  0.52841  0.48947  0.07029  1.0000
  S   S64       1.0  0.92214  0.41056  0.39225  1.0000
  Fe  Fe33      1.0  0.55087  0.45088  0.43394  1.0000
  C   C187      1.0  0.50025  0.48612  0.56739  1.0000
  Fe  Fe34      1.0  0.53557  0.38221  0.48260  1.0000
  S   S65       1.0  0.59243  0.42284  0.51109  1.0000
  C   C188      1.0  0.74063  0.48645  0.36942  1.0000
  Fe  Fe35      1.0  0.57290  0.46993  0.50678  1.0000
  Fe  Fe36      1.0  0.62295  0.44318  0.46190  1.0000
  H   H185      1.0  0.56671  0.99715  0.49997  1.0000
  S   S66       1.0  0.56659  0.40054  0.43328  1.0000
  H   H186      1.0  0.67664  0.33343  0.55357  1.0000
  H   H187      1.0  0.79093  0.43690  0.39188  1.0000
  H   H188      1.0  0.96118  0.43584  0.65290  1.0000
  C   C189      1.0  0.71303  0.47585  0.39588  1.0000
  C   C190      1.0  0.74239  0.43798  0.41962  1.0000
  C   C191      1.0  0.76936  0.44783  0.39280  1.0000
  H   H189      1.0  0.74361  0.41957  0.43922  1.0000
  C   C192      1.0  0.51142  0.02200  0.42202  1.0000
  C   C193      1.0  0.96113  0.44868  0.41739  1.0000
  C   C194      1.0  0.97933  0.49019  0.41008  1.0000
  H   H190      1.0  0.96167  0.40479  0.45044  1.0000
  C   C195      1.0  0.53148  0.01737  0.52820  1.0000
  Fe  Fe37      1.0  0.52445  0.09180  0.60098  1.0000
  C   C196      1.0  0.97566  0.43688  0.44453  1.0000
  H   H191      1.0  0.93967  0.46187  0.50002  1.0000
  C   C197      1.0  0.93540  0.48881  0.49826  1.0000
  N   N17       1.0  0.51782  0.00711  0.39333  1.0000
  S   S67       1.0  0.82528  0.39588  0.34217  1.0000
  Fe  Fe38      1.0  0.53930  0.17610  0.62379  1.0000
  C   C198      1.0  0.53242  0.25930  0.58357  1.0000
  S   S68       1.0  0.54404  0.48216  0.38818  1.0000
  S   S69       1.0  0.57580  0.15655  0.59280  1.0000
  C   C199      1.0  0.51218  0.29379  0.53020  1.0000
  C   C200      1.0  0.53846  0.31888  0.55507  1.0000
  C   C201      1.0  0.60456  0.33415  0.47573  1.0000
  S   S70       1.0  0.68086  0.43843  0.45578  1.0000
  C   C202      1.0  0.50532  0.48240  0.36325  1.0000
  H   H192      1.0  0.64752  0.37737  0.51019  1.0000
  H   H193      1.0  0.55223  0.23131  0.48602  1.0000
  C   C203      1.0  0.57743  0.29303  0.46886  1.0000
  H   H194      1.0  0.62975  0.30444  0.57680  1.0000
  Fe  Fe39      1.0  0.89345  0.42164  0.34695  1.0000
  S   S71       1.0  0.51368  0.42835  0.48059  1.0000
  C   C204      1.0  0.68983  0.37063  0.34945  1.0000
  H   H195      1.0  0.59272  0.25217  0.53725  1.0000
  H   H196      1.0  0.69164  0.48702  0.39695  1.0000
  S   S72       1.0  0.90896  0.48345  0.32872  1.0000
  N   N18       1.0  0.62208  0.31595  0.52691  1.0000
  S   S73       1.0  0.55394  0.08282  0.64592  1.0000
  C   C205      1.0  0.71395  0.45173  0.42129  1.0000
  C   C206      1.0  0.53661  0.99341  0.50400  1.0000
  C   C207      1.0  0.54810  0.30169  0.58169  1.0000
  H   H197      1.0  0.56815  0.32149  0.60086  1.0000
  H   H198      1.0  0.60769  0.35749  0.45886  1.0000
  C   C208      1.0  0.62690  0.34518  0.50497  1.0000
  H   H199      1.0  0.55095  0.35152  0.55406  1.0000
  C   C209      1.0  0.76865  0.47219  0.36751  1.0000
  H   H200      1.0  0.57898  0.03602  0.37584  1.0000
  H   H201      1.0  0.64722  0.35666  0.56754  1.0000
  H   H202      1.0  0.55745  0.03920  0.54263  1.0000
  H   H203      1.0  0.55853  0.28436  0.44699  1.0000
  C   C210      1.0  0.57385  0.26334  0.49079  1.0000
  C   C211      1.0  0.48911  0.99366  0.36889  1.0000
  C   C212      1.0  0.64524  0.32821  0.55771  1.0000
  C   C213      1.0  0.59670  0.27540  0.51983  1.0000
  S   S74       1.0  0.54795  0.23997  0.61679  1.0000
  Fe  Fe40      1.0  0.60119  0.14985  0.64085  1.0000
  C   C214      1.0  0.55644  0.00735  0.38806  1.0000
  S   S75       1.0  0.80099  0.48430  0.33263  1.0000
  C   C215      1.0  0.50590  0.23405  0.55886  1.0000
  S   S76       1.0  0.66974  0.18097  0.65048  1.0000
  H   H204      1.0  0.56945  0.00443  0.41165  1.0000
  S   S77       1.0  0.50027  0.31439  0.49561  1.0000
  H   H205      1.0  0.49143  0.46368  0.54790  1.0000
  H   H206      1.0  0.71358  0.36769  0.36333  1.0000
  H   H207      1.0  0.68197  0.39045  0.36444  1.0000
  H   H208      1.0  0.53425  0.03283  0.44137  1.0000
  H   H209      1.0  0.66198  0.34009  0.34666  1.0000
  C   C216      1.0  0.49283  0.01307  0.53351  1.0000
  H   H210      1.0  0.49320  0.20133  0.56009  1.0000
  C   C217      1.0  0.49546  0.25122  0.53258  1.0000
  H   H211      1.0  0.63176  0.26462  0.65257  1.0000
  H   H212      1.0  0.90299  0.47934  0.50394  1.0000
  H   H213      1.0  0.93294  0.48565  0.56327  1.0000
  Fe  Fe41      1.0  0.87378  0.41232  0.83126  1.0000
  S   S78       1.0  0.89895  0.41844  0.88321  1.0000
  Fe  Fe42      1.0  0.80447  0.34895  0.78523  1.0000
  S   S79       1.0  0.81081  0.39816  0.75174  1.0000
  S   S80       1.0  0.74858  0.28519  0.78031  1.0000
  Fe  Fe43      1.0  0.87917  0.42447  0.75717  1.0000
  H   H214      1.0  0.70699  0.29804  0.66258  1.0000
  Fe  Fe44      1.0  0.81413  0.43290  0.79775  1.0000
  C   C218      1.0  0.65027  0.10399  0.70623  1.0000
  S   S81       1.0  0.87243  0.37272  0.78903  1.0000
  S   S82       1.0  0.80496  0.38268  0.83081  1.0000
  Fe  Fe45      1.0  0.52346  0.41404  0.93423  1.0000
  H   H215      1.0  0.64898  0.07449  0.71077  1.0000
  H   H216      1.0  0.93028  0.43115  0.94879  1.0000
  C   C219      1.0  0.59804  0.10492  0.74165  1.0000
  H   H217      1.0  0.75321  0.24041  0.66736  1.0000
  H   H218      1.0  0.55417  0.10758  0.77422  1.0000
  Fe  Fe46      1.0  0.61089  0.43196  0.94912  1.0000
  S   S83       1.0  0.67605  0.44706  0.93557  1.0000
  S   S84       1.0  0.55504  0.37700  0.92901  1.0000
  N   N19       1.0  0.67938  0.32872  0.73139  1.0000
  C   C220      1.0  0.73810  0.44704  0.83877  1.0000
  C   C221      1.0  0.74186  0.42751  0.86639  1.0000
  C   C222      1.0  0.71986  0.42461  0.89516  1.0000
  C   C223      1.0  0.69321  0.44048  0.89663  1.0000
  H   H219      1.0  0.81176  0.46258  0.96184  1.0000
  S   S85       1.0  0.50055  0.39041  0.98521  1.0000
  S   S86       1.0  0.91700  0.43300  0.71070  1.0000
  H   H220      1.0  0.73676  0.33866  0.71320  1.0000
  C   C224      1.0  0.69124  0.21275  0.68549  1.0000
  C   C225      1.0  0.73391  0.23902  0.68756  1.0000
  C   C226      1.0  0.75192  0.26307  0.71586  1.0000
  C   C227      1.0  0.72738  0.26031  0.74259  1.0000
  C   C228      1.0  0.68474  0.23467  0.74025  1.0000
  C   C229      1.0  0.66675  0.21118  0.71185  1.0000
  H   H221      1.0  0.76343  0.41665  0.86638  1.0000
  H   H222      1.0  0.78490  0.28251  0.71747  1.0000
  H   H223      1.0  0.66552  0.23248  0.76075  1.0000
  H   H224      1.0  0.63407  0.19077  0.71103  1.0000
  H   H225      1.0  0.57456  0.08527  0.72419  1.0000
  C   C230      1.0  0.94954  0.44902  0.89895  1.0000
  S   S87       1.0  0.56679  0.17162  0.67129  1.0000
  H   H226      1.0  0.67468  0.35247  0.77833  1.0000
  Fe  Fe47      1.0  0.51805  0.10549  0.67404  1.0000
  S   S88       1.0  0.58076  0.47082  0.95112  1.0000
  H   H227      1.0  0.58741  0.27258  0.69333  1.0000
  C   C231      1.0  0.68743  0.45771  0.86837  1.0000
  H   H228      1.0  0.68092  0.17584  0.80374  1.0000
  H   H229      1.0  0.71445  0.33978  0.77488  1.0000
  C   C232      1.0  0.69786  0.35257  0.76139  1.0000
  H   H230      1.0  0.68173  0.12703  0.69818  1.0000
  C   C233      1.0  0.70407  0.32488  0.70872  1.0000
  C   C234      1.0  0.95604  0.44930  0.93291  1.0000
  C   C235      1.0  0.64525  0.28305  0.67449  1.0000
  H   H231      1.0  0.72006  0.38496  0.75534  1.0000
  H   H232      1.0  0.72486  0.41153  0.91689  1.0000
  C   C236      1.0  0.70990  0.46110  0.83967  1.0000
  C   C237      1.0  0.63796  0.31043  0.72609  1.0000
  H   H233      1.0  0.70009  0.15272  0.75344  1.0000
  C   C238      1.0  0.97475  0.46684  0.66216  1.0000
  H   H234      1.0  0.62968  0.10023  0.68542  1.0000
  C   C239      1.0  0.81962  0.47542  0.93748  1.0000
  H   H235      1.0  0.61826  0.31339  0.74397  1.0000
  C   C240      1.0  0.85562  0.48502  0.88650  1.0000
  C   C241      1.0  0.58628  0.11740  0.76999  1.0000
  C   C242      1.0  0.95844  0.47476  0.69050  1.0000
  H   H236      1.0  0.50183  0.01296  0.70395  1.0000
  C   C243      1.0  0.68743  0.30201  0.67999  1.0000
  S   S89       1.0  0.88358  0.46525  0.79987  1.0000
  H   H237      1.0  0.85940  0.45092  0.92692  1.0000
  H   H238      1.0  0.60745  0.15315  0.81445  1.0000
  C   C244      1.0  0.61614  0.14284  0.79258  1.0000
  S   S90       1.0  0.77140  0.45885  0.80448  1.0000
  C   C245      1.0  0.65726  0.15525  0.78674  1.0000
  C   C246      1.0  0.51708  0.48625  0.67990  1.0000
  C   C247      1.0  0.66794  0.14213  0.75816  1.0000
  N   N20       1.0  0.63852  0.11775  0.73586  1.0000
  H   H239      1.0  0.56188  0.05444  0.96954  1.0000
  H   H240      1.0  0.87616  0.47982  0.87119  1.0000
  H   H241      1.0  0.98536  0.41476  0.72069  1.0000
  C   C248      1.0  0.62029  0.28734  0.69757  1.0000
  C   C249      1.0  0.84623  0.46881  0.91794  1.0000
  H   H242      1.0  0.70666  0.47629  0.81851  1.0000
  Fe  Fe48      1.0  0.53791  0.35878  0.98163  1.0000
  H   H243      1.0  0.49735  0.14598  0.96521  1.0000
  H   H244      1.0  0.66755  0.47068  0.86921  1.0000
  C   C250      1.0  0.98318  0.47256  0.87872  1.0000
  C   C251      1.0  0.50828  0.48735  0.86962  1.0000
  H   H245      1.0  0.97870  0.47261  0.85258  1.0000
  C   C252      1.0  0.53866  0.02913  0.98342  1.0000
  H   H246      1.0  0.50442  0.47867  0.94318  1.0000
  C   C253      1.0  0.51262  0.99166  0.96734  1.0000
  C   C254      1.0  0.48818  0.00657  0.72806  1.0000
  S   S91       1.0  0.48923  0.08065  0.72405  1.0000
  C   C255      1.0  0.48719  0.13713  0.99021  1.0000
  H   H247      1.0  0.53600  0.48925  0.65886  1.0000
  H   H248      1.0  0.49738  0.53884  0.30124  1.0000
  H   H249      1.0  0.52180  0.54815  0.13201  1.0000
  C   C256      1.0  0.51172  0.52387  0.11397  1.0000
  C   C257      1.0  0.54077  0.52024  0.09445  1.0000
  H   H250      1.0  0.57311  0.54186  0.09778  1.0000
  H   H251      1.0  0.51639  0.95726  0.29547  1.0000
  C   C258      1.0  0.48775  0.51470  0.31902  1.0000
  C   C259      1.0  0.51357  0.53683  0.00979  1.0000
  C   C260      1.0  0.50624  0.97211  0.27843  1.0000
  C   C261      1.0  0.98488  0.50190  0.20821  1.0000
  H   H252      1.0  0.53673  0.55984  0.02583  1.0000
  H   H253      1.0  0.49580  0.87315  0.99886  1.0000
  S   S92       1.0  0.97032  0.49884  0.25016  1.0000
  H   H254      1.0  0.48824  0.50415  0.24729  1.0000
  H   H255      1.0  0.56369  0.58258  0.52894  1.0000
  H   H256      1.0  0.58460  0.56418  0.60345  1.0000
  C   C262      1.0  0.50961  0.52726  0.44885  1.0000
  C   C263      1.0  0.54179  0.51350  0.57339  1.0000
  H   H257      1.0  0.63093  0.58693  0.45994  1.0000
  S   S93       1.0  0.49097  0.89036  0.36527  1.0000
  C   C264      1.0  0.50329  0.96486  0.48486  1.0000
  H   H258      1.0  0.94108  0.49917  0.47239  1.0000
  H   H259      1.0  0.49435  0.98233  0.34602  1.0000
  C   C265      1.0  0.52220  0.54423  0.61804  1.0000
  C   C266      1.0  0.54863  0.56756  0.50619  1.0000
  C   C267      1.0  0.55254  0.54264  0.59873  1.0000
  C   C268      1.0  0.61626  0.59151  0.48199  1.0000
  S   S94       1.0  0.51218  0.93767  0.45314  1.0000
  H   H260      1.0  0.57035  0.55072  0.42977  1.0000
  H   H261      1.0  0.53095  0.56665  0.63754  1.0000
  H   H262      1.0  0.96842  0.49978  0.38939  1.0000
  N   N21       1.0  0.57137  0.56880  0.47960  1.0000
  S   S95       1.0  0.58112  0.51367  0.54908  1.0000
  C   C269      1.0  0.55243  0.54949  0.45102  1.0000
  H   H263      1.0  0.48792  0.54402  0.52633  1.0000
  H   H264      1.0  0.62751  0.62467  0.48493  1.0000
  H   H265      1.0  0.62631  0.58071  0.50341  1.0000
  S   S96       1.0  0.60957  0.49479  0.46044  1.0000
  H   H266      1.0  0.74014  0.50572  0.35021  1.0000
  C   C270      1.0  0.50574  0.54568  0.50487  1.0000
  H   H267      1.0  0.55138  0.98078  0.37273  1.0000
  C   C271      1.0  0.51704  0.51309  0.33952  1.0000
  N   N22       1.0  0.96325  0.52094  0.52107  1.0000
  H   H268      1.0  0.54910  0.53600  0.33706  1.0000
  H   H269      1.0  0.49480  0.51141  0.42627  1.0000
  C   C272      1.0  0.98388  0.54427  0.57643  1.0000
  C   C273      1.0  0.95769  0.51430  0.55406  1.0000
  H   H270      1.0  0.97947  0.53907  0.60259  1.0000
  H   H271      1.0  0.76320  0.52716  0.89247  1.0000
  H   H272      1.0  0.81452  0.57041  0.88795  1.0000
  C   C274      1.0  0.53474  0.51327  0.70639  1.0000
  C   C275      1.0  0.79408  0.53767  0.88175  1.0000
  H   H273      1.0  0.57596  0.92759  0.91702  1.0000
  C   C276      1.0  0.51849  0.82827  0.93601  1.0000
  H   H274      1.0  0.54606  0.86177  0.86754  1.0000
  H   H275      1.0  0.51585  0.98833  0.94135  1.0000
  C   C277      1.0  0.56336  0.85880  0.88833  1.0000
  H   H276      1.0  0.96417  0.52149  0.72405  1.0000
  H   H277      1.0  0.59622  0.88261  0.88638  1.0000
  H   H278      1.0  0.52377  0.53056  0.75428  1.0000
  C   C278      1.0  0.50626  0.51583  0.84873  1.0000
  H   H279      1.0  0.56129  0.82850  0.88585  1.0000
  C   C279      1.0  0.55544  0.90048  0.93073  1.0000
  H   H280      1.0  0.56681  0.53690  0.70582  1.0000
  H   H281      1.0  0.53092  0.54730  0.84905  1.0000
  H   H282      1.0  0.54512  0.93483  0.96846  1.0000
  C   C280      1.0  0.83797  0.50738  0.87484  1.0000
  N   N23       1.0  0.54587  0.86255  0.91941  1.0000
  N   N24       1.0  0.81165  0.51345  0.89408  1.0000
  H   H283      1.0  0.78976  0.53417  0.85472  1.0000
  C   C281      1.0  0.53821  0.90483  0.95978  1.0000
  C   C282      1.0  0.80274  0.49823  0.92518  1.0000
  C   C283      1.0  0.50042  0.83152  0.96500  1.0000
  H   H284      1.0  0.55759  0.53315  0.97838  1.0000
  H   H285      1.0  0.78134  0.50250  0.94024  1.0000
  H   H286      1.0  0.50991  0.79811  0.92661  1.0000
  H   H287      1.0  0.84464  0.51894  0.85002  1.0000
  C   C284      1.0  0.97635  0.51492  0.70229  1.0000
  C   C285      1.0  0.49516  0.49066  0.96364  1.0000
  C   C286      1.0  0.51050  0.87009  0.97694  1.0000
  C   C287      1.0  0.52529  0.52170  0.98318  1.0000
  H   H288      1.0  0.53441  0.49698  0.88563  1.0000
  C   C288      1.0  0.51065  0.50978  0.73353  1.0000
