data_image0
_chemical_formula_structural       FeS2FeS2FeSFeS3FeSHCSFeSFeSCSFeS2FeS2HFeS3H2FeHC2HCSHC2HC7H4C6H6CHC3H4CHC2H3C2HC2NHC2H4CHNC2HCHCSHNC6HCH4C2NH2CH2CH2CHCH3C2FeCSFeS2FeHFeS2H2FeSNFeS2FeSFeS3H2NCS2HC3SC6H4CHCH2CH2C2H2SHC3SCH3C2HCH2SCNCH2C2H5NH2C5HC6H3CHFeHC2H3CHC5HCH2C2NH4SHC3HCH3C2H5CHSC2SFeCSFeS2FeSFeHS2C2HC2H2SC6H8C3H2C4H3CH3C2H2CHNCSC2H4NHC2HCSHCH2C4NH2CH2CHSHFeS2HC3SC3H2CSH2CHC2Fe2SNFeSHFeSFeS2CSNFeSHFeSC2SC2H2CH3CSHC2H2C6H4C4HCHCH3CHCFeC2SHCH2SC5HC3HCH2CSHCH3CHC3H2S2HNH2C2HNC2H4CH4NCHC2H3CSFeS2FeSFeS3HC9H4NC4HCH2SHCH3FeHC2HC3NCHC3H2CSCH4CHCH4CH3C3HCH2CHC2HFeS2HSH2C4HC2H2CH2SCH3C2FeC3H3CH2C2HSCHC4FeNHC2HC2HSHFeS2NFeS3FeS2FeS2FeSHCSCFeSFeSC7H4CFeCH3C6H5C3H2CHCHCNFeCH5C2HC3HSH2C3N2CHSC2H7CFeC4H2C2HCH2CH2C2HCHCH2CHNSHC3H2CHFeS2FeS2Fe2S3FeS2FeS2FeSFeHS3NSCSHFeSH2C6HC7H4C6H3C6H6C3H2CHCHCH4CHC3HC2HCHCNC4HSC2H2C2HNFeH2C3NHCH2CHCHCHNCH2CH2FeSH3CSH2CH3SCFeH8CHCFeSFeS3H3NHSC6FeC2H3C3H2CH5CHFeHCHSC2HC3HC2SCHC2H5FeCHCSFeCH2CHCFeCFeSNC2SHCSH2C4HNS2C2HCH3C2H3C2HCHS2HCSFeCSCH3SHSHFeC3SH3CSFeS2FeSFeS3HFeS2FeS2FeCFeS3FeCSFeS2C3H2C6H8C4H4CHC2HC8H4C2H2CHNC6H6FeHCNCHCH3CHCH4NC3HCHC3HCHCH3SHCHNCSCH2C2HCH5CNHCHCH3CHCH2SFeS2FeSHFeSFeS3FeS2FeSFeSFeS3FeS2CHNCS2H2FeHCHC9H4C3HC2HC2H2C7H4C6H4CH2CHNCHFeHC3H2NH2CNC4H5CHC2HCH2C2HC4H4CHC2NH3CHCHCHCH3CHSH2CFeCSH2CSHSNSHSHFeSHS2HFeS2HCHS2FeS2FeS2C7H6C6H4FeHFeCHC4HNFeHCHC3HC5H2C2HSCH4C4H3CHNHCHCFeH2NFeC2H2C2NHC2SHFeC3HCHC3H6CHC4H6SCHC3SHCSFeSCSHCHSFeS2FeSFeS3CH2C2H2C3H3C3H3SH3C7H4CFeH2C3H2C2H2CHCHNCNCH4SCHFeC2NHCHC2HCHSHC2HNCH2C4HFeH3CHCHSFeSH2C3HCHCHSFeSFe2SCFeSFeS2HC2FeSFeHSC2HC2HCHCH2SC3SHC3H2C6H4SHSH3CHSCS2H3CNC2NCH2CHC2H2CH4CH2CNHCNC2H2CH8NCHC3SFeSCFeSHFeSFeSHSCH2CHC2HNH2C2SC2HCHC6H5C3H5CHSHC3SCHNC3H3NC2H6CHCHSNC3HSHS2CHCH2S2FeSCFeSFeSCSHFeSHFeS2FeSFeS3CS2HC8H5C2HCHC3H3C4HCHCHNHCNCH2C3HFeHCHCHSCHCH2CHNCH4C5H2CHCH2NSHCSH2CHCHCH3C2SH4CHC3H2C3NH2CHFeC2HFeS2FeS2FeSCS2FeS2FeS2FeSFeS3FeSHFeSFeSFeS2CH6C6H5C4HC6H4NCHSCHC3NH3CHC2HNC5HFeH3CH2C2H2CHC2H2C2H2C2H8C4H2CHCHCHC5H4NH2CHCHCH2SH2N2C2HC3
_chemical_formula_sum              "Fe144 S288 H864 C864 N72"
_cell_length_a       57.7374
_cell_length_b       57.6374
_cell_length_c       36.7056
_cell_angle_alpha    90.1912
_cell_angle_beta     91.6193
_cell_angle_gamma    118.544

_space_group_name_H-M_alt    "P 1"
_space_group_IT_number       1

loop_
  _space_group_symop_operation_xyz
  'x, y, z'

loop_
  _atom_site_type_symbol
  _atom_site_label
  _atom_site_symmetry_multiplicity
  _atom_site_fract_x
  _atom_site_fract_y
  _atom_site_fract_z
  _atom_site_occupancy
  Fe  Fe1       1.0  0.18533  0.10740  0.08962  1.0000
  S   S1        1.0  0.21288  0.14186  0.05625  1.0000
  S   S2        1.0  0.15743  0.06675  0.06440  1.0000
  Fe  Fe2       1.0  0.19577  0.14237  0.15835  1.0000
  S   S3        1.0  0.22362  0.17877  0.12919  1.0000
  S   S4        1.0  0.19255  0.14524  0.21982  1.0000
  Fe  Fe3       1.0  0.19375  0.16354  0.08236  1.0000
  S   S5        1.0  0.18319  0.19309  0.05552  1.0000
  Fe  Fe4       1.0  0.24027  0.15385  0.10635  1.0000
  S   S6        1.0  0.28525  0.17282  0.10375  1.0000
  S   S7        1.0  0.16470  0.12869  0.11327  1.0000
  S   S8        1.0  0.21396  0.11789  0.13789  1.0000
  Fe  Fe5       1.0  0.45835  0.20253  0.17112  1.0000
  S   S9        1.0  0.43046  0.16286  0.19232  1.0000
  H   H1        1.0  0.34309  0.11350  0.16949  1.0000
  C   C1        1.0  0.14395  0.07060  0.49761  1.0000
  S   S10       1.0  0.43555  0.19170  0.27126  1.0000
  Fe  Fe6       1.0  0.45774  0.17440  0.24196  1.0000
  S   S11       1.0  0.46974  0.14372  0.26042  1.0000
  Fe  Fe7       1.0  0.41073  0.18367  0.21896  1.0000
  S   S12       1.0  0.36547  0.16268  0.21784  1.0000
  C   C2        1.0  0.48061  0.16591  0.10890  1.0000
  S   S13       1.0  0.43731  0.22319  0.19490  1.0000
  Fe  Fe8       1.0  0.12864  0.20257  0.35711  1.0000
  S   S14       1.0  0.16689  0.23147  0.38438  1.0000
  S   S15       1.0  0.12701  0.19396  0.29625  1.0000
  Fe  Fe9       1.0  0.09769  0.19749  0.42671  1.0000
  S   S16       1.0  0.13444  0.22672  0.45796  1.0000
  S   S17       1.0  0.05770  0.17096  0.45165  1.0000
  H   H2        1.0  0.49095  0.13460  0.10666  1.0000
  Fe  Fe10      1.0  0.15354  0.20465  0.43271  1.0000
  S   S18       1.0  0.18247  0.19231  0.45844  1.0000
  S   S19       1.0  0.10607  0.22288  0.37682  1.0000
  S   S20       1.0  0.11663  0.17441  0.40363  1.0000
  H   H3        1.0  0.23629  0.14728  0.26805  1.0000
  H   H4        1.0  0.12323  0.24130  0.26741  1.0000
  Fe  Fe11      1.0  0.46348  0.23006  0.24518  1.0000
  H   H5        1.0  0.20697  0.06702  0.04773  1.0000
  C   C3        1.0  0.29538  0.17298  0.25023  1.0000
  C   C4        1.0  0.00025  0.16336  0.07782  1.0000
  H   H6        1.0  0.29907  0.16205  0.27153  1.0000
  C   C5        1.0  0.48117  0.18752  0.09096  1.0000
  S   S21       1.0  0.48692  0.21293  0.21865  1.0000
  H   H7        1.0  0.14731  0.23735  0.24190  1.0000
  C   C6        1.0  0.16483  0.04472  0.03975  1.0000
  C   C7        1.0  0.28679  0.20068  0.19457  1.0000
  H   H8        1.0  0.13572  0.05062  0.48476  1.0000
  C   C8        1.0  0.02388  0.14321  0.05017  1.0000
  C   C9        1.0  0.17464  0.15939  0.24047  1.0000
  C   C10       1.0  0.17589  0.16235  0.27867  1.0000
  C   C11       1.0  0.16165  0.17315  0.29614  1.0000
  C   C12       1.0  0.14582  0.18086  0.27554  1.0000
  C   C13       1.0  0.14470  0.17805  0.23735  1.0000
  C   C14       1.0  0.15911  0.16747  0.21986  1.0000
  H   H9        1.0  0.18783  0.15616  0.29483  1.0000
  H   H10       1.0  0.16272  0.17524  0.32553  1.0000
  H   H11       1.0  0.13243  0.18385  0.22118  1.0000
  H   H12       1.0  0.15791  0.16523  0.19048  1.0000
  C   C15       1.0  0.34370  0.16575  0.18544  1.0000
  C   C16       1.0  0.31656  0.14771  0.18612  1.0000
  C   C17       1.0  0.29840  0.14961  0.16142  1.0000
  C   C18       1.0  0.30721  0.16961  0.13566  1.0000
  C   C19       1.0  0.33437  0.18755  0.13481  1.0000
  C   C20       1.0  0.35253  0.18570  0.15960  1.0000
  H   H13       1.0  0.30952  0.13220  0.20600  1.0000
  H   H14       1.0  0.27760  0.13558  0.16228  1.0000
  H   H15       1.0  0.34139  0.20308  0.11495  1.0000
  H   H16       1.0  0.37333  0.19974  0.15878  1.0000
  H   H17       1.0  0.17935  0.09441  0.44690  1.0000
  H   H18       1.0  0.28319  0.21080  0.17201  1.0000
  C   C21       1.0  0.15701  0.18448  0.02296  1.0000
  H   H19       1.0  0.42482  0.15323  0.10632  1.0000
  C   C22       1.0  0.49124  0.19340  0.05582  1.0000
  C   C23       1.0  0.24796  0.14119  0.25060  1.0000
  C   C24       1.0  0.03566  0.18776  0.03713  1.0000
  H   H20       1.0  0.15667  0.22144  0.03021  1.0000
  H   H21       1.0  0.25437  0.12885  0.26667  1.0000
  H   H22       1.0  0.06271  0.22095  0.48007  1.0000
  H   H23       1.0  0.41768  0.18477  0.06825  1.0000
  C   C25       1.0  0.04664  0.20474  0.49334  1.0000
  H   H24       1.0  0.33582  0.14527  0.09481  1.0000
  C   C26       1.0  0.49103  0.15100  0.09234  1.0000
  C   C27       1.0  0.00407  0.14143  0.07295  1.0000
  H   H25       1.0  0.10870  0.08806  0.48931  1.0000
  H   H26       1.0  0.06683  0.15351  0.01541  1.0000
  H   H27       1.0  0.38776  0.11881  0.13972  1.0000
  C   C28       1.0  0.37603  0.16680  0.07870  1.0000
  C   C29       1.0  0.19073  0.04964  0.03514  1.0000
  H   H28       1.0  0.21572  0.03584  0.01097  1.0000
  C   C30       1.0  0.26586  0.17841  0.20919  1.0000
  C   C31       1.0  0.31679  0.19528  0.23640  1.0000
  N   N1        1.0  0.03953  0.16626  0.03290  1.0000
  H   H29       1.0  0.31919  0.10976  0.13440  1.0000
  C   C32       1.0  0.40528  0.15147  0.10351  1.0000
  C   C33       1.0  0.05932  0.16742  0.00771  1.0000
  H   H30       1.0  0.23468  0.12857  0.22786  1.0000
  H   H31       1.0  0.24601  0.17190  0.19841  1.0000
  H   H32       1.0  0.33674  0.20119  0.24650  1.0000
  H   H33       1.0  0.18037  0.12678  0.40171  1.0000
  C   C34       1.0  0.14394  0.02199  0.02325  1.0000
  H   H34       1.0  0.16531  0.24948  0.31016  1.0000
  N   N2        1.0  0.35966  0.12994  0.11906  1.0000
  C   C35       1.0  0.38423  0.13200  0.12219  1.0000
  C   C36       1.0  0.35529  0.14680  0.09729  1.0000
  H   H35       1.0  0.12384  0.01808  0.02659  1.0000
  C   C37       1.0  0.33822  0.10970  0.13976  1.0000
  H   H36       1.0  0.04710  0.20562  0.02200  1.0000
  C   C38       1.0  0.01614  0.18671  0.05987  1.0000
  S   S22       1.0  0.47031  0.20808  0.11205  1.0000
  H   H37       1.0  0.33539  0.08978  0.13249  1.0000
  N   N3        1.0  0.14413  0.08956  0.47089  1.0000
  C   C39       1.0  0.12430  0.09620  0.46985  1.0000
  C   C40       1.0  0.16380  0.09990  0.44632  1.0000
  C   C41       1.0  0.12429  0.11425  0.44441  1.0000
  C   C42       1.0  0.16444  0.11807  0.42061  1.0000
  C   C43       1.0  0.14461  0.12536  0.41984  1.0000
  C   C44       1.0  0.14839  0.20300  0.01486  1.0000
  H   H38       1.0  0.07670  0.18746  0.00788  1.0000
  C   C45       1.0  0.40121  0.16915  0.08199  1.0000
  H   H39       1.0  0.10900  0.12013  0.44430  1.0000
  H   H40       1.0  0.47268  0.16100  0.13583  1.0000
  H   H41       1.0  0.14525  0.13995  0.40064  1.0000
  H   H42       1.0  0.20868  0.24213  0.01124  1.0000
  C   C46       1.0  0.31242  0.20908  0.20822  1.0000
  C   C47       1.0  0.49261  0.14833  0.29670  1.0000
  N   N4        1.0  0.27035  0.16464  0.23623  1.0000
  H   H43       1.0  0.37263  0.18055  0.06224  1.0000
  H   H44       1.0  0.48714  0.10874  0.29140  1.0000
  C   C48       1.0  0.04105  0.17877  0.48558  1.0000
  H   H45       1.0  0.00588  0.17684  0.41757  1.0000
  H   H46       1.0  0.01550  0.13780  0.49717  1.0000
  C   C49       1.0  0.19562  0.03192  0.01433  1.0000
  H   H47       1.0  0.02629  0.12587  0.04586  1.0000
  H   H48       1.0  0.20976  0.16464  0.48322  1.0000
  C   C50       1.0  0.17456  0.16776  0.49178  1.0000
  H   H49       1.0  0.32893  0.22581  0.19632  1.0000
  C   C51       1.0  0.19218  0.15781  0.49896  1.0000
  H   H50       1.0  0.01255  0.20349  0.06215  1.0000
  H   H51       1.0  0.49156  0.20998  0.04163  1.0000
  H   H52       1.0  0.15273  0.14634  0.00892  1.0000
  C   C52       1.0  0.14884  0.00445  0.00206  1.0000
  C   C53       1.0  0.14620  0.16071  0.00297  1.0000
  Fe  Fe12      1.0  0.05575  0.21093  0.84691  1.0000
  C   C54       1.0  0.15843  0.08235  0.97234  1.0000
  S   S23       1.0  0.04351  0.20848  0.78711  1.0000
  Fe  Fe13      1.0  0.08212  0.19672  0.91019  1.0000
  S   S24       1.0  0.08280  0.22813  0.94697  1.0000
  S   S25       1.0  0.09697  0.16840  0.92842  1.0000
  Fe  Fe14      1.0  0.04119  0.21376  0.92524  1.0000
  H   H53       1.0  0.21371  0.16275  0.62894  1.0000
  Fe  Fe15      1.0  0.41377  0.23757  0.71955  1.0000
  S   S26       1.0  0.03961  0.18076  0.89092  1.0000
  S   S27       1.0  0.09817  0.22346  0.86233  1.0000
  H   H54       1.0  0.05066  0.16239  0.97951  1.0000
  H   H55       1.0  0.16117  0.00709  0.89057  1.0000
  Fe  Fe16      1.0  0.19837  0.04698  0.58454  1.0000
  S   S28       1.0  0.16777  0.04846  0.61967  1.0000
  N   N5        1.0  0.31798  0.11449  0.69836  1.0000
  Fe  Fe17      1.0  0.24196  0.10168  0.61216  1.0000
  S   S29       1.0  0.21426  0.10686  0.64878  1.0000
  S   S30       1.0  0.28493  0.13216  0.60374  1.0000
  Fe  Fe18      1.0  0.19973  0.06424  0.66393  1.0000
  S   S31       1.0  0.19934  0.05492  0.72458  1.0000
  Fe  Fe19      1.0  0.18515  0.09079  0.60111  1.0000
  S   S32       1.0  0.15905  0.10890  0.58419  1.0000
  S   S33       1.0  0.22940  0.06023  0.62982  1.0000
  S   S34       1.0  0.21368  0.08816  0.56333  1.0000
  H   H56       1.0  0.33295  0.12073  0.64482  1.0000
  H   H57       1.0  0.06877  0.22926  0.66258  1.0000
  N   N6        1.0  0.19382  0.24279  0.95774  1.0000
  C   C55       1.0  0.13646  0.04239  0.93376  1.0000
  S   S35       1.0  0.36985  0.20768  0.72346  1.0000
  S   S36       1.0  0.44555  0.23072  0.69537  1.0000
  H   H58       1.0  0.17576  0.09176  0.99171  1.0000
  C   C56       1.0  0.16164  0.22977  0.90827  1.0000
  C   C57       1.0  0.18388  0.04269  0.92261  1.0000
  C   C58       1.0  0.48733  0.20873  0.80856  1.0000
  S   S37       1.0  0.46950  0.13221  0.86859  1.0000
  C   C59       1.0  0.34617  0.18958  0.68830  1.0000
  C   C60       1.0  0.35334  0.18780  0.65274  1.0000
  C   C61       1.0  0.33415  0.17077  0.62684  1.0000
  C   C62       1.0  0.30768  0.15524  0.63624  1.0000
  C   C63       1.0  0.30031  0.15775  0.67138  1.0000
  C   C64       1.0  0.31947  0.17494  0.69717  1.0000
  H   H59       1.0  0.37379  0.19899  0.64551  1.0000
  H   H60       1.0  0.34002  0.16906  0.59965  1.0000
  H   H61       1.0  0.28002  0.14605  0.67899  1.0000
  H   H62       1.0  0.31370  0.17637  0.72453  1.0000
  C   C65       1.0  0.30212  0.11964  0.75609  1.0000
  H   H63       1.0  0.15798  0.09776  0.95478  1.0000
  C   C66       1.0  0.46223  0.18670  0.80585  1.0000
  H   H64       1.0  0.19880  0.03709  0.79773  1.0000
  H   H65       1.0  0.14814  0.21474  0.88894  1.0000
  C   C67       1.0  0.22630  0.17256  0.60638  1.0000
  H   H66       1.0  0.44712  0.18717  0.78822  1.0000
  H   H67       1.0  0.06696  0.19998  0.71288  1.0000
  C   C68       1.0  0.16504  0.13075  0.54755  1.0000
  C   C69       1.0  0.14714  0.14029  0.53990  1.0000
  H   H68       1.0  0.19023  0.19672  0.56488  1.0000
  H   H69       1.0  0.04509  0.13751  0.71012  1.0000
  S   S38       1.0  0.48601  0.10143  0.95648  1.0000
  H   H70       1.0  0.28934  0.08594  0.66120  1.0000
  C   C70       1.0  0.23637  0.20009  0.55478  1.0000
  C   C71       1.0  0.12743  0.15586  0.97454  1.0000
  C   C72       1.0  0.11924  0.17463  0.96594  1.0000
  S   S39       1.0  0.19310  0.01140  0.55111  1.0000
  C   C73       1.0  0.03661  0.19815  0.63156  1.0000
  H   H71       1.0  0.04310  0.15952  0.74365  1.0000
  H   H72       1.0  0.11947  0.13760  0.95881  1.0000
  H   H73       1.0  0.20394  0.20876  0.61024  1.0000
  C   C74       1.0  0.00404  0.16291  0.52678  1.0000
  C   C75       1.0  0.15778  0.00339  0.72601  1.0000
  H   H74       1.0  0.20139  0.13216  0.53221  1.0000
  C   C76       1.0  0.03075  0.20972  0.51731  1.0000
  H   H75       1.0  0.03697  0.21083  0.60948  1.0000
  H   H76       1.0  0.20515  0.21576  0.98224  1.0000
  S   S40       1.0  0.05473  0.24332  0.87990  1.0000
  C   C77       1.0  0.47643  0.16247  0.84765  1.0000
  N   N7        1.0  0.03488  0.16555  0.68832  1.0000
  C   C78       1.0  0.15183  0.15869  0.51211  1.0000
  H   H77       1.0  0.11866  0.00701  0.89964  1.0000
  H   H78       1.0  0.27043  0.20580  0.52503  1.0000
  C   C79       1.0  0.29315  0.09531  0.68801  1.0000
  C   C80       1.0  0.27670  0.10023  0.74563  1.0000
  H   H79       1.0  0.34237  0.14184  0.74019  1.0000
  H   H80       1.0  0.03490  0.22986  0.52249  1.0000
  H   H81       1.0  0.14576  0.01433  0.52750  1.0000
  H   H82       1.0  0.01345  0.13354  0.72359  1.0000
  H   H83       1.0  0.11779  0.04200  0.93820  1.0000
  N   N8        1.0  0.15927  0.06166  0.94992  1.0000
  H   H84       1.0  0.15420  0.00556  0.69746  1.0000
  H   H85       1.0  0.12971  0.13371  0.55591  1.0000
  C   C81       1.0  0.03417  0.14815  0.71781  1.0000
  C   C82       1.0  0.32273  0.12638  0.73211  1.0000
  C   C83       1.0  0.00493  0.19007  0.73375  1.0000
  C   C84       1.0  0.26422  0.18091  0.57145  1.0000
  C   C85       1.0  0.33978  0.12147  0.67368  1.0000
  H   H86       1.0  0.13212  0.06956  0.52156  1.0000
  C   C86       1.0  0.18279  0.02108  0.78253  1.0000
  C   C87       1.0  0.18284  0.06219  0.94425  1.0000
  C   C88       1.0  0.12955  0.19810  0.98656  1.0000
  C   C89       1.0  0.05338  0.19172  0.68950  1.0000
  C   C90       1.0  0.01748  0.15526  0.65913  1.0000
  C   C91       1.0  0.17852  0.02431  0.74535  1.0000
  H   H87       1.0  0.25304  0.15710  0.61928  1.0000
  H   H88       1.0  0.18142  0.17404  0.60147  1.0000
  H   H89       1.0  0.00343  0.15650  0.81043  1.0000
  C   C92       1.0  0.24830  0.16903  0.60090  1.0000
  H   H90       1.0  0.23171  0.21212  0.53637  1.0000
  Fe  Fe20      1.0  0.46869  0.24778  0.74818  1.0000
  H   H91       1.0  0.12357  0.21280  0.98013  1.0000
  C   C93       1.0  0.13681  0.02260  0.91190  1.0000
  C   C94       1.0  0.00910  0.18883  0.53363  1.0000
  H   H92       1.0  0.26036  0.09474  0.76369  1.0000
  H   H93       1.0  0.14077  0.07383  0.98954  1.0000
  H   H94       1.0  0.28110  0.17786  0.56681  1.0000
  C   C95       1.0  0.27221  0.08785  0.71154  1.0000
  H   H95       1.0  0.17609  0.20480  0.93138  1.0000
  C   C96       1.0  0.47811  0.00713  0.51945  1.0000
  C   C97       1.0  0.01808  0.17140  0.63041  1.0000
  C   C98       1.0  0.16069  0.02274  0.90652  1.0000
  C   C99       1.0  0.18745  0.13934  0.52664  1.0000
  C   C100      1.0  0.01286  0.18496  0.76789  1.0000
  H   H96       1.0  0.25253  0.07263  0.70343  1.0000
  C   C101      1.0  0.25825  0.19655  0.54815  1.0000
  H   H97       1.0  0.46855  0.01529  0.53621  1.0000
  H   H98       1.0  0.30585  0.12962  0.78241  1.0000
  C   C102      1.0  0.17752  0.22427  0.93239  1.0000
  C   C103      1.0  0.45688  0.16365  0.82516  1.0000
  N   N9        1.0  0.22053  0.18786  0.58335  1.0000
  H   H99       1.0  0.43757  0.14649  0.82236  1.0000
  H   H100      1.0  0.34788  0.10756  0.67693  1.0000
  H   H101      1.0  0.35585  0.14197  0.67920  1.0000
  H   H102      1.0  0.01678  0.20887  0.72107  1.0000
  S   S41       1.0  0.00670  0.20836  0.95968  1.0000
  H   H103      1.0  0.20236  0.04235  0.91956  1.0000
  C   C104      1.0  0.05442  0.20844  0.66126  1.0000
  C   C105      1.0  0.21073  0.23711  0.98262  1.0000
  C   C106      1.0  0.19798  0.19214  0.59041  1.0000
  H   H104      1.0  0.20088  0.07720  0.95747  1.0000
  C   C107      1.0  0.99736  0.16068  0.78419  1.0000
  H   H105      1.0  0.23167  0.24860  0.97510  1.0000
  H   H106      1.0  0.99958  0.15445  0.96233  1.0000
  H   H107      1.0  0.00415  0.16333  0.60747  1.0000
  C   C108      1.0  0.17474  0.00933  0.99754  1.0000
  C   C109      1.0  0.49155  0.01899  0.97683  1.0000
  H   H108      1.0  0.48403  0.14116  0.76806  1.0000
  H   H109      1.0  0.00268  0.13456  0.65823  1.0000
  H   H110      1.0  0.48776  0.18128  0.74102  1.0000
  H   H111      1.0  0.99635  0.20855  0.87938  1.0000
  H   H112      1.0  0.13811  0.16621  0.50685  1.0000
  C   C110      1.0  0.01997  0.15795  0.50297  1.0000
  H   H113      1.0  0.16426  0.07672  0.50854  1.0000
  S   S42       1.0  0.34139  0.46704  0.13555  1.0000
  C   C111      1.0  0.31820  0.45708  0.03854  1.0000
  C   C112      1.0  0.45950  0.28139  0.47868  1.0000
  S   S43       1.0  0.16338  0.29612  0.40487  1.0000
  Fe  Fe21      1.0  0.16725  0.46227  0.24772  1.0000
  C   C113      1.0  0.32075  0.45259  0.00187  1.0000
  S   S44       1.0  0.13753  0.47421  0.22353  1.0000
  Fe  Fe22      1.0  0.17822  0.41778  0.27726  1.0000
  S   S45       1.0  0.21847  0.44718  0.30007  1.0000
  S   S46       1.0  0.15946  0.37245  0.28064  1.0000
  Fe  Fe23      1.0  0.19788  0.46952  0.31988  1.0000
  S   S47       1.0  0.20515  0.48635  0.37768  1.0000
  Fe  Fe24      1.0  0.22316  0.46885  0.24726  1.0000
  H   H114      1.0  0.46779  0.35256  0.27139  1.0000
  S   S48       1.0  0.15761  0.43922  0.29988  1.0000
  S   S49       1.0  0.18415  0.43813  0.22263  1.0000
  C   C114      1.0  0.05217  0.48147  0.10216  1.0000
  C   C115      1.0  0.46488  0.30254  0.45577  1.0000
  H   H115      1.0  0.04835  0.45846  0.14999  1.0000
  C   C116      1.0  0.17023  0.29946  0.25842  1.0000
  C   C117      1.0  0.14314  0.49619  0.18706  1.0000
  H   H116      1.0  0.12809  0.46871  0.10653  1.0000
  H   H117      1.0  0.10414  0.46576  0.46893  1.0000
  S   S50       1.0  0.46563  0.34598  0.37156  1.0000
  C   C118      1.0  0.16037  0.31713  0.37147  1.0000
  C   C119      1.0  0.17722  0.34461  0.37441  1.0000
  C   C120      1.0  0.17667  0.36193  0.34759  1.0000
  C   C121      1.0  0.15914  0.35200  0.31738  1.0000
  C   C122      1.0  0.14184  0.32458  0.31490  1.0000
  C   C123      1.0  0.14246  0.30725  0.34164  1.0000
  H   H118      1.0  0.19113  0.35253  0.39734  1.0000
  H   H119      1.0  0.19018  0.38289  0.34994  1.0000
  H   H120      1.0  0.12812  0.31663  0.29179  1.0000
  H   H121      1.0  0.12927  0.28624  0.33899  1.0000
  H   H122      1.0  0.46399  0.26593  0.47037  1.0000
  H   H123      1.0  0.34862  0.48268  0.23683  1.0000
  H   H124      1.0  0.29388  0.46181  0.07807  1.0000
  H   H125      1.0  0.17793  0.43141  0.41707  1.0000
  C   C124      1.0  0.45656  0.28466  0.30657  1.0000
  C   C125      1.0  0.45167  0.30222  0.32779  1.0000
  C   C126      1.0  0.49338  0.48900  0.46171  1.0000
  H   H126      1.0  0.44087  0.26950  0.28982  1.0000
  H   H127      1.0  0.43209  0.30031  0.32736  1.0000
  C   C127      1.0  0.31719  0.47361  0.15464  1.0000
  C   C128      1.0  0.29865  0.45507  0.17787  1.0000
  C   C129      1.0  0.28016  0.46036  0.19534  1.0000
  C   C130      1.0  0.27998  0.48424  0.18951  1.0000
  H   H128      1.0  0.29897  0.43675  0.18306  1.0000
  H   H129      1.0  0.26653  0.44627  0.21400  1.0000
  H   H130      1.0  0.21551  0.33282  0.32640  1.0000
  C   C131      1.0  0.44430  0.43444  0.49951  1.0000
  H   H131      1.0  0.10805  0.49925  0.19685  1.0000
  H   H132      1.0  0.10108  0.49935  0.04198  1.0000
  H   H133      1.0  0.13542  0.49075  0.06935  1.0000
  C   C132      1.0  0.14049  0.25170  0.24979  1.0000
  C   C133      1.0  0.05965  0.46722  0.12600  1.0000
  H   H134      1.0  0.11365  0.45573  0.06175  1.0000
  H   H135      1.0  0.17861  0.42422  0.46464  1.0000
  C   C134      1.0  0.48776  0.35540  0.27107  1.0000
  H   H136      1.0  0.47336  0.30360  0.42935  1.0000
  N   N10       1.0  0.09659  0.47606  0.08899  1.0000
  C   C135      1.0  0.06694  0.49271  0.07154  1.0000
  S   S51       1.0  0.48244  0.39733  0.44991  1.0000
  C   C136      1.0  0.48200  0.28753  0.30591  1.0000
  C   C137      1.0  0.14056  0.44343  0.42413  1.0000
  H   H137      1.0  0.45439  0.42933  0.47798  1.0000
  H   H138      1.0  0.25884  0.45562  0.03226  1.0000
  H   H139      1.0  0.42291  0.45127  0.02428  1.0000
  H   H140      1.0  0.47771  0.32175  0.23562  1.0000
  N   N11       1.0  0.15773  0.44533  0.45193  1.0000
  H   H141      1.0  0.17908  0.49739  0.17016  1.0000
  C   C138      1.0  0.17917  0.43921  0.44525  1.0000
  C   C139      1.0  0.15568  0.45390  0.48592  1.0000
  H   H142      1.0  0.19614  0.34100  0.26970  1.0000
  C   C140      1.0  0.19014  0.32091  0.27809  1.0000
  S   S52       1.0  0.39189  0.48341  0.05755  1.0000
  H   H143      1.0  0.19848  0.45753  0.44826  1.0000
  C   C141      1.0  0.08936  0.49001  0.06546  1.0000
  H   H144      1.0  0.08766  0.45343  0.13749  1.0000
  H   H145      1.0  0.14274  0.43756  0.39685  1.0000
  C   C142      1.0  0.47211  0.32272  0.34853  1.0000
  C   C143      1.0  0.20100  0.31634  0.30992  1.0000
  C   C144      1.0  0.11869  0.45929  0.46448  1.0000
  C   C145      1.0  0.19210  0.29051  0.32149  1.0000
  N   N12       1.0  0.16167  0.27417  0.26994  1.0000
  H   H146      1.0  0.33366  0.46000  0.05839  1.0000
  H   H147      1.0  0.19970  0.28683  0.34695  1.0000
  C   C146      1.0  0.29578  0.45806  0.04957  1.0000
  H   H148      1.0  0.46356  0.33896  0.44941  1.0000
  H   H149      1.0  0.00190  0.45040  0.45266  1.0000
  C   C147      1.0  0.08188  0.46442  0.11872  1.0000
  H   H150      1.0  0.10787  0.44982  0.40761  1.0000
  S   S53       1.0  0.49152  0.46675  0.42668  1.0000
  H   H151      1.0  0.13386  0.25780  0.22467  1.0000
  Fe  Fe25      1.0  0.37609  0.49691  0.10363  1.0000
  S   S54       1.0  0.20625  0.49389  0.26972  1.0000
  S   S55       1.0  0.49036  0.26912  0.27517  1.0000
  H   H152      1.0  0.16129  0.30333  0.23447  1.0000
  C   C148      1.0  0.17239  0.26953  0.30093  1.0000
  C   C149      1.0  0.11950  0.47253  0.08121  1.0000
  C   C150      1.0  0.45936  0.32245  0.46700  1.0000
  S   S56       1.0  0.25995  0.49378  0.21455  1.0000
  C   C151      1.0  0.12079  0.45035  0.43000  1.0000
  C   C152      1.0  0.49332  0.33813  0.25105  1.0000
  C   C153      1.0  0.13612  0.46096  0.49274  1.0000
  H   H153      1.0  0.44010  0.44985  0.48775  1.0000
  H   H154      1.0  0.16192  0.49358  0.34714  1.0000
  C   C154      1.0  0.31648  0.49714  0.14799  1.0000
  S   S57       1.0  0.46322  0.49738  0.08098  1.0000
  H   H155      1.0  0.03500  0.48391  0.10726  1.0000
  H   H156      1.0  0.46520  0.49794  0.43412  1.0000
  C   C155      1.0  0.27606  0.45445  0.02359  1.0000
  H   H157      1.0  0.45089  0.43267  0.00150  1.0000
  C   C156      1.0  0.18604  0.49994  0.39572  1.0000
  C   C157      1.0  0.48439  0.49997  0.04513  1.0000
  Fe  Fe26      1.0  0.14410  0.25078  0.40620  1.0000
  Fe  Fe27      1.0  0.26742  0.47017  0.82528  1.0000
  S   S58       1.0  0.27099  0.43649  0.79962  1.0000
  N   N13       1.0  0.46107  0.44431  0.53272  1.0000
  Fe  Fe28      1.0  0.23758  0.47582  0.75826  1.0000
  S   S59       1.0  0.23902  0.44274  0.72817  1.0000
  H   H158      1.0  0.47280  0.32418  0.88851  1.0000
  Fe  Fe29      1.0  0.22836  0.42093  0.78149  1.0000
  S   S60       1.0  0.19449  0.37821  0.77895  1.0000
  Fe  Fe30      1.0  0.28137  0.46143  0.74889  1.0000
  S   S61       1.0  0.31357  0.46550  0.71044  1.0000
  S   S62       1.0  0.22424  0.45317  0.81001  1.0000
  C   C158      1.0  0.13405  0.41506  0.70880  1.0000
  S   S63       1.0  0.13143  0.29623  0.90395  1.0000
  N   N14       1.0  0.44312  0.30009  0.52327  1.0000
  Fe  Fe31      1.0  0.46265  0.27313  0.67703  1.0000
  S   S64       1.0  0.42955  0.27892  0.69845  1.0000
  H   H159      1.0  0.15168  0.47418  0.75056  1.0000
  Fe  Fe32      1.0  0.45455  0.29247  0.75055  1.0000
  S   S65       1.0  0.45876  0.32706  0.78560  1.0000
  C   C159      1.0  0.47128  0.29178  0.85775  1.0000
  C   C160      1.0  0.48919  0.31460  0.59937  1.0000
  S   S66       1.0  0.47756  0.28303  0.61906  1.0000
  C   C161      1.0  0.44721  0.44617  0.98488  1.0000
  C   C162      1.0  0.44843  0.32094  0.50102  1.0000
  H   H160      1.0  0.18009  0.29239  0.93723  1.0000
  H   H161      1.0  0.45212  0.28643  0.84503  1.0000
  C   C163      1.0  0.35050  0.49250  0.90811  1.0000
  H   H162      1.0  0.40905  0.29045  0.55360  1.0000
  H   H163      1.0  0.46593  0.47981  0.90620  1.0000
  H   H164      1.0  0.43403  0.28538  0.57742  1.0000
  C   C164      1.0  0.43147  0.45657  0.99764  1.0000
  S   S67       1.0  0.27828  0.48566  0.88376  1.0000
  H   H165      1.0  0.26073  0.44000  0.93380  1.0000
  C   C165      1.0  0.17360  0.46628  0.64554  1.0000
  C   C166      1.0  0.19143  0.47158  0.67541  1.0000
  H   H166      1.0  0.16714  0.44841  0.62933  1.0000
  H   H167      1.0  0.19848  0.45775  0.68225  1.0000
  C   C167      1.0  0.17729  0.35586  0.81435  1.0000
  C   C168      1.0  0.15658  0.33057  0.80479  1.0000
  C   C169      1.0  0.14228  0.31217  0.83171  1.0000
  C   C170      1.0  0.14853  0.31882  0.86873  1.0000
  C   C171      1.0  0.16924  0.34413  0.87831  1.0000
  C   C172      1.0  0.18350  0.36255  0.85137  1.0000
  H   H168      1.0  0.15160  0.32508  0.77630  1.0000
  H   H169      1.0  0.12647  0.29284  0.82379  1.0000
  H   H170      1.0  0.17427  0.34955  0.90680  1.0000
  H   H171      1.0  0.19932  0.38188  0.85926  1.0000
  C   C173      1.0  0.45868  0.46197  0.55524  1.0000
  C   C174      1.0  0.13521  0.43953  0.71548  1.0000
  C   C175      1.0  0.48863  0.34913  0.80892  1.0000
  C   C176      1.0  0.48657  0.33487  0.61657  1.0000
  H   H172      1.0  0.12359  0.40390  0.68439  1.0000
  C   C177      1.0  0.17947  0.27325  0.93573  1.0000
  H   H173      1.0  0.47870  0.33198  0.64359  1.0000
  C   C178      1.0  0.45918  0.45419  0.95141  1.0000
  H   H174      1.0  0.47341  0.48660  0.60381  1.0000
  H   H175      1.0  0.47234  0.44707  0.94189  1.0000
  H   H176      1.0  0.17061  0.41311  0.78040  1.0000
  C   C179      1.0  0.43062  0.29839  0.55810  1.0000
  H   H177      1.0  0.13496  0.46835  0.51953  1.0000
  C   C180      1.0  0.19494  0.26703  0.95963  1.0000
  Fe  Fe33      1.0  0.09638  0.25438  0.89768  1.0000
  C   C181      1.0  0.49442  0.44424  0.57335  1.0000
  C   C182      1.0  0.32696  0.48736  0.88914  1.0000
  S   S68       1.0  0.09896  0.49454  0.53361  1.0000
  H   H178      1.0  0.30592  0.46871  0.61050  1.0000
  C   C183      1.0  0.14572  0.38040  0.72464  1.0000
  H   H179      1.0  0.36417  0.48731  0.89555  1.0000
  H   H180      1.0  0.27439  0.46904  0.65417  1.0000
  S   S69       1.0  0.48858  0.28951  0.72761  1.0000
  C   C184      1.0  0.28600  0.48665  0.63867  1.0000
  C   C185      1.0  0.16044  0.42037  0.76222  1.0000
  C   C186      1.0  0.14956  0.45463  0.74594  1.0000
  C   C187      1.0  0.35608  0.49362  0.66722  1.0000
  C   C188      1.0  0.16371  0.48373  0.63695  1.0000
  H   H181      1.0  0.24991  0.48956  0.67655  1.0000
  C   C189      1.0  0.45561  0.47293  0.93142  1.0000
  C   C190      1.0  0.47839  0.43514  0.54167  1.0000
  C   C191      1.0  0.33795  0.49503  0.69082  1.0000
  H   H182      1.0  0.12604  0.44727  0.69631  1.0000
  C   C192      1.0  0.25773  0.44643  0.96109  1.0000
  H   H183      1.0  0.23808  0.43143  0.97019  1.0000
  H   H184      1.0  0.30298  0.44595  0.94808  1.0000
  C   C193      1.0  0.30384  0.48633  0.61393  1.0000
  S   S70       1.0  0.43592  0.25177  0.77370  1.0000
  H   H185      1.0  0.15093  0.25928  0.89113  1.0000
  C   C194      1.0  0.19932  0.49434  0.69702  1.0000
  H   H186      1.0  0.35591  0.47494  0.66312  1.0000
  H   H187      1.0  0.42547  0.41671  0.50559  1.0000
  H   H188      1.0  0.44461  0.33676  0.50972  1.0000
  C   C195      1.0  0.48945  0.36965  0.83071  1.0000
  H   H189      1.0  0.25779  0.46561  0.95740  1.0000
  C   C196      1.0  0.99824  0.48849  0.97123  1.0000
  C   C197      1.0  0.42822  0.47517  0.97685  1.0000
  C   C198      1.0  0.30053  0.44877  0.97669  1.0000
  H   H190      1.0  0.12989  0.36811  0.70432  1.0000
  H   H191      1.0  0.17417  0.45711  0.79255  1.0000
  S   S71       1.0  0.28050  0.49594  0.77602  1.0000
  S   S72       1.0  0.13974  0.47544  0.60115  1.0000
  H   H192      1.0  0.14213  0.36877  0.74999  1.0000
  N   N15       1.0  0.14635  0.40568  0.73229  1.0000
  H   H193      1.0  0.16506  0.38401  0.71428  1.0000
  H   H194      1.0  0.47214  0.37230  0.83177  1.0000
  C   C199      1.0  0.16230  0.44507  0.76945  1.0000
  C   C200      1.0  0.44841  0.28039  0.51248  1.0000
  H   H195      1.0  0.41699  0.49507  0.91217  1.0000
  N   N16       1.0  0.27852  0.44966  0.98774  1.0000
  C   C201      1.0  0.48315  0.31320  0.88231  1.0000
  C   C202      1.0  0.47451  0.47160  0.58705  1.0000
  H   H196      1.0  0.44532  0.46965  0.54793  1.0000
  H   H197      1.0  0.43915  0.31816  0.57170  1.0000
  H   H198      1.0  0.00537  0.48732  0.94472  1.0000
  H   H199      1.0  0.32254  0.47817  0.86226  1.0000
  C   C203      1.0  0.49253  0.46269  0.59606  1.0000
  H   H200      1.0  0.47573  0.26125  0.82982  1.0000
  H   H201      1.0  0.16956  0.45590  0.50781  1.0000
  H   H202      1.0  0.44461  0.26408  0.53041  1.0000
  H   H203      1.0  0.20777  0.28166  0.97980  1.0000
  N   N17       1.0  0.44055  0.48342  0.94451  1.0000
  C   C204      1.0  0.48463  0.27789  0.84881  1.0000
  H   H204      1.0  0.48024  0.42103  0.52403  1.0000
  C   C205      1.0  0.16287  0.25452  0.90981  1.0000
  C   C206      1.0  0.30910  0.49387  0.90514  1.0000
  H   H205      1.0  0.41658  0.48373  0.98733  1.0000
  H   H206      1.0  0.33858  0.45276  0.99285  1.0000
  H   H207      1.0  0.49148  0.37428  0.61204  1.0000
  C   C207      1.0  0.49370  0.35879  0.59851  1.0000
  S   S73       1.0  0.02890  0.52838  0.06816  1.0000
  Fe  Fe34      1.0  0.11642  0.61375  0.09303  1.0000
  S   S74       1.0  0.14659  0.61264  0.05677  1.0000
  S   S75       1.0  0.12292  0.64995  0.12653  1.0000
  Fe  Fe35      1.0  0.07230  0.55923  0.06343  1.0000
  S   S76       1.0  0.09991  0.55481  0.02590  1.0000
  Fe  Fe36      1.0  0.12894  0.56986  0.07393  1.0000
  S   S77       1.0  0.15417  0.55050  0.08982  1.0000
  S   S78       1.0  0.10049  0.57193  0.11247  1.0000
  S   S79       1.0  0.08520  0.60116  0.04810  1.0000
  H   H208      1.0  0.11401  0.52927  0.14530  1.0000
  C   C208      1.0  0.16819  0.52131  0.13564  1.0000
  C   C209      1.0  0.14988  0.53040  0.12825  1.0000
  C   C210      1.0  0.12831  0.52252  0.15070  1.0000
  C   C211      1.0  0.19766  0.71068  0.19046  1.0000
  C   C212      1.0  0.19701  0.68824  0.17405  1.0000
  C   C213      1.0  0.17445  0.66962  0.15407  1.0000
  C   C214      1.0  0.15211  0.67309  0.15063  1.0000
  C   C215      1.0  0.15279  0.69556  0.16693  1.0000
  C   C216      1.0  0.17544  0.71431  0.18666  1.0000
  H   H209      1.0  0.21410  0.68525  0.17681  1.0000
  H   H210      1.0  0.17426  0.65249  0.14164  1.0000
  H   H211      1.0  0.13563  0.69846  0.16439  1.0000
  H   H212      1.0  0.13339  0.55267  0.25959  1.0000
  N   N18       1.0  0.16588  0.54527  0.25317  1.0000
  C   C217      1.0  0.15052  0.55666  0.24393  1.0000
  C   C218      1.0  0.17812  0.57803  0.19323  1.0000
  C   C219      1.0  0.18758  0.55037  0.23356  1.0000
  C   C220      1.0  0.15633  0.57312  0.21377  1.0000
  H   H213      1.0  0.14377  0.58163  0.20593  1.0000
  C   C221      1.0  0.15917  0.52797  0.28474  1.0000
  H   H214      1.0  0.18493  0.52725  0.11840  1.0000
  H   H215      1.0  0.17562  0.73144  0.19911  1.0000
  S   S80       1.0  0.22632  0.73283  0.21649  1.0000
  H   H216      1.0  0.19966  0.54119  0.24061  1.0000
  C   C222      1.0  0.19398  0.56675  0.20327  1.0000
  H   H217      1.0  0.21064  0.57001  0.18702  1.0000
  H   H218      1.0  0.18237  0.59005  0.16907  1.0000
  H   H219      1.0  0.13779  0.51343  0.28368  1.0000
  Fe  Fe37      1.0  0.11449  0.59769  0.01272  1.0000
  H   H220      1.0  0.17784  0.52462  0.47648  1.0000
  C   C223      1.0  0.19458  0.72874  0.35833  1.0000
  C   C224      1.0  0.18344  0.71620  0.32490  1.0000
  H   H221      1.0  0.19078  0.70304  0.27355  1.0000
  C   C225      1.0  0.14999  0.51043  0.39090  1.0000
  C   C226      1.0  0.17443  0.51805  0.44825  1.0000
  C   C227      1.0  0.19903  0.71211  0.30006  1.0000
  N   N19       1.0  0.23635  0.73269  0.34202  1.0000
  C   C228      1.0  0.22567  0.72076  0.30897  1.0000
  H   H222      1.0  0.16724  0.69279  0.07315  1.0000
  C   C229      1.0  0.15404  0.51879  0.42766  1.0000
  C   C230      1.0  0.16117  0.69314  0.04493  1.0000
  C   C231      1.0  0.13580  0.67498  0.03248  1.0000
  H   H223      1.0  0.12218  0.66055  0.05089  1.0000
  H   H224      1.0  0.23786  0.71831  0.28893  1.0000
  C   C232      1.0  0.22121  0.73687  0.36652  1.0000
  S   S81       1.0  0.13284  0.52942  0.44686  1.0000
  C   C233      1.0  0.26445  0.74200  0.35029  1.0000
  H   H225      1.0  0.02806  0.57751  0.02463  1.0000
  H   H226      1.0  0.16975  0.51615  0.28503  1.0000
  H   H227      1.0  0.16429  0.53983  0.31050  1.0000
  H   H228      1.0  0.13421  0.51089  0.37487  1.0000
  C   C234      1.0  0.16492  0.50437  0.16495  1.0000
  H   H229      1.0  0.29777  0.52076  0.16024  1.0000
  C   C235      1.0  0.00615  0.50634  0.46740  1.0000
  H   H230      1.0  0.01188  0.50946  0.43928  1.0000
  H   H231      1.0  0.16295  0.71021  0.31786  1.0000
  H   H232      1.0  0.19838  0.72546  0.03052  1.0000
  H   H233      1.0  0.18288  0.73271  0.37750  1.0000
  C   C236      1.0  0.00732  0.50679  0.03312  1.0000
  H   H234      1.0  0.22984  0.74714  0.39224  1.0000
  H   H235      1.0  0.26999  0.72662  0.34307  1.0000
  H   H236      1.0  0.04486  0.51424  0.48787  1.0000
  C   C237      1.0  0.12494  0.50543  0.17985  1.0000
  C   C238      1.0  0.19050  0.50888  0.43222  1.0000
  C   C239      1.0  0.02491  0.50905  0.49490  1.0000
  H   H237      1.0  0.26958  0.74724  0.37969  1.0000
  C   C240      1.0  0.29791  0.50234  0.16524  1.0000
  H   H238      1.0  0.20625  0.50842  0.44832  1.0000
  H   H239      1.0  0.06102  0.50351  0.05273  1.0000
  C   C241      1.0  0.49533  0.62064  0.33364  1.0000
  H   H240      1.0  0.48037  0.67634  0.35964  1.0000
  C   C242      1.0  0.17858  0.71156  0.02075  1.0000
  C   C243      1.0  0.49422  0.64420  0.20105  1.0000
  H   H241      1.0  0.45898  0.64632  0.07638  1.0000
  Fe  Fe38      1.0  0.41664  0.55422  0.09510  1.0000
  S   S82       1.0  0.37513  0.52944  0.07159  1.0000
  S   S83       1.0  0.42494  0.59339  0.12170  1.0000
  H   H242      1.0  0.47971  0.72414  0.14219  1.0000
  S   S84       1.0  0.45054  0.61498  0.46176  1.0000
  H   H243      1.0  0.33052  0.51154  0.13006  1.0000
  H   H244      1.0  0.30820  0.53449  0.25641  1.0000
  C   C244      1.0  0.48675  0.51507  0.01430  1.0000
  C   C245      1.0  0.49424  0.71880  0.15469  1.0000
  C   C246      1.0  0.47687  0.51762  0.48687  1.0000
  C   C247      1.0  0.49332  0.66554  0.46117  1.0000
  H   H245      1.0  0.45783  0.68376  0.10791  1.0000
  C   C248      1.0  0.47576  0.66007  0.09327  1.0000
  C   C249      1.0  0.47754  0.50141  0.45844  1.0000
  H   H246      1.0  0.45047  0.63446  0.38992  1.0000
  H   H247      1.0  0.47135  0.58892  0.14610  1.0000
  C   C250      1.0  0.37867  0.54182  0.19487  1.0000
  H   H248      1.0  0.33602  0.56718  0.25489  1.0000
  H   H249      1.0  0.47969  0.58923  0.43296  1.0000
  S   S85       1.0  0.43562  0.54613  0.04708  1.0000
  C   C251      1.0  0.47295  0.64929  0.19626  1.0000
  H   H250      1.0  0.48836  0.71244  0.18305  1.0000
  H   H251      1.0  0.47637  0.52646  0.01263  1.0000
  H   H252      1.0  0.48354  0.61105  0.30917  1.0000
  C   C252      1.0  0.47154  0.60552  0.16026  1.0000
  C   C253      1.0  0.46716  0.64973  0.40511  1.0000
  Fe  Fe39      1.0  0.43255  0.51171  0.07906  1.0000
  C   C254      1.0  0.47517  0.68118  0.11140  1.0000
  C   C255      1.0  0.32447  0.54838  0.23923  1.0000
  C   C256      1.0  0.49316  0.62196  0.18350  1.0000
  H   H253      1.0  0.31498  0.55193  0.21467  1.0000
  H   H254      1.0  0.46393  0.52630  0.48448  1.0000
  H   H255      1.0  0.43534  0.63739  0.16866  1.0000
  C   C257      1.0  0.49064  0.60707  0.36651  1.0000
  H   H256      1.0  0.36587  0.57112  0.19685  1.0000
  H   H257      1.0  0.47338  0.66615  0.20991  1.0000
  C   C258      1.0  0.45137  0.63288  0.17297  1.0000
  C   C259      1.0  0.33696  0.51310  0.23982  1.0000
  H   H258      1.0  0.47502  0.58677  0.36726  1.0000
  S   S86       1.0  0.41667  0.52183  0.12887  1.0000
  C   C260      1.0  0.45078  0.61123  0.15433  1.0000
  H   H259      1.0  0.38592  0.50842  0.19679  1.0000
  C   C261      1.0  0.37389  0.51688  0.20623  1.0000
  C   C262      1.0  0.47169  0.64563  0.44179  1.0000
  C   C263      1.0  0.35299  0.50244  0.22893  1.0000
  C   C264      1.0  0.48409  0.67346  0.38787  1.0000
  Fe  Fe40      1.0  0.39409  0.51804  0.02718  1.0000
  N   N20       1.0  0.34168  0.53752  0.22840  1.0000
  H   H260      1.0  0.39472  0.55312  0.17685  1.0000
  C   C265      1.0  0.36225  0.55189  0.20627  1.0000
  C   C266      1.0  0.16572  0.50076  0.37508  1.0000
  H   H261      1.0  0.32017  0.50131  0.25640  1.0000
  C   C267      1.0  0.01755  0.56658  0.00008  1.0000
  C   C268      1.0  0.14960  0.58706  0.71371  1.0000
  H   H262      1.0  0.12700  0.64325  0.77475  1.0000
  S   S87       1.0  0.15899  0.54225  0.55307  1.0000
  H   H263      1.0  0.16689  0.59218  0.69647  1.0000
  Fe  Fe41      1.0  0.08396  0.51959  0.56041  1.0000
  S   S88       1.0  0.11171  0.55684  0.53228  1.0000
  S   S89       1.0  0.21984  0.50098  0.73665  1.0000
  N   N21       1.0  0.17732  0.69985  0.61230  1.0000
  Fe  Fe42      1.0  0.13964  0.56357  0.58038  1.0000
  S   S90       1.0  0.16739  0.60222  0.61083  1.0000
  S   S91       1.0  0.11095  0.52777  0.61038  1.0000
  S   S92       1.0  0.11140  0.61035  0.95475  1.0000
  Fe  Fe43      1.0  0.19319  0.72527  0.81641  1.0000
  S   S93       1.0  0.15463  0.72074  0.79404  1.0000
  S   S94       1.0  0.19867  0.70834  0.87021  1.0000
  Fe  Fe44      1.0  0.16698  0.71155  0.74045  1.0000
  S   S95       1.0  0.13813  0.67777  0.70319  1.0000
  S   S96       1.0  0.20389  0.71327  0.76384  1.0000
  Fe  Fe45      1.0  0.47261  0.56754  0.55956  1.0000
  S   S97       1.0  0.43347  0.56156  0.53655  1.0000
  H   H264      1.0  0.19351  0.61419  0.75422  1.0000
  C   C269      1.0  0.47654  0.67913  0.75835  1.0000
  S   S98       1.0  0.44871  0.61994  0.57137  1.0000
  C   C270      1.0  0.18429  0.64048  0.78459  1.0000
  Fe  Fe46      1.0  0.42898  0.57776  0.59057  1.0000
  S   S99       1.0  0.39259  0.56768  0.62453  1.0000
  Fe  Fe47      1.0  0.45667  0.60422  0.51971  1.0000
  S   S100      1.0  0.46653  0.58079  0.61487  1.0000
  C   C271      1.0  0.16547  0.64857  0.79064  1.0000
  C   C272      1.0  0.13619  0.63710  0.93115  1.0000
  C   C273      1.0  0.16251  0.65016  0.94379  1.0000
  C   C274      1.0  0.18146  0.67157  0.92436  1.0000
  C   C275      1.0  0.17428  0.68040  0.89246  1.0000
  C   C276      1.0  0.14794  0.66737  0.87988  1.0000
  C   C277      1.0  0.12907  0.64570  0.89899  1.0000
  H   H265      1.0  0.16829  0.64368  0.96841  1.0000
  H   H266      1.0  0.20182  0.68141  0.93421  1.0000
  H   H267      1.0  0.14204  0.67411  0.85564  1.0000
  H   H268      1.0  0.10875  0.63576  0.88904  1.0000
  C   C278      1.0  0.35627  0.50399  0.94328  1.0000
  Fe  Fe48      1.0  0.12839  0.53202  0.50802  1.0000
  C   C279      1.0  0.01627  0.50487  0.99879  1.0000
  H   H269      1.0  0.16970  0.66441  0.81016  1.0000
  H   H270      1.0  0.47242  0.66579  0.62866  1.0000
  H   H271      1.0  0.46534  0.69931  0.66192  1.0000
  C   C280      1.0  0.15850  0.62235  0.63714  1.0000
  C   C281      1.0  0.17812  0.64301  0.65865  1.0000
  C   C282      1.0  0.17213  0.65988  0.67952  1.0000
  C   C283      1.0  0.14641  0.65630  0.67892  1.0000
  C   C284      1.0  0.12668  0.63535  0.65796  1.0000
  C   C285      1.0  0.13266  0.61841  0.63717  1.0000
  H   H272      1.0  0.19815  0.64610  0.65892  1.0000
  H   H273      1.0  0.18750  0.67588  0.69557  1.0000
  H   H274      1.0  0.10668  0.63238  0.65741  1.0000
  H   H275      1.0  0.11735  0.60252  0.62083  1.0000
  H   H276      1.0  0.02813  0.55438  0.91341  1.0000
  C   C286      1.0  0.19405  0.69074  0.60135  1.0000
  C   C287      1.0  0.35613  0.54162  0.67656  1.0000
  C   C288      1.0  0.37365  0.54000  0.65205  1.0000
  H   H277      1.0  0.45164  0.51180  0.90187  1.0000
  H   H278      1.0  0.41010  0.61259  0.68834  1.0000
  C   C289      1.0  0.14978  0.68692  0.59878  1.0000
  H   H279      1.0  0.23352  0.69555  0.60565  1.0000
  C   C290      1.0  0.17215  0.50678  0.65802  1.0000
  H   H280      1.0  0.20596  0.72673  0.95568  1.0000
  C   C291      1.0  0.01770  0.50462  0.53132  1.0000
  N   N22       1.0  0.28422  0.50919  0.64459  1.0000
  Fe  Fe49      1.0  0.48629  0.62201  0.59317  1.0000
  C   C292      1.0  0.22049  0.70320  0.61368  1.0000
  H   H281      1.0  0.20310  0.64997  0.79961  1.0000
  H   H282      1.0  0.29957  0.55002  0.63263  1.0000
  H   H283      1.0  0.19591  0.52968  0.70445  1.0000
  H   H284      1.0  0.11783  0.60731  0.73034  1.0000
  H   H285      1.0  0.14489  0.56863  0.72845  1.0000
  C   C293      1.0  0.30028  0.53190  0.62693  1.0000
  C   C294      1.0  0.33846  0.51934  0.69594  1.0000
  H   H286      1.0  0.05243  0.58098  0.96818  1.0000
  C   C295      1.0  0.01734  0.55322  0.93765  1.0000
  C   C296      1.0  0.22987  0.72541  0.63668  1.0000
  C   C297      1.0  0.44721  0.61249  0.68660  1.0000
  H   H287      1.0  0.14762  0.69753  0.57486  1.0000
  S   S101      1.0  0.38545  0.50877  0.96659  1.0000
  H   H288      1.0  0.16472  0.52038  0.65159  1.0000
  H   H289      1.0  0.13983  0.69412  0.94465  1.0000
  C   C298      1.0  0.17875  0.62033  0.75890  1.0000
  C   C299      1.0  0.13645  0.61628  0.74579  1.0000
  C   C300      1.0  0.14589  0.69423  0.97292  1.0000
  N   N23       1.0  0.46663  0.65653  0.73283  1.0000
  N   N24       1.0  0.15512  0.60861  0.73975  1.0000
  C   C301      1.0  0.14144  0.63652  0.77105  1.0000
  H   H290      1.0  0.18684  0.67328  0.58383  1.0000
  S   S102      1.0  0.48924  0.53854  0.55761  1.0000
  C   C302      1.0  0.33856  0.51079  0.95916  1.0000
  C   C303      1.0  0.26642  0.50964  0.67196  1.0000
  H   H291      1.0  0.35576  0.56009  0.67994  1.0000
  H   H292      1.0  0.14292  0.66594  0.59081  1.0000
  H   H293      1.0  0.25738  0.52205  0.66322  1.0000
  H   H294      1.0  0.33197  0.55058  0.58925  1.0000
  H   H295      1.0  0.32479  0.52081  0.71414  1.0000
  H   H296      1.0  0.13277  0.58321  0.69464  1.0000
  H   H297      1.0  0.13656  0.68672  0.62043  1.0000
  C   C304      1.0  0.44067  0.64435  0.72134  1.0000
  Fe  Fe50      1.0  0.12867  0.50622  0.58041  1.0000
  C   C305      1.0  0.37390  0.51597  0.64802  1.0000
  C   C306      1.0  0.47360  0.62495  0.69851  1.0000
  C   C307      1.0  0.03119  0.56837  0.96851  1.0000
  C   C308      1.0  0.18959  0.73126  0.96047  1.0000
  H   H298      1.0  0.44076  0.52035  0.94256  1.0000
  H   H299      1.0  0.18028  0.73084  0.93332  1.0000
  C   C309      1.0  0.48425  0.69975  0.66446  1.0000
  C   C310      1.0  0.49228  0.52178  0.51879  1.0000
  H   H300      1.0  0.43961  0.59541  0.66842  1.0000
  C   C311      1.0  0.18982  0.51199  0.68795  1.0000
  H   H301      1.0  0.48687  0.61802  0.68885  1.0000
  H   H302      1.0  0.46714  0.69170  0.75233  1.0000
  C   C312      1.0  0.31510  0.50582  0.94005  1.0000
  H   H303      1.0  0.30147  0.51113  0.95248  1.0000
  H   H304      1.0  0.34292  0.51983  0.98610  1.0000
  C   C313      1.0  0.43059  0.62220  0.69793  1.0000
  C   C314      1.0  0.18641  0.72170  0.63465  1.0000
  H   H305      1.0  0.33504  0.50977  0.57775  1.0000
  C   C315      1.0  0.31847  0.53232  0.60215  1.0000
  H   H306      1.0  0.38720  0.51437  0.62925  1.0000
  C   C316      1.0  0.43739  0.50360  0.92408  1.0000
  H   H307      1.0  0.42766  0.65183  0.73006  1.0000
  H   H308      1.0  0.25027  0.73532  0.64671  1.0000
  C   C317      1.0  0.32021  0.50936  0.59567  1.0000
  H   H309      1.0  0.03701  0.51627  0.99326  1.0000
  N   N25       1.0  0.17078  0.71199  0.98529  1.0000
  S   S103      1.0  0.03990  0.50547  0.56658  1.0000
  H   H310      1.0  0.17313  0.72888  0.64342  1.0000
  C   C318      1.0  0.48819  0.68069  0.64557  1.0000
  C   C319      1.0  0.21281  0.73486  0.64698  1.0000
  C   C320      1.0  0.12810  0.67537  0.99624  1.0000
  H   H311      1.0  0.10866  0.66081  0.98607  1.0000
  H   H312      1.0  0.47249  0.67214  0.78676  1.0000
  C   C321      1.0  0.48302  0.64700  0.72193  1.0000
  H   H313      1.0  0.27741  0.51757  0.69835  1.0000
  Fe  Fe51      1.0  0.22916  0.81984  0.26566  1.0000
  S   S104      1.0  0.21992  0.78143  0.29221  1.0000
  S   S105      1.0  0.20086  0.83743  0.26564  1.0000
  Fe  Fe52      1.0  0.28427  0.82901  0.24295  1.0000
  S   S106      1.0  0.27847  0.79167  0.26942  1.0000
  S   S107      1.0  0.32472  0.85746  0.22091  1.0000
  Fe  Fe53      1.0  0.23755  0.77302  0.24310  1.0000
  Fe  Fe54      1.0  0.26152  0.80357  0.31559  1.0000
  S   S108      1.0  0.26783  0.80006  0.37624  1.0000
  S   S109      1.0  0.24422  0.81010  0.21424  1.0000
  S   S110      1.0  0.26992  0.84227  0.29140  1.0000
  Fe  Fe55      1.0  0.06256  0.86465  0.34955  1.0000
  S   S111      1.0  0.05912  0.82825  0.37615  1.0000
  S   S112      1.0  0.05363  0.86389  0.28892  1.0000
  Fe  Fe56      1.0  0.08770  0.89883  0.41847  1.0000
  S   S113      1.0  0.08697  0.86471  0.44896  1.0000
  S   S114      1.0  0.09545  0.93743  0.44630  1.0000
  Fe  Fe57      1.0  0.10069  0.85475  0.39682  1.0000
  S   S115      1.0  0.12974  0.83822  0.39608  1.0000
  Fe  Fe58      1.0  0.04569  0.84164  0.42527  1.0000
  H   H314      1.0  0.37017  0.81455  0.22356  1.0000
  S   S116      1.0  0.10478  0.89089  0.36828  1.0000
  S   S117      1.0  0.04564  0.87584  0.39665  1.0000
  S   S118      1.0  0.38145  0.85324  0.45500  1.0000
  N   N26       1.0  0.39599  0.92428  0.45153  1.0000
  S   S119      1.0  0.45145  0.84355  0.06405  1.0000
  C   C322      1.0  0.01541  0.86808  0.00385  1.0000
  S   S120      1.0  0.44124  0.89043  0.02877  1.0000
  H   H315      1.0  0.32847  0.83188  0.48325  1.0000
  Fe  Fe59      1.0  0.42664  0.86318  0.07640  1.0000
  S   S121      1.0  0.38290  0.83905  0.08775  1.0000
  H   H316      1.0  0.10312  0.88793  0.02729  1.0000
  H   H317      1.0  0.42318  0.91026  0.43860  1.0000
  C   C323      1.0  0.12880  0.82387  0.24427  1.0000
  C   C324      1.0  0.40857  0.93745  0.10901  1.0000
  C   C325      1.0  0.99781  0.84590  0.02349  1.0000
  C   C326      1.0  0.46095  0.86200  0.21578  1.0000
  C   C327      1.0  0.38530  0.92918  0.12803  1.0000
  C   C328      1.0  0.12364  0.95876  0.47329  1.0000
  H   H318      1.0  0.14476  0.82326  0.23001  1.0000
  C   C329      1.0  0.37690  0.90634  0.42813  1.0000
  C   C330      1.0  0.34109  0.85026  0.18603  1.0000
  C   C331      1.0  0.32753  0.82929  0.16116  1.0000
  C   C332      1.0  0.34069  0.82603  0.13140  1.0000
  C   C333      1.0  0.36757  0.84343  0.12644  1.0000
  C   C334      1.0  0.38133  0.86397  0.15188  1.0000
  C   C335      1.0  0.36809  0.86744  0.18137  1.0000
  H   H319      1.0  0.30671  0.81603  0.16427  1.0000
  H   H320      1.0  0.32987  0.81003  0.11191  1.0000
  H   H321      1.0  0.40199  0.87752  0.14845  1.0000
  H   H322      1.0  0.37871  0.88379  0.20039  1.0000
  C   C336      1.0  0.29958  0.81612  0.39760  1.0000
  C   C337      1.0  0.30193  0.81849  0.43582  1.0000
  C   C338      1.0  0.32690  0.83017  0.45381  1.0000
  C   C339      1.0  0.34968  0.83902  0.43367  1.0000
  C   C340      1.0  0.34734  0.83677  0.39543  1.0000
  C   C341      1.0  0.32241  0.82560  0.37741  1.0000
  H   H323      1.0  0.28435  0.81122  0.45162  1.0000
  H   H324      1.0  0.36489  0.84358  0.37966  1.0000
  H   H325      1.0  0.32083  0.82385  0.34797  1.0000
  C   C342      1.0  0.18343  0.83931  0.30399  1.0000
  C   C343      1.0  0.17844  0.82265  0.33375  1.0000
  C   C344      1.0  0.16234  0.82292  0.36187  1.0000
  C   C345      1.0  0.15083  0.83964  0.36056  1.0000
  C   C346      1.0  0.15614  0.85660  0.33109  1.0000
  C   C347      1.0  0.17257  0.85661  0.30325  1.0000
  H   H326      1.0  0.18671  0.80932  0.33491  1.0000
  H   H327      1.0  0.15860  0.80989  0.38467  1.0000
  H   H328      1.0  0.14772  0.86980  0.32982  1.0000
  H   H329      1.0  0.17654  0.86983  0.28064  1.0000
  H   H330      1.0  0.12305  0.79200  0.27935  1.0000
  H   H331      1.0  0.27651  0.76013  0.33473  1.0000
  C   C348      1.0  0.41271  0.83709  0.22162  1.0000
  C   C349      1.0  0.02127  0.84465  0.27059  1.0000
  C   C350      1.0  0.01686  0.84320  0.23261  1.0000
  H   H332      1.0  0.42653  0.95514  0.11748  1.0000
  H   H333      1.0  0.03327  0.85383  0.21509  1.0000
  C   C351      1.0  0.40697  0.81365  0.15352  1.0000
  H   H334      1.0  0.33576  0.88734  0.41090  1.0000
  C   C352      1.0  0.42263  0.92717  0.45251  1.0000
  H   H335      1.0  0.06550  0.92786  0.07549  1.0000
  C   C353      1.0  0.14481  0.95369  0.47904  1.0000
  H   H336      1.0  0.40490  0.80522  0.12635  1.0000
  H   H337      1.0  0.08319  0.76956  0.31512  1.0000
  H   H338      1.0  0.43656  0.94587  0.43949  1.0000
  H   H339      1.0  0.47330  0.85199  0.21830  1.0000
  C   C354      1.0  0.38562  0.89992  0.06814  1.0000
  H   H340      1.0  0.34502  0.87427  0.07941  1.0000
  C   C355      1.0  0.38471  0.80706  0.17389  1.0000
  C   C356      1.0  0.39044  0.93974  0.47418  1.0000
  C   C357      1.0  0.10225  0.84484  0.25661  1.0000
  H   H341      1.0  0.38562  0.88791  0.04529  1.0000
  C   C358      1.0  0.48259  0.81342  0.15239  1.0000
  C   C359      1.0  0.47975  0.79015  0.16883  1.0000
  H   H342      1.0  0.34270  0.90253  0.16688  1.0000
  C   C360      1.0  0.33846  0.89892  0.13701  1.0000
  H   H343      1.0  0.14459  0.93677  0.46583  1.0000
  C   C361      1.0  0.08471  0.78914  0.32113  1.0000
  N   N27       1.0  0.36280  0.90675  0.11737  1.0000
  C   C362      1.0  0.36269  0.89228  0.08764  1.0000
  C   C363      1.0  0.48491  0.98383  0.03465  1.0000
  C   C364      1.0  0.40864  0.92272  0.07887  1.0000
  C   C365      1.0  0.35106  0.90241  0.42847  1.0000
  H   H344      1.0  0.07522  0.82817  0.29975  1.0000
  S   S122      1.0  0.49198  0.76113  0.21754  1.0000
  C   C366      1.0  0.09010  0.82665  0.28411  1.0000
  C   C367      1.0  0.99954  0.82251  0.02218  1.0000
  H   H345      1.0  0.03559  0.84490  0.09245  1.0000
  H   H346      1.0  0.07095  0.84595  0.05437  1.0000
  C   C368      1.0  0.43181  0.83198  0.16779  1.0000
  C   C369      1.0  0.05031  0.86345  0.08148  1.0000
  H   H347      1.0  0.36526  0.79343  0.16261  1.0000
  N   N28       1.0  0.09704  0.80748  0.29138  1.0000
  Fe  Fe60      1.0  0.46923  0.87401  0.02028  1.0000
  H   H348      1.0  0.38536  0.94072  0.15146  1.0000
  H   H349      1.0  0.42657  0.92898  0.06395  1.0000
  C   C370      1.0  0.12430  0.98095  0.49045  1.0000
  C   C371      1.0  0.11643  0.80620  0.27229  1.0000
  C   C372      1.0  0.12171  0.84338  0.23655  1.0000
  N   N29       1.0  0.43447  0.84326  0.20152  1.0000
  H   H350      1.0  0.10930  0.95278  0.05104  1.0000
  C   C373      1.0  0.36484  0.93652  0.47504  1.0000
  H   H351      1.0  0.46060  0.87029  0.24297  1.0000
  H   H352      1.0  0.46905  0.81218  0.13057  1.0000
  C   C374      1.0  0.38750  0.81896  0.20805  1.0000
  H   H353      1.0  0.09677  0.86015  0.25138  1.0000
  C   C375      1.0  0.08830  0.88786  0.04484  1.0000
  H   H354      1.0  0.41466  0.84627  0.24816  1.0000
  C   C376      1.0  0.10565  0.93523  0.03416  1.0000
  H   H355      1.0  0.06446  0.78599  0.32560  1.0000
  N   N30       1.0  0.08690  0.91057  0.05114  1.0000
  C   C377      1.0  0.06720  0.91009  0.07155  1.0000
  H   H356      1.0  0.44897  0.83739  0.15158  1.0000
  H   H357      1.0  0.32459  0.87742  0.13348  1.0000
  C   C378      1.0  0.07020  0.86405  0.06015  1.0000
  H   H358      1.0  0.42942  0.92743  0.48121  1.0000
  H   H359      1.0  0.00327  0.83200  0.32232  1.0000
  Fe  Fe61      1.0  0.47223  0.91909  0.06783  1.0000
  S   S123      1.0  0.45585  0.89285  0.11638  1.0000
  H   H360      1.0  0.09667  0.79727  0.34677  1.0000
  H   H361      1.0  0.32846  0.91016  0.12709  1.0000
  H   H362      1.0  0.09775  0.93678  0.00684  1.0000
  C   C379      1.0  0.04874  0.88659  0.08724  1.0000
  S   S124      1.0  0.01161  0.81261  0.45899  1.0000
  H   H363      1.0  0.38135  0.89430  0.40984  1.0000
  H   H364      1.0  0.13173  0.85771  0.21569  1.0000
  C   C380      1.0  0.34501  0.91755  0.45223  1.0000
  H   H365      1.0  0.10796  0.98498  0.48606  1.0000
  H   H366      1.0  0.46373  0.77124  0.15983  1.0000
  H   H367      1.0  0.47067  0.87868  0.19676  1.0000
  S   S125      1.0  0.48366  0.96295  0.07112  1.0000
  C   C381      1.0  0.99997  0.83093  0.29311  1.0000
  Fe  Fe62      1.0  0.48161  0.87481  0.10193  1.0000
  H   H368      1.0  0.32494  0.91441  0.45311  1.0000
  H   H369      1.0  0.00672  0.86057  0.46847  1.0000
  H   H370      1.0  0.03293  0.88614  0.10306  1.0000
  H   H371      1.0  0.12510  0.93603  0.03079  1.0000
  H   H372      1.0  0.05714  0.89227  0.48691  1.0000
  H   H373      1.0  0.01391  0.88607  0.00516  1.0000
  H   H374      1.0  0.40567  0.95403  0.49266  1.0000
  H   H375      1.0  0.36034  0.94827  0.49382  1.0000
  C   C382      1.0  0.01915  0.82170  0.00109  1.0000
  H   H376      1.0  0.02067  0.80372  0.99983  1.0000
  C   C383      1.0  0.48299  0.96980  0.49945  1.0000
  Fe  Fe63      1.0  0.09535  0.90744  0.92958  1.0000
  S   S126      1.0  0.05751  0.89646  0.96035  1.0000
  Fe  Fe64      1.0  0.12631  0.93490  0.86106  1.0000
  S   S127      1.0  0.12391  0.94638  0.80215  1.0000
  S   S128      1.0  0.10294  0.89202  0.87692  1.0000
  S   S129      1.0  0.11520  0.94978  0.91078  1.0000
  H   H377      1.0  0.12817  0.84901  0.83566  1.0000
  H   H378      1.0  0.12878  0.81773  0.78927  1.0000
  H   H379      1.0  0.12517  0.96379  0.72868  1.0000
  N   N31       1.0  0.08140  0.90396  0.53500  1.0000
  H   H380      1.0  0.05193  0.84303  0.96573  1.0000
  S   S130      1.0  0.13198  0.91126  0.95839  1.0000
  C   C384      1.0  0.12546  0.91585  0.55654  1.0000
  C   C385      1.0  0.08430  0.92750  0.54803  1.0000
  C   C386      1.0  0.10765  0.94552  0.56644  1.0000
  C   C387      1.0  0.03519  0.86736  0.98306  1.0000
  C   C388      1.0  0.10171  0.89814  0.53865  1.0000
  C   C389      1.0  0.14129  0.82246  0.81364  1.0000
  Fe  Fe65      1.0  0.14096  0.89849  0.90452  1.0000
  C   C390      1.0  0.14094  0.84028  0.83988  1.0000
  C   C391      1.0  0.03692  0.84398  0.98170  1.0000
  H   H381      1.0  0.06868  0.93265  0.54358  1.0000
  H   H382      1.0  0.11013  0.96440  0.57616  1.0000
  H   H383      1.0  0.09978  0.87987  0.52736  1.0000
  C   C392      1.0  0.05684  0.88563  0.51538  1.0000
  C   C393      1.0  0.14135  0.97971  0.74381  1.0000
  C   C394      1.0  0.14551  0.97653  0.78101  1.0000
  H   H384      1.0  0.14885  0.91138  0.76629  1.0000
  H   H385      1.0  0.05402  0.86514  0.51452  1.0000
  C   C395      1.0  0.12834  0.93963  0.57066  1.0000
  H   H386      1.0  0.47021  0.75081  0.65078  1.0000
  H   H387      1.0  0.14176  0.91150  0.55861  1.0000
  H   H388      1.0  0.03944  0.88476  0.52882  1.0000
  H   H389      1.0  0.14055  0.90005  0.81217  1.0000
  H   H390      1.0  0.13264  0.98733  0.98898  1.0000
  C   C396      1.0  0.14568  0.99764  0.51384  1.0000
  H   H391      1.0  0.14695  0.95395  0.58359  1.0000
  Fe  Fe66      1.0  0.15192  0.95257  0.93710  1.0000
  H   H392      1.0  0.48540  0.82764  0.98670  1.0000
  C   C397      1.0  0.47589  0.97399  0.99923  1.0000
  H   H393      1.0  0.18255  0.96634  0.50666  1.0000
  S   S131      1.0  0.18693  0.75390  0.72327  1.0000
  C   C398      1.0  0.16630  0.97050  0.50215  1.0000
  C   C399      1.0  0.15719  0.91085  0.79375  1.0000
  H   H394      1.0  0.15642  0.87691  0.74320  1.0000
  C   C400      1.0  0.49043  0.83075  0.95831  1.0000
  C   C401      1.0  0.16650  0.99730  0.80023  1.0000
  C   C402      1.0  0.48921  0.85131  0.93976  1.0000
  H   H395      1.0  0.17012  0.99506  0.82871  1.0000
  C   C403      1.0  0.15814  0.81123  0.81818  1.0000
  C   C404      1.0  0.15749  0.84711  0.87112  1.0000
  S   S132      1.0  0.16045  0.79197  0.78171  1.0000
  C   C405      1.0  0.48901  0.81767  0.60594  1.0000
  H   H396      1.0  0.16865  0.93170  0.80361  1.0000
  C   C406      1.0  0.16670  0.99233  0.51997  1.0000
  C   C407      1.0  0.47528  0.76950  0.63792  1.0000
  H   H397      1.0  0.49489  0.87091  0.88826  1.0000
  H   H398      1.0  0.46666  0.95296  0.99378  1.0000
  H   H399      1.0  0.43762  0.75540  0.60961  1.0000
  H   H400      1.0  0.47655  0.88592  0.63352  1.0000
  H   H401      1.0  0.28853  0.85458  0.66348  1.0000
  Fe  Fe67      1.0  0.22371  0.75637  0.74949  1.0000
  C   C408      1.0  0.47040  0.98000  0.52136  1.0000
  H   H402      1.0  0.34200  0.87740  0.72002  1.0000
  C   C409      1.0  0.45659  0.82568  0.67089  1.0000
  S   S133      1.0  0.18207  0.98864  0.96967  1.0000
  Fe  Fe68      1.0  0.42237  0.91507  0.55906  1.0000
  C   C410      1.0  0.47926  0.99148  0.97055  1.0000
  H   H403      1.0  0.39822  0.82546  0.69104  1.0000
  H   H404      1.0  0.22007  0.75224  0.66462  1.0000
  C   C411      1.0  0.20653  0.88928  0.82237  1.0000
  H   H405      1.0  0.18719  0.80905  0.85388  1.0000
  C   C412      1.0  0.45587  0.84507  0.64850  1.0000
  Fe  Fe69      1.0  0.17811  0.76372  0.77933  1.0000
  C   C413      1.0  0.34637  0.86112  0.72256  1.0000
  Fe  Fe70      1.0  0.38861  0.86440  0.51518  1.0000
  S   S134      1.0  0.44588  0.96016  0.55268  1.0000
  N   N32       1.0  0.17389  0.89811  0.79300  1.0000
  C   C414      1.0  0.35612  0.81848  0.72487  1.0000
  C   C415      1.0  0.27528  0.81600  0.68656  1.0000
  S   S135      1.0  0.42974  0.83538  0.61570  1.0000
  H   H406      1.0  0.49296  0.93058  0.97893  1.0000
  C   C416      1.0  0.31228  0.83736  0.64553  1.0000
  S   S136      1.0  0.47974  0.87296  0.96114  1.0000
  H   H407      1.0  0.19255  0.91457  0.84470  1.0000
  H   H408      1.0  0.44974  0.79874  0.58125  1.0000
  C   C417      1.0  0.29981  0.79372  0.66933  1.0000
  C   C418      1.0  0.47854  0.83168  0.69427  1.0000
  C   C419      1.0  0.46396  0.79627  0.59856  1.0000
  C   C420      1.0  0.17373  0.83524  0.87621  1.0000
  H   H409      1.0  0.44043  0.80569  0.66939  1.0000
  N   N33       1.0  0.37113  0.83971  0.70385  1.0000
  S   S137      1.0  0.38018  0.89557  0.53803  1.0000
  S   S138      1.0  0.33428  0.86626  0.62229  1.0000
  C   C421      1.0  0.33593  0.81816  0.74546  1.0000
  C   C422      1.0  0.17409  0.81743  0.84996  1.0000
  H   H410      1.0  0.33170  0.81465  0.63258  1.0000
  C   C423      1.0  0.33106  0.83964  0.74422  1.0000
  H   H411      1.0  0.37725  0.87695  0.68410  1.0000
  H   H412      1.0  0.30337  0.77696  0.67138  1.0000
  H   H413      1.0  0.47277  0.98369  0.94312  1.0000
  C   C424      1.0  0.36633  0.86075  0.70224  1.0000
  C   C425      1.0  0.29159  0.83749  0.66479  1.0000
  H   H414      1.0  0.31478  0.83913  0.75889  1.0000
  H   H415      1.0  0.40872  0.85897  0.67941  1.0000
  H   H416      1.0  0.18275  0.85331  0.74375  1.0000
  C   C426      1.0  0.17092  0.88098  0.76510  1.0000
  C   C427      1.0  0.18589  0.86774  0.76504  1.0000
  H   H417      1.0  0.35926  0.80138  0.72514  1.0000
  C   C428      1.0  0.20377  0.87194  0.79391  1.0000
  H   H418      1.0  0.21453  0.86081  0.79502  1.0000
  S   S139      1.0  0.37464  0.83901  0.56457  1.0000
  S   S140      1.0  0.26225  0.76822  0.72018  1.0000
  H   H419      1.0  0.47911  0.81641  0.71070  1.0000
  C   C429      1.0  0.45708  0.77206  0.61476  1.0000
  S   S141      1.0  0.43136  0.88469  0.53417  1.0000
  Fe  Fe71      1.0  0.41673  0.86214  0.58611  1.0000
  C   C430      1.0  0.19121  0.90214  0.82159  1.0000
  S   S142      1.0  0.16007  0.87156  0.90332  1.0000
  C   C431      1.0  0.39110  0.83912  0.68067  1.0000
  H   H420      1.0  0.38273  0.83263  0.65255  1.0000
  H   H421      1.0  0.21938  0.89171  0.84585  1.0000
  H   H422      1.0  0.32338  0.80092  0.76106  1.0000
  S   S143      1.0  0.16448  0.94042  0.88606  1.0000
  H   H423      1.0  0.18655  0.84029  0.90030  1.0000
  S   S144      1.0  0.21649  0.76893  0.80464  1.0000
  H   H424      1.0  0.25990  0.81671  0.70192  1.0000
  Fe  Fe72      1.0  0.36952  0.87178  0.58935  1.0000
  C   C432      1.0  0.27967  0.79422  0.68950  1.0000
  C   C433      1.0  0.47684  0.87084  0.65070  1.0000
  C   C434      1.0  0.31598  0.81510  0.64737  1.0000
  S   S145      1.0  0.41098  0.89407  0.61306  1.0000
  H   H425      1.0  0.47765  0.94911  0.50087  1.0000
  H   H426      1.0  0.49392  0.83658  0.59392  1.0000
  H   H427      1.0  0.19780  0.75160  0.97202  1.0000
  C   C435      1.0  0.71176  0.18066  0.43912  1.0000
  S   S146      1.0  0.60306  0.09855  0.46342  1.0000
  Fe  Fe73      1.0  0.56564  0.13179  0.41610  1.0000
  S   S147      1.0  0.57242  0.10082  0.38813  1.0000
  S   S148      1.0  0.55204  0.15938  0.39044  1.0000
  Fe  Fe74      1.0  0.56095  0.07911  0.44165  1.0000
  S   S149      1.0  0.53742  0.03403  0.44605  1.0000
  Fe  Fe75      1.0  0.61364  0.12307  0.41279  1.0000
  S   S150      1.0  0.65111  0.13136  0.38348  1.0000
  S   S151      1.0  0.55143  0.10873  0.46785  1.0000
  S   S152      1.0  0.60755  0.15501  0.43794  1.0000
  H   H428      1.0  0.88675  0.03849  0.47393  1.0000
  Fe  Fe76      1.0  0.89135  0.09472  0.07888  1.0000
  S   S153      1.0  0.85327  0.08861  0.05159  1.0000
  S   S154      1.0  0.93030  0.10750  0.04993  1.0000
  Fe  Fe77      1.0  0.86279  0.06673  0.14870  1.0000
  S   S155      1.0  0.82352  0.05912  0.12557  1.0000
  S   S156      1.0  0.86782  0.05429  0.20607  1.0000
  Fe  Fe78      1.0  0.83566  0.04742  0.07370  1.0000
  C   C436      1.0  0.95561  0.16538  0.47331  1.0000
  Fe  Fe79      1.0  0.84478  0.10108  0.10626  1.0000
  S   S157      1.0  0.82332  0.12586  0.11099  1.0000
  S   S158      1.0  0.87380  0.05266  0.09827  1.0000
  S   S159      1.0  0.88397  0.10957  0.13224  1.0000
  Fe  Fe80      1.0  0.76041  0.24326  0.25596  1.0000
  C   C437      1.0  0.50616  0.17235  0.31591  1.0000
  S   S160      1.0  0.72204  0.23055  0.28632  1.0000
  Fe  Fe81      1.0  0.80743  0.23789  0.22843  1.0000
  S   S161      1.0  0.82914  0.21332  0.22489  1.0000
  S   S162      1.0  0.76695  0.22603  0.20419  1.0000
  C   C438      1.0  0.84442  0.02612  0.22936  1.0000
  C   C439      1.0  0.85124  0.02048  0.26407  1.0000
  C   C440      1.0  0.50193  0.17865  0.03944  1.0000
  H   H429      1.0  0.87052  0.03343  0.27622  1.0000
  H   H430      1.0  0.60960  0.11648  0.27648  1.0000
  C   C441      1.0  0.82671  0.15167  0.14136  1.0000
  C   C442      1.0  0.80836  0.16120  0.13825  1.0000
  C   C443      1.0  0.80904  0.18034  0.16306  1.0000
  C   C444      1.0  0.82833  0.19047  0.19122  1.0000
  C   C445      1.0  0.84699  0.18132  0.19393  1.0000
  C   C446      1.0  0.84618  0.16201  0.16929  1.0000
  H   H431      1.0  0.79313  0.15327  0.11690  1.0000
  H   H432      1.0  0.79428  0.18677  0.16088  1.0000
  H   H433      1.0  0.86202  0.18898  0.21556  1.0000
  H   H434      1.0  0.86048  0.15499  0.17207  1.0000
  H   H435      1.0  0.58148  0.10870  0.30340  1.0000
  H   H436      1.0  0.51896  0.11396  0.34205  1.0000
  H   H437      1.0  0.58591  0.19017  0.33204  1.0000
  H   H438      1.0  0.98547  0.12835  0.42111  1.0000
  C   C447      1.0  0.52234  0.17654  0.19877  1.0000
  C   C448      1.0  0.81936  0.00928  0.21412  1.0000
  C   C449      1.0  0.67735  0.18704  0.46726  1.0000
  C   C450      1.0  0.97760  0.17948  0.45218  1.0000
  H   H439      1.0  0.50316  0.01910  0.06852  1.0000
  H   H440      1.0  0.55490  0.19612  0.08552  1.0000
  H   H441      1.0  0.62548  0.22339  0.30058  1.0000
  H   H442      1.0  0.81358  0.01364  0.18785  1.0000
  C   C451      1.0  0.94844  0.13441  0.02081  1.0000
  H   H443      1.0  0.93213  0.15887  0.03912  1.0000
  C   C452      1.0  0.63072  0.16810  0.28337  1.0000
  C   C453      1.0  0.94649  0.15767  0.02200  1.0000
  H   H444      1.0  0.81605  0.22207  0.10659  1.0000
  C   C454      1.0  0.62065  0.20273  0.30018  1.0000
  C   C455      1.0  0.59850  0.18414  0.31786  1.0000
  C   C456      1.0  0.70424  0.20361  0.31545  1.0000
  C   C457      1.0  0.68477  0.20412  0.33716  1.0000
  C   C458      1.0  0.66826  0.18218  0.35801  1.0000
  C   C459      1.0  0.67134  0.15955  0.35780  1.0000
  C   C460      1.0  0.69138  0.15935  0.33709  1.0000
  C   C461      1.0  0.70770  0.18120  0.31591  1.0000
  H   H445      1.0  0.68214  0.22149  0.33731  1.0000
  H   H446      1.0  0.65305  0.18275  0.37393  1.0000
  H   H447      1.0  0.69408  0.14201  0.33698  1.0000
  H   H448      1.0  0.72260  0.18050  0.29940  1.0000
  C   C462      1.0  0.52890  0.15426  0.35430  1.0000
  C   C463      1.0  0.52422  0.17527  0.34451  1.0000
  H   H449      1.0  0.80008  0.23767  0.13079  1.0000
  H   H450      1.0  0.54040  0.21466  0.10381  1.0000
  C   C464      1.0  0.51564  0.13033  0.33475  1.0000
  H   H451      1.0  0.71232  0.19221  0.41462  1.0000
  N   N34       1.0  0.81815  0.10190  0.22106  1.0000
  C   C465      1.0  0.79872  0.09614  0.19491  1.0000
  C   C466      1.0  0.82333  0.12083  0.24732  1.0000
  C   C467      1.0  0.78326  0.10884  0.19534  1.0000
  C   C468      1.0  0.80835  0.13403  0.24843  1.0000
  C   C469      1.0  0.78814  0.12789  0.22231  1.0000
  C   C470      1.0  0.83464  0.08897  0.21938  1.0000
  H   H452      1.0  0.79557  0.08224  0.17286  1.0000
  H   H453      1.0  0.83942  0.12616  0.26716  1.0000
  H   H454      1.0  0.76848  0.10480  0.17382  1.0000
  H   H455      1.0  0.81297  0.14964  0.26853  1.0000
  H   H456      1.0  0.77706  0.13870  0.22209  1.0000
  H   H457      1.0  0.82298  0.06814  0.20951  1.0000
  Fe  Fe82      1.0  0.59413  0.12916  0.48680  1.0000
  H   H458      1.0  0.85104  0.09971  0.20061  1.0000
  C   C471      1.0  0.53293  0.19406  0.17006  1.0000
  N   N35       1.0  0.54272  0.18738  0.14065  1.0000
  C   C472      1.0  0.97646  0.13848  0.43507  1.0000
  H   H459      1.0  0.83060  0.24017  0.14827  1.0000
  C   C473      1.0  0.52148  0.15198  0.19710  1.0000
  H   H460      1.0  0.96273  0.19798  0.00418  1.0000
  H   H461      1.0  0.57575  0.14347  0.33204  1.0000
  H   H462      1.0  0.84321  0.08828  0.24660  1.0000
  C   C474      1.0  0.63686  0.19470  0.28270  1.0000
  H   H463      1.0  0.55012  0.15814  0.11568  1.0000
  C   C475      1.0  0.49962  0.02875  0.01252  1.0000
  H   H464      1.0  0.66538  0.17908  0.44244  1.0000
  H   H465      1.0  0.61338  0.11935  0.32545  1.0000
  H   H466      1.0  0.51434  0.18168  0.22196  1.0000
  H   H467      1.0  0.57349  0.22215  0.11884  1.0000
  N   N36       1.0  0.95477  0.12479  0.45567  1.0000
  C   C476      1.0  0.94438  0.13787  0.47475  1.0000
  C   C477      1.0  0.51098  0.01374  0.47456  1.0000
  C   C478      1.0  0.94324  0.09610  0.45915  1.0000
  H   H468      1.0  0.95029  0.08726  0.43814  1.0000
  C   C479      1.0  0.53184  0.14547  0.16725  1.0000
  H   H469      1.0  0.69849  0.15935  0.43271  1.0000
  C   C480      1.0  0.54277  0.16365  0.13929  1.0000
  C   C481      1.0  0.82119  0.00470  0.49103  1.0000
  C   C482      1.0  0.54826  0.00733  0.00579  1.0000
  H   H470      1.0  0.85453  0.01738  0.01219  1.0000
  C   C483      1.0  0.50247  0.15778  0.05808  1.0000
  H   H471      1.0  0.53268  0.21277  0.17104  1.0000
  C   C484      1.0  0.60299  0.12227  0.30142  1.0000
  H   H472      1.0  0.92136  0.08653  0.45610  1.0000
  H   H473      1.0  0.50906  0.04983  0.01785  1.0000
  H   H474      1.0  0.65468  0.20911  0.26990  1.0000
  S   S163      1.0  0.52170  0.14340  0.04305  1.0000
  H   H475      1.0  0.53437  0.19387  0.35947  1.0000
  C   C485      1.0  0.55355  0.20605  0.11083  1.0000
  H   H476      1.0  0.64408  0.16225  0.27110  1.0000
  N   N37       1.0  0.60872  0.14992  0.30028  1.0000
  C   C486      1.0  0.59285  0.15768  0.31777  1.0000
  S   S164      1.0  0.80575  0.00843  0.04632  1.0000
  C   C487      1.0  0.84499  0.01146  0.47425  1.0000
  H   H477      1.0  0.51242  0.13798  0.21877  1.0000
  H   H478      1.0  0.51080  0.18415  0.01311  1.0000
  C   C488      1.0  0.96397  0.17986  0.00225  1.0000
  C   C489      1.0  0.86846  0.03356  0.48699  1.0000
  H   H479      1.0  0.98710  0.20089  0.45194  1.0000
  C   C490      1.0  0.49761  0.12743  0.30605  1.0000
  H   H480      1.0  0.64747  0.19257  0.49447  1.0000
  H   H481      1.0  0.50252  0.18860  0.30904  1.0000
  H   H482      1.0  0.73197  0.18346  0.44452  1.0000
  H   H483      1.0  0.98421  0.16182  0.09418  1.0000
  H   H484      1.0  0.99101  0.12289  0.08562  1.0000
  C   C491      1.0  0.98808  0.16599  0.43281  1.0000
  N   N38       1.0  0.70192  0.18909  0.47014  1.0000
  H   H485      1.0  0.94793  0.17581  0.48952  1.0000
  C   C492      1.0  0.66725  0.19482  0.49633  1.0000
  H   H486      1.0  0.94832  0.09141  0.48663  1.0000
  C   C493      1.0  0.81942  0.23977  0.12284  1.0000
  H   H487      1.0  0.53088  0.12624  0.16531  1.0000
  H   H488      1.0  0.92759  0.12700  0.49177  1.0000
  H   H489      1.0  0.50410  0.04475  0.49541  1.0000
  C   C494      1.0  0.49831  0.02393  0.49632  1.0000
  H   H490      1.0  0.55499  0.01692  0.03234  1.0000
  C   C495      1.0  0.49630  0.01125  0.04121  1.0000
  H   H491      1.0  0.80318  0.25035  0.05987  1.0000
  H   H492      1.0  0.84854  0.00248  0.14705  1.0000
  S   S165      1.0  0.60405  0.14416  0.54539  1.0000
  Fe  Fe83      1.0  0.89426  0.14989  0.61041  1.0000
  S   S166      1.0  0.88627  0.10919  0.62718  1.0000
  S   S167      1.0  0.86360  0.16444  0.61104  1.0000
  Fe  Fe84      1.0  0.95050  0.16449  0.58564  1.0000
  S   S168      1.0  0.94631  0.12544  0.60216  1.0000
  H   H493      1.0  0.96259  0.12251  0.77824  1.0000
  Fe  Fe85      1.0  0.90575  0.10791  0.57519  1.0000
  S   S169      1.0  0.89861  0.07689  0.53114  1.0000
  Fe  Fe86      1.0  0.92764  0.13073  0.65210  1.0000
  S   S170      1.0  0.93793  0.12207  0.70884  1.0000
  S   S171      1.0  0.91092  0.14716  0.55646  1.0000
  S   S172      1.0  0.93458  0.17132  0.63778  1.0000
  Fe  Fe87      1.0  0.72307  0.18483  0.68724  1.0000
  S   S173      1.0  0.72282  0.15271  0.72204  1.0000
  S   S174      1.0  0.71358  0.17419  0.62679  1.0000
  Fe  Fe88      1.0  0.74875  0.22595  0.74973  1.0000
  S   S175      1.0  0.75077  0.19648  0.78741  1.0000
  Fe  Fe89      1.0  0.76425  0.18266  0.73868  1.0000
  S   S176      1.0  0.79832  0.17310  0.74339  1.0000
  Fe  Fe90      1.0  0.70912  0.16978  0.76675  1.0000
  S   S177      1.0  0.67775  0.14347  0.80617  1.0000
  S   S178      1.0  0.76528  0.21426  0.70244  1.0000
  S   S179      1.0  0.70639  0.19988  0.73075  1.0000
  Fe  Fe91      1.0  0.55604  0.13929  0.91547  1.0000
  S   S180      1.0  0.52100  0.10658  0.88579  1.0000
  S   S181      1.0  0.59334  0.16639  0.88468  1.0000
  C   C496      1.0  0.54808  0.01977  0.54746  1.0000
  H   H494      1.0  0.58043  0.04528  0.51434  1.0000
  N   N39       1.0  0.70701  0.23776  0.85747  1.0000
  C   C497      1.0  0.50675  0.20771  0.83146  1.0000
  S   S182      1.0  0.54901  0.11614  0.96741  1.0000
  S   S183      1.0  0.53354  0.16004  0.93428  1.0000
  H   H495      1.0  0.79375  0.08217  0.61996  1.0000
  H   H496      1.0  0.56723  0.10328  0.59756  1.0000
  Fe  Fe92      1.0  0.51213  0.08470  0.93903  1.0000
  H   H497      1.0  0.71981  0.18624  0.86003  1.0000
  C   C498      1.0  0.94414  0.14917  0.85582  1.0000
  H   H498      1.0  0.68229  0.16950  0.90157  1.0000
  C   C499      1.0  0.71077  0.19842  0.86663  1.0000
  C   C500      1.0  0.68971  0.18901  0.89009  1.0000
  C   C501      1.0  0.98013  0.19352  0.86303  1.0000
  C   C502      1.0  0.65235  0.14873  0.82435  1.0000
  C   C503      1.0  0.64988  0.17121  0.81644  1.0000
  C   C504      1.0  0.63104  0.17580  0.83421  1.0000
  C   C505      1.0  0.61430  0.15791  0.85979  1.0000
  C   C506      1.0  0.61619  0.13503  0.86678  1.0000
  C   C507      1.0  0.63518  0.13056  0.84926  1.0000
  H   H499      1.0  0.66292  0.18535  0.79734  1.0000
  H   H500      1.0  0.62979  0.19359  0.82864  1.0000
  H   H501      1.0  0.60355  0.12115  0.88647  1.0000
  H   H502      1.0  0.63690  0.11310  0.85554  1.0000
  C   C508      1.0  0.51495  0.14126  0.80188  1.0000
  C   C509      1.0  0.75237  0.13410  0.64368  1.0000
  C   C510      1.0  0.68249  0.20471  0.52844  1.0000
  H   H503      1.0  0.53175  0.08653  0.60000  1.0000
  C   C511      1.0  0.84459  0.04263  0.53301  1.0000
  C   C512      1.0  0.76002  0.12278  0.67187  1.0000
  H   H504      1.0  0.84425  0.05452  0.55565  1.0000
  C   C513      1.0  0.96680  0.14640  0.73125  1.0000
  C   C514      1.0  0.97438  0.14143  0.76582  1.0000
  H   H505      1.0  0.96907  0.11544  0.99742  1.0000
  H   H506      1.0  0.81722  0.11274  0.59987  1.0000
  C   C515      1.0  0.94590  0.18725  0.77249  1.0000
  C   C516      1.0  0.84739  0.16862  0.64904  1.0000
  C   C517      1.0  0.83033  0.17947  0.64347  1.0000
  C   C518      1.0  0.81551  0.18139  0.67213  1.0000
  C   C519      1.0  0.81759  0.17243  0.70683  1.0000
  C   C520      1.0  0.83504  0.16207  0.71262  1.0000
  C   C521      1.0  0.84984  0.16012  0.68391  1.0000
  H   H507      1.0  0.82831  0.18615  0.61664  1.0000
  H   H508      1.0  0.80224  0.18946  0.66721  1.0000
  H   H509      1.0  0.83686  0.15514  0.73937  1.0000
  H   H510      1.0  0.86285  0.15171  0.68864  1.0000
  C   C522      1.0  0.63352  0.15001  0.56901  1.0000
  C   C523      1.0  0.63921  0.16216  0.60374  1.0000
  C   C524      1.0  0.66323  0.16872  0.62247  1.0000
  C   C525      1.0  0.68181  0.16323  0.60649  1.0000
  C   C526      1.0  0.67580  0.15037  0.57219  1.0000
  C   C527      1.0  0.65171  0.14368  0.55354  1.0000
  H   H511      1.0  0.62520  0.16704  0.61595  1.0000
  H   H512      1.0  0.66765  0.17864  0.64883  1.0000
  H   H513      1.0  0.69006  0.14601  0.55968  1.0000
  H   H514      1.0  0.64750  0.13422  0.52688  1.0000
  C   C528      1.0  0.86839  0.04931  0.51635  1.0000
  H   H515      1.0  0.51514  0.04061  0.60220  1.0000
  H   H516      1.0  0.93240  0.12950  0.86637  1.0000
  C   C529      1.0  0.98350  0.17906  0.98102  1.0000
  H   H517      1.0  0.84502  0.23527  0.76620  1.0000
  N   N40       1.0  0.54820  0.06578  0.57075  1.0000
  C   C530      1.0  0.56662  0.04421  0.53458  1.0000
  H   H518      1.0  0.54943  0.14754  0.83382  1.0000
  Fe  Fe93      1.0  0.52296  0.13375  0.98306  1.0000
  H   H519      1.0  0.81197  0.22893  0.77502  1.0000
  C   C531      1.0  0.71927  0.22303  0.85054  1.0000
  C   C532      1.0  0.98210  0.17085  0.71539  1.0000
  C   C533      1.0  0.56653  0.06717  0.54684  1.0000
  H   H520      1.0  0.66029  0.19655  0.91422  1.0000
  H   H521      1.0  0.92190  0.14063  0.80506  1.0000
  N   N41       1.0  0.51999  0.17736  0.76435  1.0000
  H   H522      1.0  0.73547  0.23018  0.83200  1.0000
  H   H523      1.0  0.93260  0.19592  0.77639  1.0000
  C   C534      1.0  0.54118  0.15579  0.81415  1.0000
  N   N42       1.0  0.78745  0.11486  0.63103  1.0000
  C   C535      1.0  0.77994  0.12582  0.60316  1.0000
  C   C536      1.0  0.77762  0.11312  0.66500  1.0000
  C   C537      1.0  0.76237  0.13568  0.60910  1.0000
  C   C538      1.0  0.80525  0.10389  0.62423  1.0000
  H   H524      1.0  0.78788  0.12739  0.57630  1.0000
  H   H525      1.0  0.78385  0.10481  0.68725  1.0000
  H   H526      1.0  0.75669  0.14475  0.58722  1.0000
  H   H527      1.0  0.81961  0.10846  0.64750  1.0000
  H   H528      1.0  0.58097  0.08614  0.53679  1.0000
  C   C539      1.0  0.54843  0.09026  0.58234  1.0000
  H   H529      1.0  0.57706  0.19257  0.81132  1.0000
  C   C540      1.0  0.54580  0.19171  0.77615  1.0000
  C   C541      1.0  0.97390  0.19926  0.82826  1.0000
  H   H530      1.0  0.93567  0.16957  0.75411  1.0000
  C   C542      1.0  0.96517  0.16832  0.87682  1.0000
  H   H531      1.0  0.51658  0.18413  0.86814  1.0000
  H   H532      1.0  0.96370  0.20167  0.75828  1.0000
  C   C543      1.0  0.98476  0.15546  0.97863  1.0000
  C   C544      1.0  0.52970  0.01854  0.57232  1.0000
  H   H533      1.0  0.73896  0.14195  0.64866  1.0000
  C   C545      1.0  0.55004  0.02223  0.97507  1.0000
  C   C546      1.0  0.93827  0.15562  0.82127  1.0000
  C   C547      1.0  0.67737  0.20420  0.89713  1.0000
  C   C548      1.0  0.53989  0.00951  0.94147  1.0000
  H   H534      1.0  0.96983  0.16374  0.90381  1.0000
  H   H535      1.0  0.75294  0.12211  0.69915  1.0000
  H   H536      1.0  0.67615  0.24001  0.88545  1.0000
  H   H537      1.0  0.54702  0.10111  0.55807  1.0000
  C   C549      1.0  0.50910  0.18832  0.73700  1.0000
  H   H538      1.0  0.73624  0.19983  0.50432  1.0000
  C   C550      1.0  0.68628  0.22866  0.88040  1.0000
  C   C551      1.0  0.52995  0.04188  0.58362  1.0000
  N   N43       1.0  0.95318  0.18039  0.80788  1.0000
  H   H539      1.0  0.52627  0.22461  0.83364  1.0000
  H   H540      1.0  0.80284  0.01529  0.53363  1.0000
  H   H541      1.0  0.51886  0.21026  0.73930  1.0000
  C   C552      1.0  0.82968  0.24107  0.75899  1.0000
  H   H542      1.0  0.67453  0.20998  0.55160  1.0000
  C   C553      1.0  0.50133  0.18478  0.85106  1.0000
  H   H543      1.0  0.97648  0.17493  0.68883  1.0000
  C   C554      1.0  0.71694  0.19860  0.50166  1.0000
  H   H544      1.0  0.71901  0.21330  0.55669  1.0000
  C   C555      1.0  0.70747  0.20656  0.53126  1.0000
  H   H545      1.0  0.55795  0.21153  0.76643  1.0000
  H   H546      1.0  0.55809  0.04350  0.97754  1.0000
  H   H547      1.0  0.98584  0.21887  0.81769  1.0000
  C   C556      1.0  0.55674  0.18118  0.80136  1.0000
  H   H548      1.0  0.54000  0.02090  0.91790  1.0000
  S   S184      1.0  0.98848  0.19594  0.56144  1.0000
  H   H549      1.0  0.50243  0.12182  0.81266  1.0000
  H   H550      1.0  0.98748  0.14662  0.53909  1.0000
  C   C557      1.0  0.82115  0.02038  0.52047  1.0000
  Fe  Fe94      1.0  0.49846  0.12652  0.90631  1.0000
  C   C558      1.0  0.50463  0.15237  0.77671  1.0000
  S   S185      1.0  0.49889  0.04024  0.93878  1.0000
  H   H551      1.0  0.51172  0.18254  0.70918  1.0000
  H   H552      1.0  0.82443  0.23598  0.72959  1.0000
  C   C559      1.0  0.96738  0.13333  0.99851  1.0000
  S   S186      1.0  0.49622  0.23699  0.78143  1.0000
  H   H553      1.0  0.54738  0.00175  0.53724  1.0000
  S   S187      1.0  0.60295  0.45950  0.04756  1.0000
  N   N44       1.0  0.53281  0.37842  0.29350  1.0000
  S   S188      1.0  0.83884  0.46483  0.44712  1.0000
  H   H554      1.0  0.88943  0.32262  0.10358  1.0000
  S   S189      1.0  0.88486  0.45171  0.47998  1.0000
  H   H555      1.0  0.87439  0.41427  0.18094  1.0000
  Fe  Fe95      1.0  0.85744  0.43981  0.43042  1.0000
  S   S190      1.0  0.83179  0.39688  0.41189  1.0000
  H   H556      1.0  0.80374  0.41153  0.34019  1.0000
  S   S191      1.0  0.88720  0.47047  0.39507  1.0000
  S   S192      1.0  0.85292  0.38648  0.05271  1.0000
  H   H557      1.0  0.55088  0.39144  0.34599  1.0000
  Fe  Fe96      1.0  0.55297  0.42553  0.41403  1.0000
  S   S193      1.0  0.51881  0.42265  0.37969  1.0000
  S   S194      1.0  0.59287  0.43690  0.38911  1.0000
  H   H558      1.0  0.55790  0.36310  0.27607  1.0000
  C   C560      1.0  0.50219  0.30743  0.32775  1.0000
  H   H559      1.0  0.89459  0.41144  0.43362  1.0000
  S   S195      1.0  0.54414  0.44372  0.46289  1.0000
  S   S196      1.0  0.53061  0.38387  0.43543  1.0000
  Fe  Fe97      1.0  0.78574  0.26760  0.18303  1.0000
  S   S197      1.0  0.82629  0.27852  0.20453  1.0000
  S   S198      1.0  0.77884  0.27623  0.12451  1.0000
  Fe  Fe98      1.0  0.81503  0.29249  0.25526  1.0000
  S   S199      1.0  0.84360  0.33466  0.27506  1.0000
  S   S200      1.0  0.77542  0.28379  0.23186  1.0000
  C   C561      1.0  0.63726  0.47547  0.10687  1.0000
  C   C562      1.0  0.83389  0.35436  0.06986  1.0000
  C   C563      1.0  0.84089  0.34832  0.10415  1.0000
  C   C564      1.0  0.82437  0.32435  0.12102  1.0000
  C   C565      1.0  0.80071  0.30609  0.10361  1.0000
  C   C566      1.0  0.79411  0.31172  0.06882  1.0000
  C   C567      1.0  0.81066  0.33571  0.05192  1.0000
  H   H560      1.0  0.85893  0.36255  0.11810  1.0000
  H   H561      1.0  0.82980  0.32018  0.14768  1.0000
  H   H562      1.0  0.77587  0.29766  0.05508  1.0000
  H   H563      1.0  0.80498  0.34019  0.02560  1.0000
  H   H564      1.0  0.80202  0.37700  0.11726  1.0000
  H   H565      1.0  0.77376  0.45795  0.26294  1.0000
  C   C568      1.0  0.83544  0.38016  0.37343  1.0000
  C   C569      1.0  0.81615  0.35390  0.36569  1.0000
  C   C570      1.0  0.81825  0.33975  0.33566  1.0000
  C   C571      1.0  0.83980  0.35169  0.31304  1.0000
  C   C572      1.0  0.85903  0.37804  0.32060  1.0000
  C   C573      1.0  0.85688  0.39224  0.35056  1.0000
  H   H566      1.0  0.79949  0.34436  0.38318  1.0000
  H   H567      1.0  0.80331  0.31951  0.33026  1.0000
  H   H568      1.0  0.87582  0.38746  0.30333  1.0000
  H   H569      1.0  0.87189  0.41240  0.35610  1.0000
  Fe  Fe99      1.0  0.50842  0.43814  0.42991  1.0000
  H   H570      1.0  0.64683  0.47796  0.43246  1.0000
  Fe  Fe100     1.0  0.51842  0.40175  0.48078  1.0000
  C   C574      1.0  0.49731  0.32493  0.34902  1.0000
  H   H571      1.0  0.52192  0.30975  0.32744  1.0000
  C   C575      1.0  0.64654  0.48161  0.31463  1.0000
  C   C576      1.0  0.63085  0.46111  0.33818  1.0000
  C   C577      1.0  0.60955  0.46119  0.35583  1.0000
  C   C578      1.0  0.53838  0.36143  0.27417  1.0000
  H   H572      1.0  0.63566  0.44542  0.34346  1.0000
  N   N45       1.0  0.80289  0.35777  0.16657  1.0000
  Fe  Fe101     1.0  0.91377  0.48427  0.44571  1.0000
  H   H573      1.0  0.52288  0.32699  0.23836  1.0000
  C   C579      1.0  0.63477  0.47516  0.06865  1.0000
  H   H574      1.0  0.85476  0.37873  0.22674  1.0000
  C   C580      1.0  0.79410  0.44446  0.30067  1.0000
  C   C581      1.0  0.55313  0.39869  0.31760  1.0000
  C   C582      1.0  0.96090  0.43597  0.43673  1.0000
  H   H575      1.0  0.86958  0.32674  0.04450  1.0000
  C   C583      1.0  0.83545  0.28835  0.04784  1.0000
  C   C584      1.0  0.97999  0.49921  0.47589  1.0000
  C   C585      1.0  0.98024  0.49172  0.03969  1.0000
  C   C586      1.0  0.85733  0.28372  0.11386  1.0000
  C   C587      1.0  0.81563  0.48422  0.26579  1.0000
  H   H576      1.0  0.91418  0.40771  0.39942  1.0000
  H   H577      1.0  0.51318  0.34049  0.36501  1.0000
  C   C588      1.0  0.84032  0.47218  0.30873  1.0000
  C   C589      1.0  0.85416  0.39868  0.17727  1.0000
  H   H578      1.0  0.76190  0.34039  0.17580  1.0000
  S   S201      1.0  0.95647  0.49310  0.43974  1.0000
  C   C590      1.0  0.91437  0.42112  0.42137  1.0000
  H   H579      1.0  0.77438  0.31717  0.17051  1.0000
  H   H580      1.0  0.55165  0.41723  0.31741  1.0000
  H   H581      1.0  0.97308  0.49296  0.06617  1.0000
  H   H582      1.0  0.85883  0.47733  0.32328  1.0000
  C   C591      1.0  0.83908  0.39821  0.14659  1.0000
  C   C592      1.0  0.51378  0.48547  0.01785  1.0000
  C   C593      1.0  0.50783  0.37545  0.29247  1.0000
  C   C594      1.0  0.84322  0.37873  0.20283  1.0000
  H   H583      1.0  0.80919  0.34281  0.21701  1.0000
  H   H584      1.0  0.61977  0.46568  0.12278  1.0000
  H   H585      1.0  0.65579  0.48755  0.01883  1.0000
  C   C595      1.0  0.60348  0.48153  0.34853  1.0000
  H   H586      1.0  0.66311  0.48148  0.30179  1.0000
  N   N46       1.0  0.93574  0.42675  0.44833  1.0000
  H   H587      1.0  0.94133  0.46451  0.01729  1.0000
  C   C596      1.0  0.93079  0.42384  0.48475  1.0000
  H   H588      1.0  0.77603  0.42740  0.30847  1.0000
  C   C597      1.0  0.81736  0.35837  0.19711  1.0000
  Fe  Fe102     1.0  0.86927  0.47990  0.49337  1.0000
  H   H589      1.0  0.58718  0.48191  0.36185  1.0000
  H   H590      1.0  0.68339  0.47511  0.40294  1.0000
  N   N47       1.0  0.81777  0.44979  0.31702  1.0000
  Fe  Fe103     1.0  0.87052  0.49636  0.41440  1.0000
  C   C598      1.0  0.82247  0.26584  0.06903  1.0000
  C   C599      1.0  0.81325  0.37760  0.14180  1.0000
  H   H591      1.0  0.84761  0.41312  0.12586  1.0000
  H   H592      1.0  0.77000  0.33287  0.13142  1.0000
  C   C600      1.0  0.51876  0.34112  0.25254  1.0000
  C   C601      1.0  0.83963  0.48961  0.28283  1.0000
  N   N48       1.0  0.83352  0.26370  0.10146  1.0000
  H   H593      1.0  0.57339  0.40402  0.30914  1.0000
  C   C602      1.0  0.77592  0.33610  0.16088  1.0000
  C   C603      1.0  0.85972  0.30885  0.06022  1.0000
  S   S202      1.0  0.80000  0.25287  0.28197  1.0000
  H   H594      1.0  0.81071  0.48227  0.38543  1.0000
  Fe  Fe104     1.0  0.49625  0.38220  0.40332  1.0000
  C   C604      1.0  0.87078  0.30658  0.09345  1.0000
  C   C605      1.0  0.79268  0.46152  0.27469  1.0000
  C   C606      1.0  0.65748  0.48774  0.04828  1.0000
  H   H595      1.0  0.82637  0.29028  0.02253  1.0000
  C   C607      1.0  0.81861  0.43251  0.34563  1.0000
  H   H596      1.0  0.86594  0.28222  0.13982  1.0000
  C   C608      1.0  0.49841  0.48561  0.04701  1.0000
  C   C609      1.0  0.96217  0.47553  0.01202  1.0000
  C   C610      1.0  0.81028  0.49598  0.36577  1.0000
  H   H597      1.0  0.76839  0.47328  0.35432  1.0000
  H   H598      1.0  0.91102  0.41729  0.49411  1.0000
  H   H599      1.0  0.83815  0.43317  0.34757  1.0000
  H   H600      1.0  0.50304  0.38807  0.30912  1.0000
  H   H601      1.0  0.52375  0.47366  0.01922  1.0000
  H   H602      1.0  0.81476  0.43877  0.37244  1.0000
  C   C611      1.0  0.50933  0.49375  0.49320  1.0000
  H   H603      1.0  0.91729  0.43990  0.40911  1.0000
  C   C612      1.0  0.66224  0.48864  0.12470  1.0000
  C   C613      1.0  0.78632  0.49099  0.34816  1.0000
  C   C614      1.0  0.66018  0.49390  0.41549  1.0000
  C   C615      1.0  0.68081  0.49233  0.39849  1.0000
  H   H604      1.0  0.81456  0.49824  0.24703  1.0000
  H   H605      1.0  0.96501  0.43957  0.40806  1.0000
  H   H606      1.0  0.72209  0.49433  0.36848  1.0000
  H   H607      1.0  0.58604  0.49197  0.09384  1.0000
  H   H608      1.0  0.66394  0.48898  0.15415  1.0000
  H   H609      1.0  0.49685  0.47400  0.07082  1.0000
  S   S203      1.0  0.75582  0.49879  0.29636  1.0000
  C   C616      1.0  0.98183  0.44210  0.46179  1.0000
  H   H610      1.0  0.52179  0.48456  0.49600  1.0000
  C   C617      1.0  0.97697  0.43912  0.49894  1.0000
  C   C618      1.0  0.68249  0.50047  0.06609  1.0000
  C   C619      1.0  0.51962  0.34271  0.92381  1.0000
  S   S204      1.0  0.55397  0.44210  0.96581  1.0000
  H   H611      1.0  0.51266  0.40213  0.86836  1.0000
  C   C620      1.0  0.68750  0.48843  0.83993  1.0000
  S   S205      1.0  0.61335  0.45759  0.93829  1.0000
  Fe  Fe105     1.0  0.57191  0.43812  0.91391  1.0000
  S   S206      1.0  0.56323  0.40211  0.87839  1.0000
  C   C621      1.0  0.97103  0.47402  0.97745  1.0000
  S   S207      1.0  0.57514  0.47551  0.89077  1.0000
  H   H612      1.0  0.61534  0.41068  0.78670  1.0000
  C   C622      1.0  0.51238  0.38658  0.85143  1.0000
  H   H613      1.0  0.50840  0.43714  0.57991  1.0000
  S   S208      1.0  0.88779  0.38694  0.96530  1.0000
  Fe  Fe106     1.0  0.84953  0.42066  0.92185  1.0000
  S   S209      1.0  0.87872  0.41324  0.89132  1.0000
  S   S210      1.0  0.82335  0.43588  0.89395  1.0000
  Fe  Fe107     1.0  0.85926  0.37305  0.91676  1.0000
  S   S211      1.0  0.84947  0.33298  0.89114  1.0000
  Fe  Fe108     1.0  0.90438  0.42789  0.94308  1.0000
  S   S212      1.0  0.94888  0.45619  0.94044  1.0000
  S   S213      1.0  0.82866  0.37940  0.94489  1.0000
  S   S214      1.0  0.87619  0.43759  0.97210  1.0000
  C   C623      1.0  0.80845  0.44717  0.62588  1.0000
  H   H614      1.0  0.82642  0.31852  0.74052  1.0000
  H   H615      1.0  0.87324  0.48316  0.87837  1.0000
  C   C624      1.0  0.83359  0.48710  0.71246  1.0000
  C   C625      1.0  0.50638  0.34256  0.54605  1.0000
  H   H616      1.0  0.52010  0.27491  0.85688  1.0000
  H   H617      1.0  0.64872  0.45151  0.76579  1.0000
  C   C626      1.0  0.84475  0.49983  0.56963  1.0000
  C   C627      1.0  0.85768  0.48319  0.86126  1.0000
  C   C628      1.0  0.51536  0.49982  0.98647  1.0000
  H   H618      1.0  0.58523  0.40894  0.80160  1.0000
  H   H619      1.0  0.54046  0.31309  0.90048  1.0000
  H   H620      1.0  0.70455  0.27319  0.84688  1.0000
  C   C629      1.0  0.81737  0.48426  0.81783  1.0000
  C   C630      1.0  0.81213  0.46246  0.84003  1.0000
  C   C631      1.0  0.83210  0.46194  0.86237  1.0000
  H   H621      1.0  0.61227  0.41755  0.83395  1.0000
  H   H622      1.0  0.81264  0.27170  0.72650  1.0000
  H   H623      1.0  0.79227  0.44614  0.84060  1.0000
  S   S215      1.0  0.51087  0.39272  0.54106  1.0000
  H   H624      1.0  0.80158  0.48452  0.80159  1.0000
  H   H625      1.0  0.85988  0.34212  0.79036  1.0000
  H   H626      1.0  0.82596  0.49332  0.73494  1.0000
  C   C632      1.0  0.85457  0.32190  0.78286  1.0000
  C   C633      1.0  0.78385  0.28491  0.80562  1.0000
  C   C634      1.0  0.79072  0.31139  0.81323  1.0000
  C   C635      1.0  0.80979  0.32604  0.84073  1.0000
  C   C636      1.0  0.82226  0.31431  0.86079  1.0000
  C   C637      1.0  0.81459  0.28750  0.85416  1.0000
  C   C638      1.0  0.79543  0.27282  0.82678  1.0000
  H   H627      1.0  0.78179  0.32091  0.79710  1.0000
  H   H628      1.0  0.81553  0.34666  0.84553  1.0000
  H   H629      1.0  0.82411  0.27828  0.86961  1.0000
  H   H630      1.0  0.51409  0.34539  0.51896  1.0000
  C   C639      1.0  0.83585  0.30868  0.75491  1.0000
  Fe  Fe109     1.0  0.56054  0.48135  0.94480  1.0000
  H   H631      1.0  0.65556  0.47799  0.87688  1.0000
  H   H632      1.0  0.68523  0.46869  0.83890  1.0000
  C   C640      1.0  0.53465  0.38299  0.85065  1.0000
  C   C641      1.0  0.53393  0.36264  0.82863  1.0000
  C   C642      1.0  0.52098  0.30717  0.88860  1.0000
  H   H633      1.0  0.81918  0.44815  0.60070  1.0000
  H   H634      1.0  0.55100  0.35958  0.82804  1.0000
  C   C643      1.0  0.85279  0.47091  0.65482  1.0000
  C   C644      1.0  0.60502  0.46091  0.81367  1.0000
  H   H635      1.0  0.86062  0.46520  0.63191  1.0000
  H   H636      1.0  0.50521  0.47032  0.62034  1.0000
  C   C645      1.0  0.81990  0.49220  0.55335  1.0000
  H   H637      1.0  0.95292  0.49001  0.51940  1.0000
  C   C646      1.0  0.81682  0.47161  0.68371  1.0000
  H   H638      1.0  0.94752  0.42850  0.53947  1.0000
  N   N49       1.0  0.61695  0.44800  0.79797  1.0000
  C   C647      1.0  0.50332  0.36264  0.56302  1.0000
  N   N50       1.0  0.83901  0.26923  0.76635  1.0000
  C   C648      1.0  0.87016  0.48670  0.68294  1.0000
  H   H639      1.0  0.79606  0.46624  0.68393  1.0000
  H   H640      1.0  0.71502  0.26051  0.80959  1.0000
  H   H641      1.0  0.87898  0.31837  0.82552  1.0000
  H   H642      1.0  0.60574  0.49843  0.82202  1.0000
  S   S216      1.0  0.86551  0.48758  0.55341  1.0000
  C   C649      1.0  0.82808  0.28212  0.74716  1.0000
  H   H643      1.0  0.98590  0.49463  0.56799  1.0000
  Fe  Fe110     1.0  0.59591  0.46522  0.98794  1.0000
  C   C650      1.0  0.86042  0.49479  0.71194  1.0000
  C   C651      1.0  0.60709  0.41991  0.80528  1.0000
  N   N51       1.0  0.50779  0.32076  0.89718  1.0000
  H   H644      1.0  0.74177  0.44500  0.89532  1.0000
  C   C652      1.0  0.78271  0.47186  0.90821  1.0000
  H   H645      1.0  0.58828  0.45032  0.83086  1.0000
  C   C653      1.0  0.86535  0.30852  0.80261  1.0000
  C   C654      1.0  0.85721  0.28198  0.79406  1.0000
  H   H646      1.0  0.79396  0.45403  0.61837  1.0000
  C   C655      1.0  0.75811  0.46462  0.89156  1.0000
  H   H647      1.0  0.79776  0.42634  0.63460  1.0000
  S   S217      1.0  0.76192  0.26830  0.76816  1.0000
  H   H648      1.0  0.54143  0.35383  0.92153  1.0000
  C   C656      1.0  0.64851  0.48845  0.77116  1.0000
  C   C657      1.0  0.95130  0.42995  0.51057  1.0000
  H   H649      1.0  0.50192  0.30331  0.55095  1.0000
  N   N52       1.0  0.82654  0.46384  0.65530  1.0000
  C   C658      1.0  0.61457  0.48796  0.80845  1.0000
  H   H650      1.0  0.86506  0.27150  0.81032  1.0000
  H   H651      1.0  0.79030  0.25245  0.82135  1.0000
  C   C659      1.0  0.63857  0.46142  0.77715  1.0000
  C   C660      1.0  0.51109  0.34585  0.80775  1.0000
  C   C661      1.0  0.49952  0.31875  0.56429  1.0000
  C   C662      1.0  0.67061  0.49362  0.86147  1.0000
  H   H652      1.0  0.81427  0.48101  0.52793  1.0000
  Fe  Fe111     1.0  0.85817  0.39554  0.99196  1.0000
  H   H653      1.0  0.78581  0.45778  0.92444  1.0000
  H   H654      1.0  0.51484  0.33513  0.95187  1.0000
  H   H655      1.0  0.51069  0.33006  0.79128  1.0000
  C   C663      1.0  0.97292  0.49540  0.51241  1.0000
  H   H656      1.0  0.73573  0.47729  0.85660  1.0000
  C   C664      1.0  0.71630  0.26330  0.83974  1.0000
  H   H657      1.0  0.78220  0.49095  0.55894  1.0000
  S   S218      1.0  0.53092  0.49707  0.94677  1.0000
  Fe  Fe112     1.0  0.61576  0.49508  0.91724  1.0000
  S   S219      1.0  0.72561  0.49996  0.78967  1.0000
  H   H658      1.0  0.73726  0.27672  0.84800  1.0000
  H   H659      1.0  0.51242  0.35726  0.91896  1.0000
  C   C665      1.0  0.80170  0.49770  0.57113  1.0000
  C   C666      1.0  0.80369  0.49710  0.90263  1.0000
  C   C667      1.0  0.50964  0.28560  0.86417  1.0000
  H   H660      1.0  0.89107  0.49287  0.68194  1.0000
  C   C668      1.0  0.75475  0.48265  0.86976  1.0000
  H   H661      1.0  0.66620  0.49922  0.75571  1.0000
  C   C669      1.0  0.99166  0.49798  0.53990  1.0000
  H   H662      1.0  0.99324  0.44502  0.51875  1.0000
  S   S220      1.0  0.86229  0.69895  0.11143  1.0000
  Fe  Fe113     1.0  0.74621  0.52532  0.26002  1.0000
  S   S221      1.0  0.74029  0.55788  0.28430  1.0000
  Fe  Fe114     1.0  0.89010  0.74379  0.11181  1.0000
  Fe  Fe115     1.0  0.72319  0.52981  0.18563  1.0000
  S   S222      1.0  0.71522  0.56207  0.20566  1.0000
  C   C670      1.0  0.51702  0.69363  0.13987  1.0000
  Fe  Fe116     1.0  0.75600  0.57944  0.23158  1.0000
  S   S223      1.0  0.78478  0.62409  0.23220  1.0000
  Fe  Fe117     1.0  0.70029  0.53733  0.25589  1.0000
  S   S224      1.0  0.66250  0.53069  0.28322  1.0000
  S   S225      1.0  0.76481  0.54809  0.20954  1.0000
  H   H663      1.0  0.63289  0.73666  0.36092  1.0000
  C   C671      1.0  0.89269  0.68804  0.18777  1.0000
  C   C672      1.0  0.52509  0.64491  0.39647  1.0000
  Fe  Fe118     1.0  0.53045  0.70493  0.25232  1.0000
  S   S226      1.0  0.52312  0.66589  0.22672  1.0000
  Fe  Fe119     1.0  0.52958  0.73003  0.32544  1.0000
  H   H664      1.0  0.54529  0.67964  0.36379  1.0000
  S   S227      1.0  0.55930  0.72113  0.29994  1.0000
  C   C673      1.0  0.59562  0.51155  0.08063  1.0000
  C   C674      1.0  0.61930  0.50213  0.32516  1.0000
  H   H665      1.0  0.63919  0.51614  0.42031  1.0000
  C   C675      1.0  0.90241  0.72977  0.21777  1.0000
  C   C676      1.0  0.64123  0.50259  0.30862  1.0000
  H   H666      1.0  0.85114  0.62463  0.21046  1.0000
  C   C677      1.0  0.67214  0.53490  0.38500  1.0000
  H   H667      1.0  0.53276  0.70593  0.15921  1.0000
  C   C678      1.0  0.66942  0.55045  0.07913  1.0000
  H   H668      1.0  0.89187  0.73665  0.19853  1.0000
  H   H669      1.0  0.84539  0.64814  0.26319  1.0000
  S   S228      1.0  0.52802  0.72328  0.38661  1.0000
  C   C679      1.0  0.78558  0.50825  0.32172  1.0000
  C   C680      1.0  0.83375  0.51825  0.35691  1.0000
  C   C681      1.0  0.64285  0.53664  0.06768  1.0000
  S   S229      1.0  0.86480  0.52317  0.37392  1.0000
  H   H670      1.0  0.90457  0.69919  0.16528  1.0000
  C   C682      1.0  0.87307  0.68684  0.24422  1.0000
  C   C683      1.0  0.83284  0.53604  0.33151  1.0000
  C   C684      1.0  0.80884  0.53113  0.31403  1.0000
  H   H671      1.0  0.85092  0.55336  0.32460  1.0000
  H   H672      1.0  0.80851  0.54454  0.29371  1.0000
  C   C685      1.0  0.83823  0.67875  0.14321  1.0000
  C   C686      1.0  0.83326  0.68922  0.17468  1.0000
  C   C687      1.0  0.81599  0.67224  0.20081  1.0000
  C   C688      1.0  0.80333  0.64457  0.19590  1.0000
  C   C689      1.0  0.80752  0.63413  0.16378  1.0000
  C   C690      1.0  0.82486  0.65112  0.13770  1.0000
  H   H673      1.0  0.84300  0.71039  0.17917  1.0000
  H   H674      1.0  0.81278  0.68060  0.22536  1.0000
  H   H675      1.0  0.79795  0.61295  0.15943  1.0000
  H   H676      1.0  0.82836  0.64275  0.11339  1.0000
  S   S230      1.0  0.54894  0.74398  0.22427  1.0000
  H   H677      1.0  0.92327  0.73831  0.20967  1.0000
  S   S231      1.0  0.71669  0.51848  0.12549  1.0000
  H   H678      1.0  0.70429  0.54736  0.34881  1.0000
  H   H679      1.0  0.63794  0.53352  0.03871  1.0000
  H   H680      1.0  0.59330  0.50746  0.05076  1.0000
  C   C691      1.0  0.62978  0.52972  0.12919  1.0000
  H   H681      1.0  0.86959  0.69698  0.26660  1.0000
  S   S232      1.0  0.70539  0.50391  0.23364  1.0000
  C   C692      1.0  0.86264  0.64598  0.21289  1.0000
  S   S233      1.0  0.49956  0.71113  0.27940  1.0000
  S   S234      1.0  0.89999  0.51321  0.46161  1.0000
  H   H682      1.0  0.71046  0.50273  0.32723  1.0000
  H   H683      1.0  0.61492  0.51819  0.32059  1.0000
  H   H684      1.0  0.61443  0.52135  0.14898  1.0000
  C   C693      1.0  0.65615  0.54343  0.14159  1.0000
  N   N53       1.0  0.50533  0.61932  0.39742  1.0000
  C   C694      1.0  0.53028  0.65906  0.36410  1.0000
  C   C695      1.0  0.51525  0.64682  0.33252  1.0000
  N   N54       1.0  0.62344  0.52632  0.09266  1.0000
  C   C696      1.0  0.51013  0.68934  0.44402  1.0000
  H   H685      1.0  0.51340  0.59498  0.43328  1.0000
  H   H686      1.0  0.50947  0.61781  0.18713  1.0000
  C   C697      1.0  0.87940  0.66043  0.18529  1.0000
  H   H687      1.0  0.97985  0.54765  0.02529  1.0000
  C   C698      1.0  0.51827  0.67274  0.12216  1.0000
  C   C699      1.0  0.68496  0.50120  0.10433  1.0000
  H   H688      1.0  0.52670  0.70467  0.45934  1.0000
  H   H689      1.0  0.53472  0.66901  0.12789  1.0000
  C   C700      1.0  0.71721  0.50906  0.35598  1.0000
  H   H690      1.0  0.66821  0.55101  0.37804  1.0000
  H   H691      1.0  0.90268  0.73800  0.24530  1.0000
  H   H692      1.0  0.68482  0.55774  0.05932  1.0000
  H   H693      1.0  0.73581  0.52817  0.35596  1.0000
  C   C701      1.0  0.69255  0.53270  0.36847  1.0000
  H   H694      1.0  0.69667  0.56352  0.12547  1.0000
  H   H695      1.0  0.53648  0.65475  0.42109  1.0000
  C   C702      1.0  0.85946  0.65921  0.24261  1.0000
  N   N55       1.0  0.88953  0.70086  0.21707  1.0000
  H   H696      1.0  0.88102  0.65045  0.16118  1.0000
  C   C703      1.0  0.67607  0.55372  0.11632  1.0000
  N   N56       1.0  0.69674  0.51168  0.37546  1.0000
  C   C704      1.0  0.50568  0.69339  0.40729  1.0000
  C   C705      1.0  0.65583  0.51531  0.40858  1.0000
  H   H697      1.0  0.66113  0.54548  0.17058  1.0000
  H   H698      1.0  0.70001  0.51010  0.05018  1.0000
  C   C706      1.0  0.50071  0.60459  0.43135  1.0000
  H   H699      1.0  0.85736  0.50793  0.27766  1.0000
  H   H700      1.0  0.49700  0.66267  0.48944  1.0000
  H   H701      1.0  0.50485  0.61784  0.45553  1.0000
  H   H702      1.0  0.51359  0.73714  0.15586  1.0000
  H   H703      1.0  0.61755  0.74844  0.32733  1.0000
  H   H704      1.0  0.58513  0.52280  0.08750  1.0000
  H   H705      1.0  0.51886  0.65764  0.30728  1.0000
  H   H706      1.0  0.58562  0.74638  0.37115  1.0000
  N   N57       1.0  0.49574  0.69773  0.13416  1.0000
  C   C707      1.0  0.49745  0.65585  0.09878  1.0000
  H   H707      1.0  0.49763  0.63892  0.08605  1.0000
  C   C708      1.0  0.99039  0.54986  0.00042  1.0000
  C   C709      1.0  0.97718  0.53493  0.96914  1.0000
  C   C710      1.0  0.80394  0.61617  0.57640  1.0000
  S   S235      1.0  0.84816  0.71063  0.59942  1.0000
  Fe  Fe120     1.0  0.76157  0.52771  0.75773  1.0000
  S   S236      1.0  0.79787  0.56156  0.78318  1.0000
  C   C711      1.0  0.80141  0.63855  0.56800  1.0000
  Fe  Fe121     1.0  0.79026  0.53135  0.68625  1.0000
  S   S237      1.0  0.82839  0.56507  0.70752  1.0000
  H   H708      1.0  0.89182  0.73338  0.65173  1.0000
  Fe  Fe122     1.0  0.81959  0.54160  0.75952  1.0000
  S   S238      1.0  0.85006  0.53451  0.79174  1.0000
  Fe  Fe123     1.0  0.80280  0.58161  0.72858  1.0000
  S   S239      1.0  0.80837  0.62384  0.72435  1.0000
  H   H709      1.0  0.80304  0.57170  0.59224  1.0000
  S   S240      1.0  0.76477  0.54864  0.70486  1.0000
  C   C712      1.0  0.67287  0.51889  0.86238  1.0000
  H   H710      1.0  0.69447  0.55859  0.84273  1.0000
  H   H711      1.0  0.97903  0.53345  0.88223  1.0000
  C   C713      1.0  0.97688  0.52064  0.90580  1.0000
  H   H712      1.0  0.87099  0.52047  0.61531  1.0000
  C   C714      1.0  0.52869  0.71924  0.69027  1.0000
  C   C715      1.0  0.53259  0.70008  0.67146  1.0000
  H   H713      1.0  0.98499  0.50714  0.89918  1.0000
  N   N58       1.0  0.88345  0.73263  0.70764  1.0000
  H   H714      1.0  0.55133  0.70016  0.67444  1.0000
  H   H715      1.0  0.87982  0.69443  0.71637  1.0000
  C   C716      1.0  0.63644  0.50176  0.78705  1.0000
  C   C717      1.0  0.84280  0.50582  0.81747  1.0000
  S   S241      1.0  0.78324  0.50703  0.73636  1.0000
  C   C718      1.0  0.78566  0.64512  0.58924  1.0000
  C   C719      1.0  0.77617  0.50768  0.86467  1.0000
  H   H716      1.0  0.88273  0.52150  0.83882  1.0000
  C   C720      1.0  0.85501  0.70207  0.75140  1.0000
  H   H717      1.0  0.82143  0.54810  0.84770  1.0000
  C   C721      1.0  0.83830  0.68775  0.63577  1.0000
  C   C722      1.0  0.82207  0.68798  0.66319  1.0000
  C   C723      1.0  0.81284  0.66806  0.68962  1.0000
  C   C724      1.0  0.81993  0.64782  0.68938  1.0000
  C   C725      1.0  0.83649  0.64781  0.66228  1.0000
  C   C726      1.0  0.84553  0.66760  0.63564  1.0000
  H   H718      1.0  0.81613  0.70318  0.66356  1.0000
  H   H719      1.0  0.80007  0.66833  0.71044  1.0000
  H   H720      1.0  0.84242  0.63262  0.66188  1.0000
  H   H721      1.0  0.85803  0.66716  0.61452  1.0000
  H   H722      1.0  0.78442  0.66303  0.58383  1.0000
  C   C727      1.0  0.87453  0.75002  0.71641  1.0000
  C   C728      1.0  0.70945  0.53378  0.82055  1.0000
  C   C729      1.0  0.69256  0.53898  0.84214  1.0000
  H   H723      1.0  0.72416  0.54932  0.80460  1.0000
  H   H724      1.0  0.84691  0.68284  0.76402  1.0000
  H   H725      1.0  0.77331  0.52150  0.84756  1.0000
  H   H726      1.0  0.84168  0.54078  0.87754  1.0000
  H   H727      1.0  0.82231  0.55497  0.89603  1.0000
  C   C730      1.0  0.70676  0.50837  0.81901  1.0000
  H   H728      1.0  0.81671  0.61155  0.56026  1.0000
  S   S242      1.0  0.65050  0.52579  0.88631  1.0000
  H   H729      1.0  0.83102  0.71458  0.78093  1.0000
  C   C731      1.0  0.85568  0.74388  0.74298  1.0000
  C   C732      1.0  0.82249  0.54092  0.87542  1.0000
  C   C733      1.0  0.86297  0.50497  0.83892  1.0000
  S   S243      1.0  0.51748  0.65575  0.62834  1.0000
  C   C734      1.0  0.50890  0.51020  0.52141  1.0000
  H   H730      1.0  0.95624  0.52120  0.97015  1.0000
  N   N59       1.0  0.79101  0.60073  0.60510  1.0000
  C   C735      1.0  0.77576  0.60720  0.62633  1.0000
  C   C736      1.0  0.77271  0.62937  0.61859  1.0000
  C   C737      1.0  0.79459  0.57796  0.61471  1.0000
  H   H731      1.0  0.76652  0.59566  0.65011  1.0000
  H   H732      1.0  0.76123  0.63487  0.63611  1.0000
  H   H733      1.0  0.80797  0.58282  0.63917  1.0000
  N   N60       1.0  0.99069  0.53675  0.93829  1.0000
  C   C738      1.0  0.87368  0.70875  0.72439  1.0000
  C   C739      1.0  0.83347  0.51960  0.62063  1.0000
  H   H734      1.0  0.52104  0.51345  0.54587  1.0000
  H   H735      1.0  0.91415  0.72846  0.68208  1.0000
  H   H736      1.0  0.54433  0.73390  0.70766  1.0000
  H   H737      1.0  0.50344  0.52632  0.96120  1.0000
  H   H738      1.0  0.77533  0.56061  0.62071  1.0000
  H   H739      1.0  0.81235  0.65133  0.54604  1.0000
  C   C740      1.0  0.80816  0.51078  0.60527  1.0000
  H   H740      1.0  0.83881  0.52996  0.64668  1.0000
  C   C741      1.0  0.50441  0.71903  0.68699  1.0000
  H   H741      1.0  0.49813  0.69217  0.75595  1.0000
  S   S244      1.0  0.49586  0.60919  0.54004  1.0000
  N   N61       1.0  0.80034  0.51448  0.88065  1.0000
  C   C742      1.0  0.51235  0.68064  0.64917  1.0000
  C   C743      1.0  0.84591  0.71975  0.76060  1.0000
  C   C744      1.0  0.50218  0.51500  0.98521  1.0000
  H   H742      1.0  0.50372  0.65687  0.73042  1.0000
  S   S245      1.0  0.60161  0.50458  0.96910  1.0000
  H   H743      1.0  0.64465  0.52294  0.78411  1.0000
  S   S246      1.0  0.49738  0.74097  0.71243  1.0000
  S   S247      1.0  0.78360  0.51424  0.62876  1.0000
  C   C745      1.0  0.85168  0.51420  0.60278  1.0000
  H   H744      1.0  0.95546  0.50783  0.91010  1.0000
  C   C746      1.0  0.90245  0.73904  0.67870  1.0000
  H   H745      1.0  0.82288  0.50230  0.91502  1.0000
  H   H746      1.0  0.87355  0.50717  0.73396  1.0000
  S   S248      1.0  0.50595  0.86830  0.14703  1.0000
  S   S249      1.0  0.88468  0.77363  0.14466  1.0000
  Fe  Fe124     1.0  0.94353  0.78717  0.08261  1.0000
  S   S250      1.0  0.94171  0.81927  0.11511  1.0000
  C   C747      1.0  0.86488  0.96869  0.06361  1.0000
  Fe  Fe125     1.0  0.92771  0.79025  0.16077  1.0000
  S   S251      1.0  0.93738  0.79598  0.22163  1.0000
  Fe  Fe126     1.0  0.89897  0.79968  0.09570  1.0000
  S   S252      1.0  0.88374  0.82776  0.07711  1.0000
  C   C748      1.0  0.80174  0.98661  0.23287  1.0000
  S   S253      1.0  0.90136  0.76870  0.06103  1.0000
  H   H747      1.0  0.95789  0.80567  0.29522  1.0000
  Fe  Fe127     1.0  0.78503  0.94802  0.42978  1.0000
  S   S254      1.0  0.81592  0.94808  0.39382  1.0000
  H   H748      1.0  0.57626  0.76971  0.42010  1.0000
  Fe  Fe128     1.0  0.74045  0.89727  0.39256  1.0000
  S   S255      1.0  0.76867  0.89360  0.35515  1.0000
  S   S256      1.0  0.69562  0.87115  0.39298  1.0000
  Fe  Fe129     1.0  0.79618  0.90420  0.40477  1.0000
  S   S257      1.0  0.82321  0.88683  0.42067  1.0000
  Fe  Fe130     1.0  0.78566  0.93764  0.34761  1.0000
  S   S258      1.0  0.78599  0.95123  0.28887  1.0000
  S   S259      1.0  0.76673  0.90478  0.44274  1.0000
  S   S260      1.0  0.75603  0.94064  0.38318  1.0000
  C   C749      1.0  0.91135  0.82763  0.45419  1.0000
  S   S261      1.0  0.54645  0.77117  0.30252  1.0000
  S   S262      1.0  0.61961  0.78684  0.27278  1.0000
  H   H749      1.0  0.53375  0.96824  0.02674  1.0000
  C   C750      1.0  0.85333  0.79982  0.01638  1.0000
  C   C751      1.0  0.97435  0.81606  0.27769  1.0000
  C   C752      1.0  0.67503  0.84834  0.35857  1.0000
  C   C753      1.0  0.68507  0.83877  0.33159  1.0000
  C   C754      1.0  0.66781  0.81997  0.30553  1.0000
  C   C755      1.0  0.64039  0.81045  0.30625  1.0000
  C   C756      1.0  0.63036  0.82008  0.33316  1.0000
  C   C757      1.0  0.64762  0.83899  0.35906  1.0000
  H   H750      1.0  0.70608  0.84569  0.33098  1.0000
  H   H751      1.0  0.67576  0.81263  0.28479  1.0000
  H   H752      1.0  0.60933  0.81303  0.33393  1.0000
  H   H753      1.0  0.63967  0.84631  0.37980  1.0000
  H   H754      1.0  0.61353  0.80581  0.45584  1.0000
  C   C758      1.0  0.80868  0.98076  0.26740  1.0000
  C   C759      1.0  0.86013  0.98238  0.09148  1.0000
  H   H755      1.0  0.97956  0.85373  0.37471  1.0000
  C   C760      1.0  0.63273  0.75447  0.34983  1.0000
  H   H756      1.0  0.64500  0.85785  0.25535  1.0000
  C   C761      1.0  0.81302  0.99010  0.01389  1.0000
  C   C762      1.0  0.51811  0.81572  0.20801  1.0000
  C   C763      1.0  0.52062  0.83906  0.19210  1.0000
  H   H757      1.0  0.86063  0.85838  0.04843  1.0000
  H   H758      1.0  0.53183  0.81683  0.22951  1.0000
  H   H759      1.0  0.53639  0.85800  0.20153  1.0000
  C   C764      1.0  0.96600  0.81432  0.39440  1.0000
  C   C765      1.0  0.84375  0.94651  0.04720  1.0000
  C   C766      1.0  0.81729  0.86243  0.45400  1.0000
  C   C767      1.0  0.79316  0.84910  0.47113  1.0000
  H   H760      1.0  0.65981  0.81774  0.44165  1.0000
  C   C768      1.0  0.69126  0.90431  0.31277  1.0000
  H   H761      1.0  0.77719  0.85308  0.46346  1.0000
  C   C769      1.0  0.64805  0.78804  0.39890  1.0000
  H   H762      1.0  0.73291  0.91842  0.31000  1.0000
  N   N62       1.0  0.62748  0.76871  0.37884  1.0000
  H   H763      1.0  0.98317  0.84703  0.04001  1.0000
  C   C770      1.0  0.81821  0.93847  0.05852  1.0000
  N   N63       1.0  0.83502  0.97411  0.10271  1.0000
  C   C771      1.0  0.86180  0.82200  0.03933  1.0000
  H   H764      1.0  0.91669  0.78395  0.45354  1.0000
  H   H765      1.0  0.81661  0.97464  0.15185  1.0000
  C   C772      1.0  0.61744  0.79516  0.43455  1.0000
  C   C773      1.0  0.50299  0.98653  0.47608  1.0000
  C   C774      1.0  0.96991  0.81469  0.23970  1.0000
  H   H766      1.0  0.94726  0.86093  0.40957  1.0000
  Fe  Fe131     1.0  0.57487  0.76108  0.27501  1.0000
  H   H767      1.0  0.89525  0.82652  0.43576  1.0000
  C   C775      1.0  0.64336  0.80167  0.42687  1.0000
  H   H768      1.0  0.51266  0.97840  0.45945  1.0000
  C   C776      1.0  0.50282  0.83811  0.16435  1.0000
  H   H769      1.0  0.65196  0.76726  0.33729  1.0000
  S   S263      1.0  0.93260  0.75928  0.12995  1.0000
  C   C777      1.0  0.73532  0.89101  0.25336  1.0000
  H   H770      1.0  0.68524  0.86040  0.22969  1.0000
  C   C778      1.0  0.83010  0.98857  0.13175  1.0000
  H   H771      1.0  0.74930  0.89207  0.27563  1.0000
  H   H772      1.0  0.84700  0.93608  0.02490  1.0000
  C   C779      1.0  0.94733  0.84219  0.41150  1.0000
  H   H773      1.0  0.98061  0.81127  0.38024  1.0000
  N   N64       1.0  0.93013  0.82289  0.43354  1.0000
  C   C780      1.0  0.68715  0.87304  0.25280  1.0000
  H   H774      1.0  0.85917  0.78498  0.02261  1.0000
  H   H775      1.0  0.85035  0.83457  0.49953  1.0000
  H   H776      1.0  0.93571  0.83811  0.03712  1.0000
  H   H777      1.0  0.87065  0.92523  0.46779  1.0000
  C   C781      1.0  0.81415  0.95276  0.08619  1.0000
  C   C782      1.0  0.93008  0.79916  0.43576  1.0000
  C   C783      1.0  0.66429  0.87165  0.26701  1.0000
  C   C784      1.0  0.86368  0.93946  0.47569  1.0000
  C   C785      1.0  0.49744  0.79112  0.19675  1.0000
  H   H778      1.0  0.73092  0.87346  0.23605  1.0000
  H   H779      1.0  0.85787  0.94550  0.44973  1.0000
  C   C786      1.0  0.59658  0.77506  0.41446  1.0000
  H   H780      1.0  0.85657  0.86714  0.45133  1.0000
  C   C787      1.0  0.71368  0.90526  0.29778  1.0000
  H   H781      1.0  0.80159  0.92181  0.04501  1.0000
  H   H782      1.0  0.79415  0.94701  0.09392  1.0000
  N   N65       1.0  0.71141  0.88948  0.26851  1.0000
  S   S264      1.0  0.50109  0.90423  0.05746  1.0000
  H   H783      1.0  0.94099  0.80311  0.00438  1.0000
  C   C788      1.0  0.94805  0.79457  0.41634  1.0000
  S   S265      1.0  0.79121  0.97657  0.47689  1.0000
  H   H784      1.0  0.84532  0.99972  0.45143  1.0000
  H   H785      1.0  0.64881  0.88586  0.30928  1.0000
  C   C789      1.0  0.96557  0.83824  0.39168  1.0000
  H   H786      1.0  0.69316  0.91609  0.33694  1.0000
  C   C790      1.0  0.66642  0.88735  0.29727  1.0000
  H   H787      1.0  0.94884  0.77624  0.41945  1.0000
  C   C791      1.0  0.99042  0.82013  0.48487  1.0000
  H   H788      1.0  0.78256  0.97353  0.22058  1.0000
  H   H789      1.0  0.74545  0.90918  0.23704  1.0000
  H   H790      1.0  0.82773  0.95493  0.48644  1.0000
  C   C792      1.0  0.83783  0.85696  0.46440  1.0000
  C   C793      1.0  0.85411  0.84116  0.03081  1.0000
  S   S266      1.0  0.97822  0.79408  0.04698  1.0000
  H   H791      1.0  0.66829  0.79364  0.39262  1.0000
  H   H792      1.0  0.88473  0.97548  0.05438  1.0000
  H   H793      1.0  0.83912  0.99377  0.30956  1.0000
  H   H794      1.0  0.90247  0.81304  0.47622  1.0000
  C   C794      1.0  0.83438  0.83854  0.49178  1.0000
  H   H795      1.0  0.92155  0.84736  0.46806  1.0000
  C   C795      1.0  0.83346  0.99800  0.28309  1.0000
  C   C796      1.0  0.92798  0.83231  0.00937  1.0000
  C   C797      1.0  0.60199  0.76189  0.38664  1.0000
  H   H796      1.0  0.98800  0.82727  0.18791  1.0000
  H   H797      1.0  0.88006  0.95699  0.48957  1.0000
  C   C798      1.0  0.83864  0.99868  0.00217  1.0000
  C   C799      1.0  0.99201  0.84512  0.48449  1.0000
  C   C800      1.0  0.99126  0.82820  0.21717  1.0000
  N   N66       1.0  0.84111  0.92718  0.49947  1.0000
  H   H798      1.0  0.77270  0.95900  0.00927  1.0000
  H   H799      1.0  0.91231  0.85928  0.00668  1.0000
  C   C801      1.0  0.78956  0.83032  0.49803  1.0000
  H   H800      1.0  0.87662  0.99976  0.10383  1.0000
  Fe  Fe132     1.0  0.51924  0.75144  0.25336  1.0000
  C   C802      1.0  0.53622  0.97979  0.00243  1.0000
  C   C803      1.0  0.79260  0.96577  0.00045  1.0000
  H   H801      1.0  0.82097  0.00011  0.11984  1.0000
  Fe  Fe133     1.0  0.86211  0.79975  0.64641  1.0000
  S   S267      1.0  0.82577  0.76667  0.61986  1.0000
  S   S268      1.0  0.86226  0.80706  0.70763  1.0000
  Fe  Fe134     1.0  0.89419  0.80887  0.57645  1.0000
  S   S269      1.0  0.85966  0.77600  0.54609  1.0000
  S   S270      1.0  0.93195  0.83708  0.54791  1.0000
  Fe  Fe135     1.0  0.83588  0.79333  0.57094  1.0000
  S   S271      1.0  0.80444  0.80091  0.54243  1.0000
  C   C804      1.0  0.82997  0.81626  0.97636  1.0000
  S   S272      1.0  0.87052  0.82718  0.59929  1.0000
  S   S273      1.0  0.88941  0.78486  0.62663  1.0000
  Fe  Fe136     1.0  0.79944  0.84249  0.91439  1.0000
  S   S274      1.0  0.82800  0.87942  0.88675  1.0000
  S   S275      1.0  0.81207  0.81293  0.93498  1.0000
  Fe  Fe137     1.0  0.75173  0.84998  0.88972  1.0000
  S   S276      1.0  0.77750  0.88780  0.86128  1.0000
  S   S277      1.0  0.70662  0.82682  0.88727  1.0000
  Fe  Fe138     1.0  0.79836  0.86620  0.84011  1.0000
  S   S278      1.0  0.80557  0.86681  0.77947  1.0000
  Fe  Fe139     1.0  0.80472  0.89762  0.91111  1.0000
  S   S279      1.0  0.83146  0.93885  0.93549  1.0000
  S   S280      1.0  0.77132  0.82819  0.86582  1.0000
  S   S281      1.0  0.77756  0.86104  0.94143  1.0000
  Fe  Fe140     1.0  0.52733  0.80308  0.82252  1.0000
  S   S282      1.0  0.55831  0.84257  0.80437  1.0000
  H   H802      1.0  0.86000  0.90646  0.79519  1.0000
  Fe  Fe141     1.0  0.52453  0.77654  0.74859  1.0000
  S   S283      1.0  0.55610  0.81434  0.72600  1.0000
  Fe  Fe142     1.0  0.57753  0.82024  0.78063  1.0000
  S   S284      1.0  0.62269  0.84144  0.78586  1.0000
  Fe  Fe143     1.0  0.53435  0.83331  0.75182  1.0000
  S   S285      1.0  0.52888  0.86498  0.72209  1.0000
  S   S286      1.0  0.54752  0.78071  0.80136  1.0000
  C   C805      1.0  0.82343  0.95842  0.96467  1.0000
  H   H803      1.0  0.57035  0.80291  0.89620  1.0000
  H   H804      1.0  0.50990  0.93099  0.93843  1.0000
  H   H805      1.0  0.78933  0.93464  0.52574  1.0000
  H   H806      1.0  0.77070  0.81984  0.51073  1.0000
  H   H807      1.0  0.58346  0.90949  0.89738  1.0000
  H   H808      1.0  0.81186  0.87594  0.55663  1.0000
  C   C806      1.0  0.68358  0.83153  0.85933  1.0000
  C   C807      1.0  0.65697  0.81179  0.85794  1.0000
  C   C808      1.0  0.63806  0.81436  0.83558  1.0000
  C   C809      1.0  0.64552  0.83687  0.81453  1.0000
  C   C810      1.0  0.67215  0.85658  0.81589  1.0000
  C   C811      1.0  0.69107  0.85400  0.83819  1.0000
  H   H809      1.0  0.65098  0.79427  0.87404  1.0000
  H   H810      1.0  0.61785  0.79870  0.83422  1.0000
  H   H811      1.0  0.67816  0.87405  0.79966  1.0000
  H   H812      1.0  0.71139  0.86945  0.83915  1.0000
  H   H813      1.0  0.55761  0.82973  0.92992  1.0000
  C   C812      1.0  0.90616  0.81663  0.93960  1.0000
  C   C813      1.0  0.53286  0.83766  0.63615  1.0000
  C   C814      1.0  0.71488  0.78626  0.81826  1.0000
  C   C815      1.0  0.86781  0.92494  0.81200  1.0000
  H   H814      1.0  0.92156  0.78899  0.94197  1.0000
  C   C816      1.0  0.84557  0.82297  0.72700  1.0000
  C   C817      1.0  0.84407  0.82384  0.76514  1.0000
  C   C818      1.0  0.83154  0.83683  0.78159  1.0000
  C   C819      1.0  0.82061  0.84934  0.75999  1.0000
  C   C820      1.0  0.82188  0.84827  0.72188  1.0000
  C   C821      1.0  0.83417  0.83505  0.70542  1.0000
  H   H815      1.0  0.85283  0.81457  0.78207  1.0000
  H   H816      1.0  0.83065  0.83743  0.81097  1.0000
  H   H817      1.0  0.81344  0.85782  0.70489  1.0000
  H   H818      1.0  0.83516  0.83450  0.67604  1.0000
  N   N67       1.0  0.90369  0.83612  0.95761  1.0000
  C   C822      1.0  0.60347  0.88993  0.87376  1.0000
  H   H819      1.0  0.75252  0.75549  0.81638  1.0000
  S   S287      1.0  0.51412  0.79645  0.88103  1.0000
  C   C823      1.0  0.84376  0.98297  0.97755  1.0000
  H   H820      1.0  0.83377  0.92181  0.75918  1.0000
  C   C824      1.0  0.95439  0.82993  0.52453  1.0000
  C   C825      1.0  0.49877  0.87688  0.67425  1.0000
  C   C826      1.0  0.91969  0.80454  0.95609  1.0000
  N   N68       1.0  0.58797  0.84487  0.89105  1.0000
  H   H821      1.0  0.83257  0.85327  0.99309  1.0000
  H   H822      1.0  0.54684  0.83750  0.61617  1.0000
  H   H823      1.0  0.61621  0.90657  0.85739  1.0000
  C   C827      1.0  0.83749  0.79700  0.98503  1.0000
  H   H824      1.0  0.69888  0.78611  0.83332  1.0000
  C   C828      1.0  0.58882  0.81999  0.88700  1.0000
  C   C829      1.0  0.60477  0.86633  0.87173  1.0000
  H   H825      1.0  0.80068  0.93740  0.76139  1.0000
  N   N69       1.0  0.84828  0.93431  0.81375  1.0000
  C   C830      1.0  0.84679  0.94681  0.84465  1.0000
  C   C831      1.0  0.83246  0.93156  0.78380  1.0000
  C   C832      1.0  0.82847  0.95612  0.84652  1.0000
  C   C833      1.0  0.81372  0.94038  0.78485  1.0000
  C   C834      1.0  0.81170  0.95267  0.81652  1.0000
  H   H826      1.0  0.84859  0.75777  0.74943  1.0000
  Fe  Fe144     1.0  0.85316  0.75275  0.59817  1.0000
  H   H827      1.0  0.52406  0.93035  0.98210  1.0000
  H   H828      1.0  0.97568  0.86944  0.50406  1.0000
  H   H829      1.0  0.77434  0.78919  0.76884  1.0000
  C   C835      1.0  0.51274  0.93856  0.96700  1.0000
  H   H830      1.0  0.79706  0.95934  0.81797  1.0000
  H   H831      1.0  0.51406  0.78912  0.66300  1.0000
  C   C836      1.0  0.79802  0.90394  0.54410  1.0000
  C   C837      1.0  0.93068  0.81251  0.99117  1.0000
  H   H832      1.0  0.86369  0.98976  0.96887  1.0000
  H   H833      1.0  0.51521  0.89673  0.67530  1.0000
  C   C838      1.0  0.71864  0.82461  0.78500  1.0000
  H   H834      1.0  0.87163  0.83413  0.92511  1.0000
  C   C839      1.0  0.50417  0.81755  0.90290  1.0000
  C   C840      1.0  0.50013  0.79133  0.64478  1.0000
  H   H835      1.0  0.71448  0.75404  0.84858  1.0000
  H   H836      1.0  0.85047  0.89744  0.51787  1.0000
  C   C841      1.0  0.50333  0.83836  0.88452  1.0000
  C   C842      1.0  0.95265  0.80488  0.52469  1.0000
  H   H837      1.0  0.49851  0.79791  0.95435  1.0000
  H   H838      1.0  0.85949  0.94928  0.86836  1.0000
  C   C843      1.0  0.80272  0.92637  0.52445  1.0000
  C   C844      1.0  0.49989  0.85724  0.69570  1.0000
  H   H839      1.0  0.69703  0.81634  0.78825  1.0000
  H   H840      1.0  0.96922  0.78066  0.50551  1.0000
  H   H841      1.0  0.60600  0.82103  0.90278  1.0000
  H   H842      1.0  0.61868  0.86498  0.85368  1.0000
  H   H843      1.0  0.72306  0.83218  0.75686  1.0000
  H   H844      1.0  0.75794  0.82062  0.75413  1.0000
  H   H845      1.0  0.90324  0.86312  0.91886  1.0000
  H   H846      1.0  0.53231  0.85666  0.63461  1.0000
  C   C845      1.0  0.79775  0.94994  0.97605  1.0000
  C   C846      1.0  0.81013  0.82494  0.50858  1.0000
  C   C847      1.0  0.57071  0.84664  0.91421  1.0000
  C   C848      1.0  0.58515  0.89156  0.89619  1.0000
  H   H847      1.0  0.87267  0.92015  0.83953  1.0000
  H   H848      1.0  0.54037  0.83712  0.66416  1.0000
  C   C849      1.0  0.75729  0.78785  0.78247  1.0000
  H   H849      1.0  0.93750  0.78925  0.54000  1.0000
  C   C850      1.0  0.74508  0.76900  0.80912  1.0000
  H   H850      1.0  0.55420  0.87070  0.93406  1.0000
  C   C851      1.0  0.56879  0.86987  0.91682  1.0000
  H   H851      1.0  0.88185  0.76878  0.70280  1.0000
  C   C852      1.0  0.82449  0.93779  0.50212  1.0000
  C   C853      1.0  0.52798  0.98193  0.93907  1.0000
  C   C854      1.0  0.74790  0.80561  0.77422  1.0000
  C   C855      1.0  0.72369  0.76811  0.82711  1.0000
  C   C856      1.0  0.49784  0.81392  0.93990  1.0000
  H   H852      1.0  0.78082  0.89446  0.56075  1.0000
  H   H853      1.0  0.59053  0.81610  0.85781  1.0000
  H   H854      1.0  0.89751  0.81027  0.91239  1.0000
  H   H855      1.0  0.78190  0.93114  0.96631  1.0000
  N   N70       1.0  0.72690  0.80459  0.79197  1.0000
  H   H856      1.0  0.83117  0.77987  0.96728  1.0000
  H   H857      1.0  0.88611  0.94026  0.79988  1.0000
  C   C857      1.0  0.81545  0.89362  0.54193  1.0000
  H   H858      1.0  0.51467  0.99953  0.58161  1.0000
  C   C858      1.0  0.91460  0.84418  0.99196  1.0000
  H   H859      1.0  0.50823  0.84142  0.85608  1.0000
  C   C859      1.0  0.89020  0.84905  0.93914  1.0000
  H   H860      1.0  0.91660  0.76056  0.67881  1.0000
  H   H861      1.0  0.82699  0.96551  0.87143  1.0000
  S   S288      1.0  0.50175  0.79551  0.77197  1.0000
  H   H862      1.0  0.88446  0.85997  0.95879  1.0000
  H   H863      1.0  0.72916  0.84137  0.80472  1.0000
  N   N71       1.0  0.52644  0.96748  0.96931  1.0000
  N   N72       1.0  0.50658  0.81511  0.62918  1.0000
  C   C860      1.0  0.97425  0.85002  0.50448  1.0000
  C   C861      1.0  0.83722  0.90579  0.51971  1.0000
  H   H864      1.0  0.51926  0.97217  0.91313  1.0000
  C   C862      1.0  0.97069  0.80009  0.50515  1.0000
  C   C863      1.0  0.83821  0.83831  0.99951  1.0000
  C   C864      1.0  0.49583  0.85509  0.90287  1.0000
