data_image0
_chemical_formula_structural       CSHS2FeSFeS2HFeSFe2SCFeSFeS2HNHC2H3C2SHC2HSH2SC6H5CHC2H4NHCHC3HC3H3CH2CSHC2HC3HC3H2Fe2C3HCH2CNH2CSCHFeSCFeS2CHCFeSHFeS2HCHFeC6H4CH2SCH2CNHC4H2CH3CHNCHCHSCHC2HC2H5CNSHC2HCSHCSC3SH2CHCH2CH3C2HFeCHC2HSHCSFeSFeSHC3H3CH6CHC3HCH3C3S2C5HCH2CNC3H2SH3C3H2CSCHFeH2C2H2NC2HFeHSCSCSHFeS2FeHSH2CS2HCFe2SC4H2FeCH3SCH2CHCHCHFeCHCHCSCNCHCH2CSCH3CHSC2NC2HCHCHSCH2FeC3HSC2H3NH4FeSFeSFeS2FeCSFeCHS2H2SHC4HSH2SH3CN2C3H3C6H2CH2CFeCHC2HCHCH3SHC5HCHC2H2CS2FeS2FeS2FeSHSCNC2H3SC3HCH5C6H4CHCSHFeCHCH2CNH2CH2NC6HC2H4CH2CH2C3H2C2FeS2HC2SFeS2C2H2CHNHCH2C8H5CH2C2HCS2H4FeCHFeCH2CHCH4SNC2HC3H2C3H2CH2FeS2FeCSFeHSCS4CHCSH2FeHC7H6C2HC3H2NH2CH2C2NC2FeSHCHCHCH2C3HCNSHSFeS2FeSFeCSFeS2CFeS3FeCSCSHFeHSC3NSFeHC2H3CHC2N2HCHC2H2C2HCHC4H4CHCHC5H2C2SH2CHCSH5C2FeHC3HC2HFeHSFeCSCFeNS2CH7C2HSCNC2H3C4HSCHC2H2CHSHC2H2CH2C3NCH2FeC2SHCH3C2H3C2HCHCH2NHSH2SHFeC4HFeS2CHC2FeSCFeS2FeSHSHCHCNH2C2H2CSHCHC2H4C6H3NH2C2HC2H2CHC2SH2C2SCH2CHNCH2CH2CH2CHFeHNHCHCH8NHFeHSFeHCFeCSCS3FeS2FeCHCFeS2C4HC2HCHCHC2H3SHC8H4C2H2CNH3CNC4H5SC2FeHSHC3HCH3CNCHSC3HSHC3FeHSH3SCHCHS
_chemical_formula_sum              "C432 S144 H432 Fe72 N36"
_cell_length_a       38.8263
_cell_length_b       38.9459
_cell_length_c       36.4917
_cell_angle_alpha    89.1651
_cell_angle_beta     90.4161
_cell_angle_gamma    119.102

_space_group_name_H-M_alt    "P 1"
_space_group_IT_number       1

loop_
  _space_group_symop_operation_xyz
  'x, y, z'

loop_
  _atom_site_type_symbol
  _atom_site_label
  _atom_site_symmetry_multiplicity
  _atom_site_fract_x
  _atom_site_fract_y
  _atom_site_fract_z
  _atom_site_occupancy
  C   C1        1.0  0.41734  0.05719  0.21343  1.0000
  S   S1        1.0  0.44727  0.10766  0.00026  1.0000
  H   H1        1.0  0.35595  0.14926  0.21453  1.0000
  S   S2        1.0  0.46910  0.08880  0.08182  1.0000
  S   S3        1.0  0.33162  0.35429  0.22487  1.0000
  Fe  Fe1       1.0  0.43262  0.11476  0.05866  1.0000
  S   S4        1.0  0.44055  0.17266  0.08162  1.0000
  Fe  Fe2       1.0  0.47758  0.07544  0.02375  1.0000
  S   S5        1.0  0.41489  0.04889  0.28823  1.0000
  S   S6        1.0  0.40734  0.33880  0.28788  1.0000
  H   H2        1.0  0.42234  0.08654  0.21845  1.0000
  Fe  Fe3       1.0  0.34004  0.33891  0.16755  1.0000
  S   S7        1.0  0.28264  0.28278  0.16615  1.0000
  Fe  Fe4       1.0  0.06993  0.36362  0.41151  1.0000
  Fe  Fe5       1.0  0.36127  0.31974  0.24305  1.0000
  S   S8        1.0  0.30557  0.26185  0.24642  1.0000
  C   C2        1.0  0.41358  0.03235  0.24317  1.0000
  Fe  Fe6       1.0  0.31817  0.25505  0.18747  1.0000
  S   S9        1.0  0.31061  0.19717  0.16578  1.0000
  Fe  Fe7       1.0  0.27639  0.29597  0.22499  1.0000
  S   S10       1.0  0.21787  0.28790  0.24665  1.0000
  S   S11       1.0  0.37604  0.31073  0.18559  1.0000
  H   H3        1.0  0.45238  0.28772  0.24019  1.0000
  N   N1        1.0  0.20308  0.32001  0.38338  1.0000
  H   H4        1.0  0.15274  0.26428  0.37339  1.0000
  C   C3        1.0  0.32695  0.32811  0.06750  1.0000
  C   C4        1.0  0.32145  0.31616  0.03074  1.0000
  H   H5        1.0  0.41580  0.06299  0.15451  1.0000
  H   H6        1.0  0.31568  0.30634  0.08930  1.0000
  H   H7        1.0  0.30583  0.28515  0.02450  1.0000
  C   C5        1.0  0.36486  0.32133  0.40733  1.0000
  C   C6        1.0  0.37754  0.17937  0.22067  1.0000
  S   S12       1.0  0.37562  0.05771  0.06019  1.0000
  H   H8        1.0  0.13923  0.33614  0.31032  1.0000
  C   C7        1.0  0.35031  0.31538  0.34174  1.0000
  C   C8        1.0  0.33758  0.30980  0.37842  1.0000
  H   H9        1.0  0.47277  0.24533  0.20672  1.0000
  S   S13       1.0  0.53657  0.08289  0.00418  1.0000
  H   H10       1.0  0.32899  0.30643  0.31974  1.0000
  H   H11       1.0  0.30646  0.29631  0.38444  1.0000
  S   S14       1.0  0.08166  0.34638  0.35632  1.0000
  C   C9        1.0  0.40311  0.17934  0.10260  1.0000
  C   C10       1.0  0.41240  0.21689  0.11518  1.0000
  C   C11       1.0  0.38424  0.22304  0.13390  1.0000
  C   C12       1.0  0.34637  0.19164  0.14025  1.0000
  C   C13       1.0  0.33705  0.15417  0.12757  1.0000
  C   C14       1.0  0.36518  0.14803  0.10880  1.0000
  H   H12       1.0  0.44176  0.24122  0.11077  1.0000
  H   H13       1.0  0.39201  0.25189  0.14391  1.0000
  H   H14       1.0  0.30786  0.12968  0.13234  1.0000
  H   H15       1.0  0.35758  0.11900  0.09933  1.0000
  H   H16       1.0  0.40337  0.14447  0.17686  1.0000
  C   C15       1.0  0.44253  0.23314  0.21594  1.0000
  H   H17       1.0  0.37790  0.29128  0.08950  1.0000
  C   C16       1.0  0.21246  0.32318  0.27246  1.0000
  C   C17       1.0  0.17447  0.31504  0.28311  1.0000
  H   H18       1.0  0.23991  0.29397  0.38697  1.0000
  H   H19       1.0  0.21666  0.28947  0.34273  1.0000
  H   H20       1.0  0.14928  0.28740  0.27557  1.0000
  H   H21       1.0  0.15814  0.31655  0.17687  1.0000
  N   N2        1.0  0.41568  0.19480  0.20894  1.0000
  H   H22       1.0  0.24035  0.35974  0.13971  1.0000
  C   C18       1.0  0.42848  0.16974  0.19041  1.0000
  H   H23       1.0  0.41418  0.28266  0.06662  1.0000
  C   C19       1.0  0.39247  0.24169  0.24677  1.0000
  C   C20       1.0  0.16384  0.29300  0.38553  1.0000
  C   C21       1.0  0.43130  0.25719  0.23484  1.0000
  H   H24       1.0  0.25722  0.33542  0.35576  1.0000
  C   C22       1.0  0.36535  0.20260  0.23959  1.0000
  C   C23       1.0  0.39049  0.33222  0.33367  1.0000
  C   C24       1.0  0.42233  0.34596  0.01537  1.0000
  H   H25       1.0  0.10625  0.28093  0.40472  1.0000
  H   H26       1.0  0.44220  0.15832  0.21046  1.0000
  H   H27       1.0  0.38337  0.26006  0.26132  1.0000
  C   C25       1.0  0.15342  0.35968  0.20925  1.0000
  H   H28       1.0  0.37091  0.27713  0.04265  1.0000
  H   H29       1.0  0.26542  0.35811  0.18107  1.0000
  C   C26       1.0  0.33692  0.34401  0.00212  1.0000
  S   S15       1.0  0.34745  0.31340  0.45301  1.0000
  H   H30       1.0  0.33473  0.19064  0.24765  1.0000
  C   C27       1.0  0.23053  0.30914  0.36647  1.0000
  C   C28       1.0  0.39375  0.29485  0.06324  1.0000
  H   H31       1.0  0.40996  0.32327  0.99476  1.0000
  C   C29       1.0  0.41784  0.34382  0.36256  1.0000
  C   C30       1.0  0.15150  0.33899  0.41886  1.0000
  C   C31       1.0  0.40511  0.33856  0.39927  1.0000
  H   H32       1.0  0.45012  0.18634  0.16832  1.0000
  C   C32       1.0  0.21708  0.35626  0.39871  1.0000
  C   C33       1.0  0.16869  0.34260  0.30290  1.0000
  C   C34       1.0  0.13745  0.30212  0.40320  1.0000
  H   H33       1.0  0.13132  0.34640  0.43262  1.0000
  H   H34       1.0  0.12146  0.34339  0.21057  1.0000
  Fe  Fe8       1.0  0.39256  0.04873  0.00342  1.0000
  Fe  Fe9       1.0  0.41287  0.03158  0.08007  1.0000
  C   C35       1.0  0.23610  0.34911  0.16860  1.0000
  C   C36       1.0  0.17433  0.34472  0.19022  1.0000
  C   C37       1.0  0.24479  0.35897  0.28245  1.0000
  H   H35       1.0  0.42637  0.34751  0.42130  1.0000
  C   C38       1.0  0.41369  0.04390  0.17723  1.0000
  H   H36       1.0  0.21997  0.31641  0.16915  1.0000
  H   H37       1.0  0.44894  0.35672  0.35649  1.0000
  C   C39       1.0  0.54052  0.04547  0.98071  1.0000
  N   N3        1.0  0.41572  0.33630  0.05184  1.0000
  H   H38       1.0  0.51035  0.03512  0.34795  1.0000
  H   H39       1.0  0.42486  0.35757  0.10662  1.0000
  C   C40       1.0  0.53877  0.04386  0.36065  1.0000
  S   S16       1.0  0.33303  0.32768  0.95662  1.0000
  C   C41       1.0  0.20922  0.28202  0.88116  1.0000
  H   H40       1.0  0.33871  0.14003  0.77680  1.0000
  Fe  Fe10      1.0  0.08450  0.29634  0.72535  1.0000
  S   S17       1.0  0.13706  0.28987  0.74482  1.0000
  C   C42       1.0  0.24248  0.34975  0.79711  1.0000
  Fe  Fe11      1.0  0.33418  0.06171  0.68893  1.0000
  S   S18       1.0  0.39450  0.06768  0.69170  1.0000
  S   S19       1.0  0.32357  0.11204  0.67090  1.0000
  C   C43       1.0  0.37464  0.21416  0.50441  1.0000
  H   H41       1.0  0.15410  0.32363  0.65036  1.0000
  C   C44       1.0  0.36636  0.15044  0.76229  1.0000
  Fe  Fe12      1.0  0.39104  0.33495  0.50008  1.0000
  S   S20       1.0  0.44833  0.33417  0.49830  1.0000
  H   H42       1.0  0.33547  0.08566  0.47358  1.0000
  Fe  Fe13      1.0  0.43381  0.31059  0.55632  1.0000
  S   S21       1.0  0.44399  0.26005  0.57505  1.0000
  S   S22       1.0  0.37440  0.30702  0.55637  1.0000
  H   H43       1.0  0.17957  0.35050  0.87253  1.0000
  C   C45       1.0  0.39020  0.13361  0.77053  1.0000
  H   H44       1.0  0.43775  0.34298  0.72140  1.0000
  Fe  Fe14      1.0  0.05894  0.33729  0.66847  1.0000
  C   C46       1.0  0.35659  0.15191  0.64268  1.0000
  C   C47       1.0  0.34756  0.18187  0.63367  1.0000
  C   C48       1.0  0.37400  0.21517  0.61311  1.0000
  C   C49       1.0  0.40975  0.21876  0.60112  1.0000
  C   C50       1.0  0.41862  0.18860  0.60977  1.0000
  C   C51       1.0  0.39221  0.15534  0.63043  1.0000
  H   H45       1.0  0.32004  0.17948  0.64288  1.0000
  H   H46       1.0  0.36677  0.23813  0.60673  1.0000
  H   H47       1.0  0.44619  0.19107  0.60061  1.0000
  H   H48       1.0  0.39956  0.13252  0.63710  1.0000
  C   C52       1.0  0.19694  0.33708  0.88181  1.0000
  H   H49       1.0  0.45421  0.15677  0.51155  1.0000
  H   H50       1.0  0.27577  0.35570  0.93394  1.0000
  S   S23       1.0  0.31582  0.03372  0.74512  1.0000
  C   C53       1.0  0.40860  0.05097  0.90523  1.0000
  H   H51       1.0  0.52453  0.09218  0.87397  1.0000
  H   H52       1.0  0.45429  0.07116  0.86420  1.0000
  C   C54       1.0  0.36809  0.03410  0.91170  1.0000
  N   N4        1.0  0.38216  0.18106  0.49942  1.0000
  H   H53       1.0  0.44373  0.13282  0.75719  1.0000
  C   C55       1.0  0.21040  0.34068  0.67603  1.0000
  C   C56       1.0  0.17740  0.32670  0.76936  1.0000
  C   C57       1.0  0.20946  0.32084  0.77833  1.0000
  C   C58       1.0  0.07403  0.36404  0.57674  1.0000
  H   H54       1.0  0.44171  0.21278  0.51806  1.0000
  H   H55       1.0  0.20877  0.29379  0.77060  1.0000
  C   C59       1.0  0.39573  0.11766  0.49170  1.0000
  H   H56       1.0  0.42880  0.05866  0.92808  1.0000
  H   H57       1.0  0.40105  0.09296  0.48841  1.0000
  H   H58       1.0  0.26690  0.34481  0.80375  1.0000
  C   C60       1.0  0.43612  0.17510  0.72414  1.0000
  H   H59       1.0  0.21022  0.31376  0.66849  1.0000
  N   N5        1.0  0.37749  0.17932  0.73601  1.0000
  C   C61       1.0  0.41180  0.19161  0.71687  1.0000
  H   H60       1.0  0.46291  0.18440  0.70847  1.0000
  C   C62       1.0  0.35885  0.11363  0.48331  1.0000
  H   H61       1.0  0.53229  0.06190  0.56277  1.0000
  S   S24       1.0  0.06254  0.28165  0.66720  1.0000
  C   C63       1.0  0.35241  0.14575  0.48767  1.0000
  H   H62       1.0  0.33003  0.03568  0.53007  1.0000
  C   C64       1.0  0.41827  0.18505  0.50816  1.0000
  C   C65       1.0  0.27453  0.36268  0.70544  1.0000
  H   H63       1.0  0.04477  0.30848  0.82199  1.0000
  C   C66       1.0  0.42531  0.14612  0.75134  1.0000
  C   C67       1.0  0.35194  0.19654  0.72827  1.0000
  H   H64       1.0  0.42016  0.21374  0.69532  1.0000
  H   H65       1.0  0.32303  0.17350  0.71772  1.0000
  H   H66       1.0  0.34722  0.20924  0.75357  1.0000
  H   H67       1.0  0.36481  0.22036  0.70716  1.0000
  H   H68       1.0  0.25904  0.28926  0.91360  1.0000
  C   C68       1.0  0.24130  0.30239  0.90447  1.0000
  N   N6        1.0  0.22909  0.35725  0.90388  1.0000
  S   S25       1.0  0.05089  0.31965  0.45850  1.0000
  H   H69       1.0  0.40230  0.24277  0.50202  1.0000
  C   C69       1.0  0.17857  0.36171  0.77963  1.0000
  C   C70       1.0  0.06019  0.33741  0.50377  1.0000
  H   H70       1.0  0.05797  0.29863  0.88688  1.0000
  C   C71       1.0  0.42299  0.05784  0.86906  1.0000
  S   S26       1.0  0.33310  0.35590  0.85382  1.0000
  H   H71       1.0  0.26424  0.33189  0.71469  1.0000
  C   C72       1.0  0.39706  0.04754  0.83915  1.0000
  S   S27       1.0  0.08497  0.35411  0.72501  1.0000
  C   C73       1.0  0.42559  0.15347  0.50446  1.0000
  C   C74       1.0  0.04656  0.31052  0.53325  1.0000
  C   C75       1.0  0.25076  0.34013  0.91579  1.0000
  S   S28       1.0  0.41644  0.05685  0.79419  1.0000
  H   H72       1.0  0.32353  0.14229  0.48151  1.0000
  H   H73       1.0  0.38135  0.11063  0.79134  1.0000
  C   C76       1.0  0.53999  0.04705  0.47735  1.0000
  H   H74       1.0  0.35399  0.21447  0.48331  1.0000
  C   C77       1.0  0.05320  0.32376  0.56963  1.0000
  H   H75       1.0  0.20188  0.25294  0.87179  1.0000
  H   H76       1.0  0.16185  0.28395  0.85148  1.0000
  C   C78       1.0  0.18668  0.29931  0.86990  1.0000
  H   H77       1.0  0.42425  0.35194  0.65633  1.0000
  H   H78       1.0  0.50244  0.05163  0.90626  1.0000
  H   H79       1.0  0.36210  0.21237  0.53209  1.0000
  C   C79       1.0  0.53081  0.07444  0.89426  1.0000
  C   C80       1.0  0.17861  0.34612  0.66558  1.0000
  H   H80       1.0  0.53863  0.07212  0.48808  1.0000
  Fe  Fe15      1.0  0.37455  0.03569  0.74591  1.0000
  C   C81       1.0  0.42217  0.35896  0.71480  1.0000
  H   H81       1.0  0.04234  0.30281  0.59213  1.0000
  C   C82       1.0  0.41465  0.36411  0.67788  1.0000
  C   C83       1.0  0.09549  0.48406  0.07406  1.0000
  H   H82       1.0  0.08641  0.39563  0.25780  1.0000
  S   S29       1.0  0.10472  0.43656  0.32926  1.0000
  H   H83       1.0  0.09324  0.57265  0.42927  1.0000
  C   C84       1.0  0.11391  0.51730  0.05139  1.0000
  S   S30       1.0  0.12612  0.42116  0.41248  1.0000
  Fe  Fe16      1.0  0.08948  0.44556  0.38668  1.0000
  S   S31       1.0  0.09448  0.50410  0.40339  1.0000
  Fe  Fe17      1.0  0.13533  0.40583  0.35527  1.0000
  S   S32       1.0  0.19501  0.41487  0.33608  1.0000
  H   H84       1.0  0.51287  0.53981  0.34057  1.0000
  C   C85       1.0  0.06089  0.50937  0.43234  1.0000
  C   C86       1.0  0.51140  0.51408  0.35401  1.0000
  C   C87       1.0  0.07290  0.67304  0.04440  1.0000
  H   H85       1.0  0.11000  0.69380  0.35485  1.0000
  H   H86       1.0  0.36908  0.40577  0.98868  1.0000
  H   H87       1.0  0.37832  0.42695  0.05347  1.0000
  C   C88       1.0  0.36213  0.39597  0.04720  1.0000
  H   H88       1.0  0.05919  0.46678  0.97771  1.0000
  H   H89       1.0  0.05285  0.57280  0.02803  1.0000
  H   H90       1.0  0.26417  0.41426  0.30970  1.0000
  H   H91       1.0  0.07327  0.64582  0.04948  1.0000
  H   H92       1.0  0.44774  0.48346  0.35650  1.0000
  H   H93       1.0  0.10979  0.56557  0.02667  1.0000
  C   C89       1.0  0.04874  0.53994  0.29538  1.0000
  H   H94       1.0  0.47481  0.44555  0.02176  1.0000
  C   C90       1.0  0.45216  0.40470  0.06732  1.0000
  C   C91       1.0  0.44377  0.38531  0.00401  1.0000
  C   C92       1.0  0.20093  0.37865  0.31238  1.0000
  H   H95       1.0  0.15835  0.40688  0.24301  1.0000
  C   C93       1.0  0.07137  0.69481  0.07408  1.0000
  H   H96       1.0  0.27422  0.36552  0.27473  1.0000
  H   H97       1.0  0.20247  0.39553  0.42761  1.0000
  H   H98       1.0  0.14226  0.52544  0.03911  1.0000
  C   C94       1.0  0.08023  0.39377  0.19886  1.0000
  C   C95       1.0  0.34779  0.36808  0.07587  1.0000
  C   C96       1.0  0.17406  0.39552  0.22711  1.0000
  S   S33       1.0  0.07288  0.39139  0.12407  1.0000
  S   S34       1.0  0.35886  0.38405  0.12164  1.0000
  C   C97       1.0  0.47450  0.48241  0.36311  1.0000
  C   C98       1.0  0.23901  0.38651  0.30238  1.0000
  C   C99       1.0  0.50787  0.52511  0.45062  1.0000
  C   C100      1.0  0.07392  0.68628  0.00812  1.0000
  C   C101      1.0  0.50703  0.44878  0.38982  1.0000
  H   H99       1.0  0.23133  0.44379  0.23964  1.0000
  C   C102      1.0  0.45873  0.41484  0.03021  1.0000
  H   H100      1.0  0.06952  0.54556  0.27336  1.0000
  H   H101      1.0  0.44784  0.39285  0.97506  1.0000
  C   C103      1.0  0.06747  0.54731  0.44034  1.0000
  N   N7        1.0  0.05911  0.52909  0.05916  1.0000
  C   C104      1.0  0.09535  0.53985  0.04446  1.0000
  C   C105      1.0  0.47238  0.44961  0.38117  1.0000
  C   C106      1.0  0.19149  0.36637  0.41646  1.0000
  H   H102      1.0  0.48215  0.52791  0.44382  1.0000
  H   H103      1.0  0.26702  0.41664  0.20477  1.0000
  S   S35       1.0  0.06815  0.67609  0.11917  1.0000
  H   H104      1.0  0.04456  0.57217  0.07671  1.0000
  H   H105      1.0  0.46273  0.42743  0.08791  1.0000
  H   H106      1.0  0.10936  0.46612  0.07971  1.0000
  C   C107      1.0  0.05409  0.37994  0.16912  1.0000
  C   C108      1.0  0.21510  0.41628  0.22520  1.0000
  C   C109      1.0  0.05879  0.47362  0.08924  1.0000
  H   H107      1.0  0.50570  0.42372  0.40453  1.0000
  H   H108      1.0  0.44397  0.42502  0.38872  1.0000
  C   C110      1.0  0.23506  0.40059  0.20573  1.0000
  S   S36       1.0  0.04446  0.39658  0.02219  1.0000
  C   C111      1.0  0.06605  0.38506  0.23507  1.0000
  H   H109      1.0  0.11150  0.41145  0.19381  1.0000
  Fe  Fe18      1.0  0.05041  0.37755  0.33334  1.0000
  H   H110      1.0  0.04429  0.44775  0.10683  1.0000
  H   H111      1.0  0.24807  0.37788  0.39671  1.0000
  C   C112      1.0  0.35684  0.38401  0.01044  1.0000
  C   C113      1.0  0.05372  0.49040  0.96927  1.0000
  H   H112      1.0  0.05902  0.49580  0.32199  1.0000
  H   H113      1.0  0.07501  0.66924  0.98544  1.0000
  N   N8        1.0  0.21466  0.36493  0.18908  1.0000
  C   C114      1.0  0.04276  0.51196  0.32249  1.0000
  C   C115      1.0  0.43066  0.36505  0.07773  1.0000
  H   H114      1.0  0.48976  0.46033  0.56639  1.0000
  Fe  Fe19      1.0  0.10616  0.64467  0.88939  1.0000
  H   H115      1.0  0.26468  0.42408  0.72231  1.0000
  S   S37       1.0  0.11178  0.59199  0.91004  1.0000
  C   C116      1.0  0.24077  0.40219  0.70605  1.0000
  S   S38       1.0  0.38509  0.39239  0.62298  1.0000
  C   C117      1.0  0.48977  0.48885  0.56757  1.0000
  S   S39       1.0  0.12017  0.66647  0.83076  1.0000
  H   H116      1.0  0.23026  0.41218  0.89562  1.0000
  Fe  Fe20      1.0  0.41888  0.45540  0.88836  1.0000
  S   S40       1.0  0.42143  0.39917  0.89103  1.0000
  S   S41       1.0  0.47016  0.51363  0.90692  1.0000
  Fe  Fe21      1.0  0.33567  0.41457  0.85279  1.0000
  H   H117      1.0  0.09166  0.39867  0.48841  1.0000
  S   S42       1.0  0.28416  0.42177  0.83157  1.0000
  H   H118      1.0  0.48132  0.49247  0.59568  1.0000
  H   H119      1.0  0.20896  0.43489  0.70461  1.0000
  C   C118      1.0  0.38952  0.39495  0.73429  1.0000
  S   S43       1.0  0.35722  0.42915  0.91109  1.0000
  S   S44       1.0  0.39725  0.44738  0.82986  1.0000
  H   H120      1.0  0.53519  0.58171  0.93821  1.0000
  C   C119      1.0  0.08240  0.52253  0.94895  1.0000
  Fe  Fe22      1.0  0.47397  0.39458  0.52244  1.0000
  Fe  Fe23      1.0  0.35875  0.37242  0.91049  1.0000
  S   S45       1.0  0.41730  0.39653  0.52113  1.0000
  C   C120      1.0  0.06334  0.56543  0.56027  1.0000
  C   C121      1.0  0.20936  0.40852  0.69612  1.0000
  C   C122      1.0  0.08814  0.39091  0.54727  1.0000
  C   C123      1.0  0.21162  0.39066  0.79834  1.0000
  H   H121      1.0  0.49057  0.45698  0.94041  1.0000
  H   H122      1.0  0.50543  0.52667  0.80890  1.0000
  Fe  Fe24      1.0  0.40701  0.36882  0.57750  1.0000
  C   C124      1.0  0.49751  0.46848  0.81637  1.0000
  H   H123      1.0  0.11517  0.68540  0.68945  1.0000
  H   H124      1.0  0.05091  0.56510  0.85278  1.0000
  H   H125      1.0  0.10755  0.54445  0.52065  1.0000
  S   S46       1.0  0.53218  0.44591  0.50293  1.0000
  C   C125      1.0  0.17817  0.38030  0.67566  1.0000
  H   H126      1.0  0.15351  0.38471  0.66782  1.0000
  H   H127      1.0  0.10466  0.42206  0.55265  1.0000
  C   C126      1.0  0.39483  0.38501  0.66902  1.0000
  H   H128      1.0  0.37972  0.40692  0.75583  1.0000
  C   C127      1.0  0.50922  0.44495  0.83606  1.0000
  H   H129      1.0  0.21222  0.41766  0.80612  1.0000
  C   C128      1.0  0.07491  0.47640  0.86327  1.0000
  H   H130      1.0  0.04640  0.58213  0.46833  1.0000
  Fe  Fe25      1.0  0.06529  0.67175  0.83411  1.0000
  C   C129      1.0  0.07582  0.55349  0.93753  1.0000
  H   H131      1.0  0.15405  0.36656  0.77310  1.0000
  C   C130      1.0  0.53782  0.55642  0.94696  1.0000
  H   H132      1.0  0.08914  0.53279  0.84010  1.0000
  C   C131      1.0  0.08094  0.37770  0.51089  1.0000
  S   S47       1.0  0.08261  0.38178  0.62198  1.0000
  C   C132      1.0  0.53174  0.55458  0.54108  1.0000
  N   N9        1.0  0.05530  0.52536  0.55247  1.0000
  C   C133      1.0  0.53873  0.46186  0.86253  1.0000
  H   H133      1.0  0.49498  0.41357  0.83101  1.0000
  C   C134      1.0  0.08152  0.51961  0.53214  1.0000
  H   H134      1.0  0.47411  0.46832  0.47706  1.0000
  H   H135      1.0  0.36748  0.41705  0.69071  1.0000
  C   C135      1.0  0.24372  0.38485  0.80722  1.0000
  S   S48       1.0  0.07106  0.67102  0.62266  1.0000
  C   C136      1.0  0.50877  0.51859  0.93663  1.0000
  H   H136      1.0  0.10971  0.52321  0.94170  1.0000
  H   H137      1.0  0.47431  0.45539  0.79596  1.0000
  H   H138      1.0  0.07876  0.58567  0.53692  1.0000
  C   C137      1.0  0.07333  0.66836  0.73380  1.0000
  H   H139      1.0  0.46686  0.48679  0.54792  1.0000
  S   S49       1.0  0.42011  0.36778  0.78917  1.0000
  C   C138      1.0  0.38240  0.40047  0.69736  1.0000
  C   C139      1.0  0.40964  0.37431  0.74313  1.0000
  N   N10       1.0  0.52870  0.52162  0.55804  1.0000
  C   C140      1.0  0.06686  0.50686  0.85432  1.0000
  C   C141      1.0  0.08433  0.67240  0.69667  1.0000
  H   H140      1.0  0.09491  0.47705  0.50801  1.0000
  C   C142      1.0  0.23933  0.39674  0.91621  1.0000
  H   H141      1.0  0.10284  0.47851  0.85571  1.0000
  C   C143      1.0  0.50322  0.49127  0.46947  1.0000
  H   H142      1.0  0.09568  0.67829  0.75490  1.0000
  S   S50       1.0  0.46584  0.37119  0.58049  1.0000
  C   C144      1.0  0.07462  0.48156  0.52496  1.0000
  H   H143      1.0  0.50550  0.55620  0.53356  1.0000
  H   H144      1.0  0.08168  0.57639  0.58536  1.0000
  Fe  Fe26      1.0  0.39569  0.38920  0.83410  1.0000
  C   C145      1.0  0.05579  0.66089  0.66889  1.0000
  C   C146      1.0  0.53622  0.48726  0.47827  1.0000
  C   C147      1.0  0.51247  0.48617  0.94840  1.0000
  H   H145      1.0  0.05279  0.41965  0.88965  1.0000
  S   S51       1.0  0.04909  0.64599  0.89119  1.0000
  C   C148      1.0  0.04683  0.44339  0.88234  1.0000
  C   C149      1.0  0.51539  0.50872  0.82362  1.0000
  H   H146      1.0  0.22480  0.39489  0.94281  1.0000
  H   H147      1.0  0.29229  0.38194  0.72827  1.0000
  H   H148      1.0  0.27179  0.41523  0.91923  1.0000
  N   N11       1.0  0.24089  0.36850  0.69607  1.0000
  H   H149      1.0  0.29395  0.36913  0.68114  1.0000
  H   H150      1.0  0.53990  0.57548  0.86305  1.0000
  H   H151      1.0  0.17175  0.78262  0.26133  1.0000
  H   H152      1.0  0.10729  0.70725  0.30846  1.0000
  Fe  Fe27      1.0  0.08732  0.77395  0.22162  1.0000
  S   S52       1.0  0.13680  0.83264  0.24215  1.0000
  Fe  Fe28      1.0  0.05774  0.70563  0.16779  1.0000
  S   S53       1.0  0.39822  0.98690  0.12584  1.0000
  Fe  Fe29      1.0  0.33751  0.92171  0.35873  1.0000
  S   S54       1.0  0.33486  0.97795  0.35764  1.0000
  S   S55       1.0  0.28881  0.86364  0.33609  1.0000
  Fe  Fe30      1.0  0.42233  0.96284  0.39106  1.0000
  C   C150      1.0  0.07153  0.73033  0.06718  1.0000
  S   S56       1.0  0.47472  0.95551  0.40942  1.0000
  Fe  Fe31      1.0  0.36382  0.98872  0.41322  1.0000
  C   C151      1.0  0.51108  0.98823  0.44013  1.0000
  H   H153      1.0  0.11156  0.73500  0.40472  1.0000
  S   S57       1.0  0.36185  0.93016  0.41644  1.0000
  S   S58       1.0  0.39812  0.94837  0.33357  1.0000
  H   H154      1.0  0.09447  0.78473  0.42599  1.0000
  H   H155      1.0  0.30135  0.91752  0.16688  1.0000
  S   S59       1.0  0.09063  0.71807  0.22146  1.0000
  H   H156      1.0  0.43950  0.95593  0.07487  1.0000
  C   C152      1.0  0.50739  0.00980  0.97192  1.0000
  C   C153      1.0  0.40723  0.99443  0.23644  1.0000
  C   C154      1.0  0.40358  0.98111  0.20029  1.0000
  C   C155      1.0  0.09797  0.78180  0.39691  1.0000
  H   H157      1.0  0.26946  0.86009  0.22917  1.0000
  S   S60       1.0  0.05913  0.76387  0.16557  1.0000
  H   H158      1.0  0.40458  0.97514  0.25902  1.0000
  H   H159      1.0  0.39808  0.95156  0.19533  1.0000
  S   S61       1.0  0.42532  0.02177  0.39074  1.0000
  H   H160      1.0  0.07147  0.74796  0.08970  1.0000
  H   H161      1.0  0.31376  0.87827  0.25626  1.0000
  H   H162      1.0  0.10609  0.76719  0.29377  1.0000
  C   C156      1.0  0.09501  0.80012  0.33401  1.0000
  N   N12       1.0  0.30688  0.92157  0.22512  1.0000
  N   N13       1.0  0.10985  0.74824  0.34799  1.0000
  C   C157      1.0  0.30520  0.93528  0.19078  1.0000
  C   C158      1.0  0.31649  0.98189  0.25125  1.0000
  C   C159      1.0  0.10734  0.75345  0.38468  1.0000
  H   H163      1.0  0.23053  0.79560  0.29878  1.0000
  H   H164      1.0  0.15341  0.73327  0.33303  1.0000
  H   H165      1.0  0.09059  0.81828  0.31368  1.0000
  C   C160      1.0  0.17849  0.84030  0.26876  1.0000
  C   C161      1.0  0.20173  0.87706  0.28507  1.0000
  C   C162      1.0  0.23500  0.88445  0.30644  1.0000
  C   C163      1.0  0.24581  0.85526  0.31133  1.0000
  C   C164      1.0  0.22239  0.81836  0.29525  1.0000
  C   C165      1.0  0.18899  0.81090  0.27403  1.0000
  H   H166      1.0  0.19381  0.89996  0.28129  1.0000
  H   H167      1.0  0.25223  0.91276  0.31911  1.0000
  C   C166      1.0  0.07305  0.72129  0.00127  1.0000
  H   H168      1.0  0.48524  0.02130  0.10002  1.0000
  H   H169      1.0  0.30994  0.98425  0.15839  1.0000
  C   C167      1.0  0.09183  0.80529  0.37133  1.0000
  Fe  Fe32      1.0  0.39648  0.00500  0.33530  1.0000
  C   C168      1.0  0.31541  0.99633  0.21629  1.0000
  H   H170      1.0  0.07168  0.77059  0.02580  1.0000
  C   C169      1.0  0.10398  0.77121  0.32280  1.0000
  C   C170      1.0  0.31225  0.94425  0.25517  1.0000
  H   H171      1.0  0.31413  0.93361  0.28233  1.0000
  C   C171      1.0  0.47099  0.96885  0.07007  1.0000
  H   H172      1.0  0.08429  0.82720  0.38038  1.0000
  C   C172      1.0  0.40635  0.00562  0.17062  1.0000
  H   H173      1.0  0.20275  0.81624  0.96037  1.0000
  H   H174      1.0  0.47834  0.00459  0.97925  1.0000
  H   H175      1.0  0.31997  0.02594  0.21277  1.0000
  S   S62       1.0  0.42359  0.01635  0.02372  1.0000
  H   H176      1.0  0.31674  0.87513  0.20760  1.0000
  C   C173      1.0  0.07188  0.74325  0.03092  1.0000
  C   C174      1.0  0.30144  0.88179  0.22970  1.0000
  C   C175      1.0  0.49672  0.00570  0.08419  1.0000
  C   C176      1.0  0.30972  0.97294  0.18581  1.0000
  C   C177      1.0  0.53718  0.02241  0.07747  1.0000
  H   H177      1.0  0.46612  0.92064  0.03798  1.0000
  C   C178      1.0  0.48593  0.94906  0.04955  1.0000
  H   H178      1.0  0.32203  0.00025  0.27506  1.0000
  C   C179      1.0  0.12084  0.71926  0.33554  1.0000
  C   C180      1.0  0.52662  0.96643  0.04368  1.0000
  H   H179      1.0  0.48465  0.02494  0.44825  1.0000
  H   H180      1.0  0.53796  0.95099  0.02743  1.0000
  C   C181      1.0  0.50934  0.02035  0.45476  1.0000
  S   S63       1.0  0.34878  0.02407  0.95666  1.0000
  S   S64       1.0  0.07288  0.73813  0.95611  1.0000
  Fe  Fe33      1.0  0.15037  0.72788  0.85342  1.0000
  S   S65       1.0  0.09615  0.73426  0.85329  1.0000
  S   S66       1.0  0.20956  0.77903  0.83564  1.0000
  Fe  Fe34      1.0  0.29444  0.97542  0.71742  1.0000
  S   S67       1.0  0.35234  0.97593  0.72147  1.0000
  S   S68       1.0  0.23529  0.92040  0.72801  1.0000
  Fe  Fe35      1.0  0.36603  0.00766  0.66697  1.0000
  S   S69       1.0  0.39360  0.99071  0.62104  1.0000
  H   H181      1.0  0.11112  0.76514  0.65542  1.0000
  S   S70       1.0  0.30651  0.00320  0.66099  1.0000
  C   C182      1.0  0.09988  0.76413  0.71334  1.0000
  N   N14       1.0  0.21651  0.85176  0.91157  1.0000
  C   C183      1.0  0.25657  0.92256  0.87313  1.0000
  C   C184      1.0  0.19649  0.81351  0.93048  1.0000
  H   H182      1.0  0.25230  0.93737  0.53557  1.0000
  H   H183      1.0  0.28699  0.90155  0.68286  1.0000
  H   H184      1.0  0.33252  0.91427  0.66032  1.0000
  S   S71       1.0  0.14256  0.70557  0.91182  1.0000
  C   C185      1.0  0.38253  0.99979  0.57618  1.0000
  C   C186      1.0  0.39515  0.98673  0.54610  1.0000
  C   C187      1.0  0.38428  0.99124  0.51022  1.0000
  H   H185      1.0  0.21666  0.92938  0.59442  1.0000
  C   C188      1.0  0.20214  0.85657  0.87871  1.0000
  H   H186      1.0  0.21063  0.89558  0.83279  1.0000
  H   H187      1.0  0.41280  0.97247  0.55057  1.0000
  H   H188      1.0  0.39393  0.98088  0.48719  1.0000
  H   H189      1.0  0.31100  0.01221  0.88677  1.0000
  H   H190      1.0  0.30907  0.92483  0.53418  1.0000
  C   C189      1.0  0.22887  0.88089  0.75731  1.0000
  C   C190      1.0  0.19061  0.84959  0.76361  1.0000
  C   C191      1.0  0.18422  0.81793  0.78710  1.0000
  C   C192      1.0  0.21614  0.81714  0.80436  1.0000
  C   C193      1.0  0.25439  0.84833  0.79788  1.0000
  C   C194      1.0  0.26076  0.88009  0.77458  1.0000
  H   H191      1.0  0.16575  0.85011  0.75057  1.0000
  H   H192      1.0  0.15467  0.79428  0.79208  1.0000
  H   H193      1.0  0.27925  0.84812  0.81128  1.0000
  H   H194      1.0  0.29034  0.90399  0.77019  1.0000
  C   C195      1.0  0.34838  0.02217  0.53437  1.0000
  H   H195      1.0  0.29804  0.94129  0.91798  1.0000
  C   C196      1.0  0.08906  0.75852  0.67645  1.0000
  S   S72       1.0  0.34488  0.01341  0.45999  1.0000
  H   H196      1.0  0.29154  0.86470  0.65735  1.0000
  Fe  Fe36      1.0  0.08622  0.70809  0.91020  1.0000
  C   C197      1.0  0.29991  0.89629  0.65786  1.0000
  H   H197      1.0  0.26243  0.87769  0.95139  1.0000
  C   C198      1.0  0.22179  0.89207  0.85912  1.0000
  H   H198      1.0  0.07919  0.75623  0.76882  1.0000
  H   H199      1.0  0.27245  0.94986  0.85772  1.0000
  C   C199      1.0  0.36043  0.00856  0.50434  1.0000
  N   N15       1.0  0.53456  0.00940  0.57351  1.0000
  H   H200      1.0  0.16390  0.79969  0.92735  1.0000
  H   H201      1.0  0.23863  0.90964  0.65072  1.0000
  C   C200      1.0  0.25062  0.88159  0.92560  1.0000
  H   H202      1.0  0.13052  0.77560  0.72116  1.0000
  H   H203      1.0  0.17582  0.83248  0.86706  1.0000
  N   N16       1.0  0.28631  0.90720  0.62434  1.0000
  C   C201      1.0  0.30555  0.91084  0.59205  1.0000
  C   C202      1.0  0.25410  0.91272  0.62517  1.0000
  C   C203      1.0  0.29319  0.92112  0.55959  1.0000
  C   C204      1.0  0.24140  0.92376  0.59335  1.0000
  C   C205      1.0  0.26126  0.92814  0.56040  1.0000
  C   C206      1.0  0.35959  0.01805  0.57013  1.0000
  H   H204      1.0  0.33139  0.90694  0.59147  1.0000
  C   C207      1.0  0.53204  0.01938  0.86345  1.0000
  C   C208      1.0  0.27103  0.91754  0.90674  1.0000
  H   H205      1.0  0.33630  0.02286  0.82284  1.0000
  H   H206      1.0  0.50047  0.00181  0.86757  1.0000
  H   H207      1.0  0.50369  0.96727  0.53193  1.0000
  H   H208      1.0  0.53610  0.97266  0.83599  1.0000
  C   C209      1.0  0.07067  0.75305  0.74017  1.0000
  H   H209      1.0  0.48595  0.95315  0.94682  1.0000
  H   H210      1.0  0.20634  0.79356  0.91864  1.0000
  C   C210      1.0  0.51179  0.98067  0.95345  1.0000
  H   H211      1.0  0.49420  0.02694  0.59335  1.0000
  H   H212      1.0  0.35018  0.02874  0.59300  1.0000
  C   C211      1.0  0.52637  0.97721  0.55290  1.0000
  C   C212      1.0  0.35654  0.03070  0.84562  1.0000
  C   C213      1.0  0.34220  0.02432  0.88180  1.0000
  H   H213      1.0  0.49126  0.01873  0.54481  1.0000
  H   H214      1.0  0.54188  0.93227  0.54092  1.0000
  C   C214      1.0  0.04943  0.74245  0.66678  1.0000
  C   C215      1.0  0.51190  0.03021  0.56840  1.0000
  Fe  Fe37      1.0  0.94370  0.31218  0.05755  1.0000
  S   S73       1.0  0.99884  0.30720  0.05761  1.0000
  S   S74       1.0  0.88481  0.26205  0.07760  1.0000
  H   H215      1.0  0.69772  0.08397  0.36788  1.0000
  C   C216      1.0  0.92263  0.20708  0.02513  1.0000
  C   C217      1.0  0.84613  0.15336  0.26524  1.0000
  S   S75       1.0  0.95176  0.33579  0.99946  1.0000
  Fe  Fe38      1.0  0.80585  0.06736  0.19741  1.0000
  S   S76       1.0  0.74963  0.07030  0.19629  1.0000
  S   S77       1.0  0.86475  0.11881  0.17930  1.0000
  C   C218      1.0  0.88419  0.18171  0.25469  1.0000
  C   C219      1.0  0.85820  0.21378  0.21687  1.0000
  H   H216      1.0  0.94329  0.26269  0.24372  1.0000
  H   H217      1.0  0.78709  0.15012  0.02241  1.0000
  C   C220      1.0  0.93007  0.24132  0.22104  1.0000
  H   H218      1.0  0.63768  0.07155  0.40851  1.0000
  N   N17       1.0  0.88981  0.21131  0.23068  1.0000
  H   H219      1.0  0.84172  0.12960  0.28387  1.0000
  C   C221      1.0  0.81265  0.14811  0.03170  1.0000
  H   H220      1.0  0.92334  0.23588  0.02194  1.0000
  H   H221      1.0  0.54234  0.09496  0.38622  1.0000
  C   C222      1.0  0.80787  0.11599  0.05290  1.0000
  C   C223      1.0  0.61007  0.06379  0.39464  1.0000
  C   C224      1.0  0.87999  0.22351  0.10734  1.0000
  C   C225      1.0  0.84210  0.19398  0.11762  1.0000
  C   C226      1.0  0.83689  0.16171  0.13956  1.0000
  C   C227      1.0  0.86963  0.15871  0.15157  1.0000
  C   C228      1.0  0.90754  0.18843  0.14161  1.0000
  C   C229      1.0  0.91275  0.22075  0.11974  1.0000
  H   H222      1.0  0.81656  0.19580  0.10811  1.0000
  H   H223      1.0  0.80754  0.13907  0.14696  1.0000
  H   H224      1.0  0.93307  0.18639  0.15078  1.0000
  H   H225      1.0  0.94211  0.24331  0.11222  1.0000
  H   H226      1.0  0.90921  0.17957  0.26542  1.0000
  C   C230      1.0  0.72602  0.05390  0.34398  1.0000
  H   H227      1.0  0.78404  0.13345  0.25896  1.0000
  H   H228      1.0  0.60788  0.05235  0.04693  1.0000
  C   C231      1.0  0.84100  0.11394  0.06498  1.0000
  C   C232      1.0  0.85068  0.17797  0.02302  1.0000
  H   H229      1.0  0.96800  0.33259  0.21688  1.0000
  C   C233      1.0  0.81971  0.18577  0.22668  1.0000
  S   S78       1.0  0.00665  0.35175  0.28680  1.0000
  S   S79       1.0  0.71638  0.06332  0.29865  1.0000
  H   H230      1.0  0.94874  0.22750  0.21582  1.0000
  H   H231      1.0  0.86257  0.23702  0.19756  1.0000
  H   H232      1.0  0.60638  0.11296  0.41690  1.0000
  H   H233      1.0  0.70908  0.07002  0.43224  1.0000
  Fe  Fe39      1.0  0.00915  0.33510  0.00134  1.0000
  C   C234      1.0  0.87861  0.14423  0.05564  1.0000
  H   H234      1.0  0.79468  0.18730  0.21509  1.0000
  Fe  Fe40      1.0  0.73874  0.04156  0.25219  1.0000
  C   C235      1.0  0.81373  0.15546  0.25112  1.0000
  H   H235      1.0  0.83759  0.08941  0.08206  1.0000
  H   H236      1.0  0.94447  0.21099  0.04679  1.0000
  C   C236      1.0  0.71946  0.05968  0.40980  1.0000
  H   H237      1.0  0.77854  0.09293  0.06024  1.0000
  C   C237      1.0  0.71288  0.06738  0.37337  1.0000
  H   H238      1.0  0.90421  0.14264  0.06554  1.0000
  H   H239      1.0  0.93193  0.20000  0.99888  1.0000
  H   H240      1.0  0.93073  0.25770  0.19558  1.0000
  H   H241      1.0  0.85421  0.20330  0.00720  1.0000
  S   S80       1.0  0.79695  0.04262  0.25506  1.0000
  N   N18       1.0  0.88304  0.17591  0.03522  1.0000
  C   C238      1.0  0.59261  0.08751  0.39932  1.0000
  C   C239      1.0  0.55670  0.07738  0.38220  1.0000
  H   H242      1.0  0.99318  0.34665  0.15303  1.0000
  C   C240      1.0  0.99937  0.34926  0.21194  1.0000
  C   C241      1.0  0.73989  0.03902  0.41704  1.0000
  C   C242      1.0  0.74623  0.03303  0.35123  1.0000
  H   H243      1.0  0.55688  0.05143  0.08795  1.0000
  H   H244      1.0  0.60380  0.07948  0.97679  1.0000
  C   C243      1.0  0.01359  0.35751  0.17575  1.0000
  C   C244      1.0  0.57800  0.05187  0.97035  1.0000
  C   C245      1.0  0.02552  0.36291  0.24172  1.0000
  H   H245      1.0  0.03083  0.27934  0.52788  1.0000
  H   H246      1.0  0.78973  0.13222  0.73022  1.0000
  C   C246      1.0  0.94305  0.24976  0.55507  1.0000
  H   H247      1.0  0.81673  0.12141  0.69643  1.0000
  H   H248      1.0  0.83258  0.22100  0.71220  1.0000
  Fe  Fe41      1.0  0.00100  0.25332  0.69046  1.0000
  S   S81       1.0  0.95168  0.19450  0.67036  1.0000
  S   S82       1.0  0.99629  0.30838  0.68829  1.0000
  Fe  Fe42      1.0  0.74752  0.11261  0.56610  1.0000
  C   C247      1.0  0.98889  0.34167  0.86403  1.0000
  S   S83       1.0  0.79680  0.17093  0.58714  1.0000
  Fe  Fe43      1.0  0.66367  0.07043  0.53206  1.0000
  H   H249      1.0  0.97152  0.21828  0.57709  1.0000
  S   S84       1.0  0.61017  0.07614  0.51449  1.0000
  C   C248      1.0  0.00615  0.33160  0.83541  1.0000
  S   S85       1.0  0.02319  0.26179  0.74876  1.0000
  S   S86       1.0  0.99586  0.33858  0.78952  1.0000
  S   S87       1.0  0.68632  0.08330  0.59010  1.0000
  S   S88       1.0  0.72460  0.10600  0.50810  1.0000
  C   C249      1.0  0.85458  0.21438  0.72363  1.0000
  H   H250      1.0  0.82143  0.13664  0.52547  1.0000
  C   C250      1.0  0.91536  0.17937  0.55207  1.0000
  S   S89       1.0  0.75266  0.05775  0.56549  1.0000
  H   H251      1.0  0.71510  0.08392  0.72653  1.0000
  H   H252      1.0  0.94400  0.25978  0.76566  1.0000
  Fe  Fe44      1.0  0.72542  0.04881  0.50926  1.0000
  H   H253      1.0  0.80042  0.15596  0.68547  1.0000
  C   C251      1.0  0.87940  0.20926  0.52749  1.0000
  C   C252      1.0  0.90802  0.18831  0.64872  1.0000
  C   C253      1.0  0.90126  0.21997  0.64192  1.0000
  C   C254      1.0  0.86668  0.21399  0.62372  1.0000
  C   C255      1.0  0.83849  0.17636  0.61212  1.0000
  C   C256      1.0  0.84481  0.14453  0.61964  1.0000
  C   C257      1.0  0.87944  0.15054  0.63780  1.0000
  H   H254      1.0  0.92290  0.24917  0.65022  1.0000
  H   H255      1.0  0.86204  0.23880  0.61808  1.0000
  H   H256      1.0  0.82323  0.11534  0.61122  1.0000
  H   H257      1.0  0.88429  0.12580  0.64313  1.0000
  H   H258      1.0  0.87272  0.13899  0.73619  1.0000
  H   H259      1.0  0.57071  0.04824  0.61525  1.0000
  C   C258      1.0  0.88888  0.24477  0.73895  1.0000
  C   C259      1.0  0.91731  0.23650  0.75368  1.0000
  H   H260      1.0  0.85306  0.20679  0.51451  1.0000
  C   C260      1.0  0.03119  0.31621  0.84380  1.0000
  C   C261      1.0  0.94602  0.21607  0.56253  1.0000
  C   C262      1.0  0.90964  0.24644  0.53730  1.0000
  H   H261      1.0  0.89359  0.27462  0.73942  1.0000
  H   H262      1.0  0.90690  0.27241  0.53166  1.0000
  N   N19       1.0  0.84902  0.17689  0.72274  1.0000
  H   H263      1.0  0.93380  0.19172  0.76329  1.0000
  H   H264      1.0  0.91770  0.15330  0.55845  1.0000
  C   C263      1.0  0.91137  0.19822  0.75274  1.0000
  H   H265      1.0  0.98308  0.34410  0.92268  1.0000
  H   H266      1.0  0.70641  0.06093  0.66235  1.0000
  C   C264      1.0  0.81214  0.14510  0.70809  1.0000
  C   C265      1.0  0.70037  0.05278  0.72105  1.0000
  N   N20       1.0  0.88236  0.17630  0.53522  1.0000
  C   C266      1.0  0.99662  0.33642  0.90085  1.0000
  C   C267      1.0  0.87679  0.16855  0.73721  1.0000
  Fe  Fe45      1.0  0.02256  0.31903  0.74499  1.0000
  S   S90       1.0  0.69328  0.04320  0.79569  1.0000
  H   H267      1.0  0.64458  0.08037  0.84949  1.0000
  C   C268      1.0  0.02152  0.32082  0.90924  1.0000
  H   H268      1.0  0.96639  0.27834  0.56343  1.0000
  C   C269      1.0  0.03873  0.31074  0.88059  1.0000
  H   H269      1.0  0.84858  0.11404  0.54300  1.0000
  C   C270      1.0  0.61289  0.06319  0.85329  1.0000
  H   H270      1.0  0.60807  0.10847  0.88193  1.0000
  H   H271      1.0  0.85551  0.13116  0.49583  1.0000
  C   C271      1.0  0.85055  0.13766  0.52424  1.0000
  C   C272      1.0  0.69521  0.03978  0.68464  1.0000
  C   C273      1.0  0.59210  0.07878  0.87159  1.0000
  H   H272      1.0  0.96932  0.35338  0.85769  1.0000
  C   C274      1.0  0.57246  0.04174  0.48589  1.0000
  N   N21       1.0  0.55221  0.05683  0.87658  1.0000
  S   S91       1.0  0.03165  0.31335  0.95508  1.0000
  H   H273      1.0  0.54822  0.09364  0.91726  1.0000
  S   S92       1.0  0.99811  0.67288  0.19437  1.0000
  Fe  Fe46      1.0  0.67097  0.66502  0.33580  1.0000
  S   S93       1.0  0.61396  0.66641  0.33468  1.0000
  S   S94       1.0  0.68504  0.63520  0.29022  1.0000
  Fe  Fe47      1.0  0.60792  0.64583  0.39355  1.0000
  S   S95       1.0  0.66271  0.64038  0.39323  1.0000
  Fe  Fe48      1.0  0.75146  0.63331  0.05725  1.0000
  C   C275      1.0  0.02723  0.47684  0.44641  1.0000
  S   S96       1.0  0.80020  0.62229  0.08077  1.0000
  Fe  Fe49      1.0  0.66635  0.59374  0.02525  1.0000
  S   S97       1.0  0.66476  0.65066  0.02417  1.0000
  S   S98       1.0  0.61560  0.53506  0.00594  1.0000
  C   C276      1.0  0.58356  0.54611  0.35197  1.0000
  Fe  Fe50      1.0  0.69396  0.66115  0.07966  1.0000
  S   S99       1.0  0.68086  0.69050  0.12677  1.0000
  S   S100      1.0  0.72679  0.61892  0.99977  1.0000
  S   S101      1.0  0.69102  0.60223  0.08282  1.0000
  Fe  Fe51      1.0  0.98669  0.39624  0.02349  1.0000
  C   C277      1.0  0.01153  0.51990  0.96702  1.0000
  S   S102      1.0  0.98142  0.44961  0.00462  1.0000
  C   C278      1.0  0.89731  0.66781  0.14663  1.0000
  S   S103      1.0  0.02164  0.65079  0.29682  1.0000
  H   H274      1.0  0.00826  0.53452  0.04731  1.0000
  Fe  Fe52      1.0  0.72609  0.67619  0.00149  1.0000
  H   H275      1.0  0.96262  0.49353  0.39931  1.0000
  S   S104      1.0  0.97229  0.37287  0.08152  1.0000
  C   C279      1.0  0.00177  0.55354  0.32581  1.0000
  C   C280      1.0  0.76525  0.60787  0.17656  1.0000
  C   C281      1.0  0.77389  0.65896  0.21991  1.0000
  N   N22       1.0  0.99628  0.52625  0.35244  1.0000
  S   S105      1.0  0.03269  0.38861  0.38878  1.0000
  Fe  Fe53      1.0  0.02793  0.36899  0.07840  1.0000
  H   H276      1.0  0.91195  0.59895  0.06091  1.0000
  C   C282      1.0  0.77063  0.67061  0.15628  1.0000
  C   C283      1.0  0.97813  0.68879  0.09296  1.0000
  H   H277      1.0  0.94270  0.51987  0.37429  1.0000
  H   H278      1.0  0.74654  0.58585  0.19757  1.0000
  H   H279      1.0  0.59132  0.54194  0.32375  1.0000
  C   C284      1.0  0.02801  0.56080  0.29690  1.0000
  H   H280      1.0  0.91464  0.65685  0.16078  1.0000
  C   C285      1.0  0.01808  0.48890  0.97839  1.0000
  C   C286      1.0  0.01021  0.69785  0.34582  1.0000
  N   N23       1.0  0.54525  0.51309  0.36270  1.0000
  N   N24       1.0  0.76968  0.64661  0.18443  1.0000
  H   H281      1.0  0.98583  0.54612  0.40276  1.0000
  C   C287      1.0  0.84115  0.65577  0.10728  1.0000
  H   H282      1.0  0.76722  0.66080  0.12822  1.0000
  C   C288      1.0  0.91137  0.65309  0.04940  1.0000
  C   C289      1.0  0.86392  0.64205  0.12611  1.0000
  H   H283      1.0  0.59268  0.59126  0.97586  1.0000
  H   H284      1.0  0.85589  0.61132  0.12457  1.0000
  C   C290      1.0  0.97057  0.52112  0.38368  1.0000
  C   C291      1.0  0.67965  0.64876  0.24510  1.0000
  H   H285      1.0  0.97262  0.63128  0.09957  1.0000
  C   C292      1.0  0.04081  0.49646  0.08130  1.0000
  H   H286      1.0  0.75078  0.59696  0.14955  1.0000
  C   C293      1.0  0.67808  0.63733  0.17941  1.0000
  C   C294      1.0  0.67897  0.62549  0.21582  1.0000
  C   C295      1.0  0.01342  0.69157  0.41219  1.0000
  C   C296      1.0  0.57051  0.56194  0.96831  1.0000
  H   H287      1.0  0.67783  0.61933  0.15710  1.0000
  H   H288      1.0  0.67961  0.59843  0.22130  1.0000
  H   H289      1.0  0.02836  0.62325  0.36870  1.0000
  H   H290      1.0  0.02166  0.44746  0.44036  1.0000
  C   C297      1.0  0.67805  0.67265  0.17204  1.0000
  H   H291      1.0  0.79471  0.60975  0.17583  1.0000
  C   C298      1.0  0.96026  0.64836  0.08707  1.0000
  H   H292      1.0  0.57021  0.48012  0.38728  1.0000
  C   C299      1.0  0.67752  0.69533  0.20136  1.0000
  C   C300      1.0  0.54545  0.55514  0.44022  1.0000
  C   C301      1.0  0.92655  0.63041  0.06524  1.0000
  C   C302      1.0  0.01990  0.65958  0.40748  1.0000
  C   C303      1.0  0.57443  0.52960  0.97983  1.0000
  H   H293      1.0  0.77280  0.63986  0.24232  1.0000
  H   H294      1.0  0.58299  0.57437  0.35272  1.0000
  C   C304      1.0  0.67830  0.68346  0.23782  1.0000
  C   C305      1.0  0.01742  0.66635  0.34101  1.0000
  S   S106      1.0  0.54967  0.59663  0.41567  1.0000
  H   H295      1.0  0.88451  0.63931  0.03323  1.0000
  H   H296      1.0  0.60724  0.54917  0.37112  1.0000
  C   C306      1.0  0.54343  0.48086  0.38010  1.0000
  H   H297      1.0  0.03252  0.58288  0.27613  1.0000
  C   C307      1.0  0.85192  0.69558  0.10952  1.0000
  S   S107      1.0  0.75540  0.69260  0.05676  1.0000
  H   H298      1.0  0.60755  0.57408  0.44153  1.0000
  H   H299      1.0  0.98609  0.57022  0.32694  1.0000
  H   H300      1.0  0.01185  0.48759  0.09254  1.0000
  H   H301      1.0  0.98407  0.51905  0.97397  1.0000
  H   H302      1.0  0.02411  0.64499  0.43117  1.0000
  C   C308      1.0  0.02211  0.64718  0.37200  1.0000
  C   C309      1.0  0.57843  0.55111  0.44903  1.0000
  Fe  Fe54      1.0  0.03091  0.69129  0.24801  1.0000
  H   H303      1.0  0.54796  0.46649  0.97854  1.0000
  C   C310      1.0  0.54514  0.49168  0.96982  1.0000
  C   C311      1.0  0.01615  0.50534  0.35087  1.0000
  C   C312      1.0  0.93039  0.69360  0.05548  1.0000
  H   H304      1.0  0.01186  0.48356  0.37176  1.0000
  C   C313      1.0  0.04033  0.55342  0.05257  1.0000
  C   C314      1.0  0.77799  0.69578  0.22797  1.0000
  H   H305      1.0  0.74772  0.61628  0.86755  1.0000
  Fe  Fe55      1.0  0.93887  0.62525  0.56129  1.0000
  H   H306      1.0  0.62550  0.54868  0.56570  1.0000
  S   S108      1.0  0.88022  0.61880  0.58037  1.0000
  Fe  Fe56      1.0  0.98086  0.58407  0.52459  1.0000
  C   C315      1.0  0.66737  0.69180  0.54532  1.0000
  S   S109      1.0  0.97364  0.52542  0.50541  1.0000
  C   C316      1.0  0.56294  0.56748  0.85605  1.0000
  Fe  Fe57      1.0  0.00188  0.66755  0.50324  1.0000
  N   N25       1.0  0.87417  0.69040  0.52244  1.0000
  S   S110      1.0  0.96866  0.59196  0.58340  1.0000
  S   S111      1.0  0.94488  0.61098  0.50280  1.0000
  C   C317      1.0  0.78531  0.63928  0.78177  1.0000
  H   H307      1.0  0.90095  0.68717  0.47296  1.0000
  H   H308      1.0  0.58394  0.57658  0.87945  1.0000
  H   H309      1.0  0.80236  0.66717  0.64544  1.0000
  H   H310      1.0  0.72156  0.59709  0.82560  1.0000
  H   H311      1.0  0.87834  0.64225  0.50039  1.0000
  H   H312      1.0  0.75949  0.58538  0.84002  1.0000
  H   H313      1.0  0.76660  0.61190  0.76794  1.0000
  C   C318      1.0  0.55637  0.50230  0.86874  1.0000
  C   C319      1.0  0.03363  0.65256  0.74337  1.0000
  H   H314      1.0  0.54757  0.44373  0.87849  1.0000
  S   S112      1.0  0.70137  0.65466  0.79347  1.0000
  C   C320      1.0  0.80290  0.67795  0.83549  1.0000
  N   N26       1.0  0.78031  0.64295  0.81831  1.0000
  C   C321      1.0  0.69549  0.64840  0.86838  1.0000
  C   C322      1.0  0.70613  0.66238  0.90429  1.0000
  H   H315      1.0  0.97418  0.62752  0.72281  1.0000
  H   H316      1.0  0.67476  0.61770  0.86407  1.0000
  H   H317      1.0  0.69341  0.64257  0.92748  1.0000
  C   C323      1.0  0.00059  0.48229  0.46835  1.0000
  C   C324      1.0  0.83712  0.64561  0.61796  1.0000
  C   C325      1.0  0.87507  0.65142  0.61045  1.0000
  C   C326      1.0  0.83173  0.67183  0.64033  1.0000
  H   H318      1.0  0.81171  0.62085  0.60610  1.0000
  S   S113      1.0  0.01904  0.65096  0.78939  1.0000
  C   C327      1.0  0.01459  0.45551  0.56017  1.0000
  H   H319      1.0  0.79814  0.68132  0.86421  1.0000
  C   C328      1.0  0.89548  0.67489  0.50131  1.0000
  C   C329      1.0  0.02233  0.49394  0.56669  1.0000
  H   H320      1.0  0.63607  0.67644  0.55092  1.0000
  H   H321      1.0  0.03489  0.57581  0.93847  1.0000
  C   C330      1.0  0.71205  0.67383  0.83815  1.0000
  H   H322      1.0  0.59952  0.51456  0.47477  1.0000
  S   S114      1.0  0.99375  0.68379  0.56024  1.0000
  H   H323      1.0  0.00345  0.53888  0.87339  1.0000
  C   C331      1.0  0.00400  0.47210  0.88264  1.0000
  C   C332      1.0  0.04033  0.55216  0.94693  1.0000
  H   H324      1.0  0.98942  0.41594  0.90760  1.0000
  H   H325      1.0  0.00135  0.49849  0.58249  1.0000
  C   C333      1.0  0.57379  0.51731  0.46791  1.0000
  H   H326      1.0  0.57882  0.51509  0.88983  1.0000
  H   H327      1.0  0.92425  0.68220  0.51414  1.0000
  C   C334      1.0  0.02344  0.53616  0.85341  1.0000
  C   C335      1.0  0.00739  0.52023  0.47666  1.0000
  C   C336      1.0  0.01116  0.44120  0.89220  1.0000
  N   N27       1.0  0.54450  0.52513  0.84944  1.0000
  C   C337      1.0  0.83449  0.67527  0.51727  1.0000
  H   H328      1.0  0.81873  0.65150  0.49823  1.0000
  H   H329      1.0  0.99372  0.63522  0.65734  1.0000
  Fe  Fe58      1.0  0.02406  0.64993  0.57876  1.0000
  C   C338      1.0  0.00497  0.63994  0.71562  1.0000
  C   C339      1.0  0.01598  0.64413  0.67849  1.0000
  S   S115      1.0  0.74254  0.67933  0.69278  1.0000
  H   H330      1.0  0.65984  0.68647  0.48663  1.0000
  C   C340      1.0  0.56187  0.51955  0.56726  1.0000
  H   H331      1.0  0.97470  0.45694  0.47919  1.0000
  H   H332      1.0  0.63151  0.60832  0.53406  1.0000
  H   H333      1.0  0.97634  0.47029  0.89076  1.0000
  C   C341      1.0  0.90771  0.68358  0.62593  1.0000
  C   C342      1.0  0.56872  0.58620  0.53212  1.0000
  H   H334      1.0  0.98819  0.43068  0.57112  1.0000
  H   H335      1.0  0.00970  0.53047  0.82580  1.0000
  H   H336      1.0  0.78204  0.67775  0.53275  1.0000
  C   C343      1.0  0.75091  0.60872  0.83895  1.0000
  C   C344      1.0  0.60267  0.58418  0.54116  1.0000
  H   H337      1.0  0.57102  0.61180  0.51765  1.0000
  C   C345      1.0  0.81358  0.68993  0.53673  1.0000
  H   H338      1.0  0.57929  0.58431  0.83130  1.0000
  C   C346      1.0  0.59931  0.55072  0.55890  1.0000
  H   H339      1.0  0.03494  0.41970  0.53344  1.0000
  H   H340      1.0  0.93705  0.68834  0.62043  1.0000
  N   N28       1.0  0.03183  0.50452  0.86417  1.0000
  H   H341      1.0  0.97796  0.69380  0.75408  1.0000
  S   S116      1.0  0.67606  0.69715  0.61986  1.0000
  H   H342      1.0  0.03548  0.56642  0.56445  1.0000
  H   H343      1.0  0.55943  0.49322  0.58028  1.0000
  S   S117      1.0  0.03846  0.64009  0.52143  1.0000
  H   H344      1.0  0.81787  0.66811  0.73249  1.0000
  Fe  Fe59      1.0  0.72947  0.69808  0.74664  1.0000
  C   C347      1.0  0.81417  0.67089  0.76159  1.0000
  C   C348      1.0  0.04094  0.55276  0.46244  1.0000
  C   C349      1.0  0.04088  0.44937  0.53908  1.0000
  C   C350      1.0  0.68079  0.69769  0.50888  1.0000
  H   H345      1.0  0.72108  0.80061  0.30741  1.0000
  Fe  Fe60      1.0  0.65024  0.72805  0.35562  1.0000
  S   S118      1.0  0.64273  0.77981  0.33557  1.0000
  S   S119      1.0  0.70780  0.72776  0.35321  1.0000
  C   C351      1.0  0.74869  0.92123  0.36283  1.0000
  H   H346      1.0  0.62506  0.85232  0.20442  1.0000
  C   C352      1.0  0.71364  0.92012  0.37318  1.0000
  C   C353      1.0  0.61091  0.00633  0.36896  1.0000
  Fe  Fe61      1.0  0.00047  0.73154  0.19428  1.0000
  S   S120      1.0  0.95038  0.74161  0.17352  1.0000
  C   C354      1.0  0.70724  0.84666  0.18831  1.0000
  Fe  Fe62      1.0  0.76410  0.98256  0.22992  1.0000
  S   S121      1.0  0.70535  0.98028  0.23038  1.0000
  S   S122      1.0  0.77126  0.93002  0.24782  1.0000
  Fe  Fe63      1.0  0.72258  0.00891  0.17453  1.0000
  S   S123      1.0  0.67826  0.98680  0.12818  1.0000
  H   H347      1.0  0.63841  0.96737  0.05873  1.0000
  S   S124      1.0  0.77944  0.00728  0.17238  1.0000
  H   H348      1.0  0.78056  0.74837  0.20526  1.0000
  C   C355      1.0  0.69673  0.81019  0.20475  1.0000
  H   H349      1.0  0.58855  0.97493  0.36547  1.0000
  C   C356      1.0  0.69628  0.99232  0.08292  1.0000
  N   N29       1.0  0.68165  0.86141  0.18827  1.0000
  H   H350      1.0  0.78143  0.88998  0.36243  1.0000
  H   H351      1.0  0.67266  0.91073  0.17621  1.0000
  C   C357      1.0  0.68322  0.98417  0.01716  1.0000
  C   C358      1.0  0.66965  0.98014  0.05346  1.0000
  H   H352      1.0  0.77104  0.94653  0.34790  1.0000
  H   H353      1.0  0.00142  0.76207  0.10760  1.0000
  C   C359      1.0  0.77494  0.70769  0.16328  1.0000
  S   S125      1.0  0.02863  0.74769  0.25033  1.0000
  H   H354      1.0  0.63039  0.01675  0.34442  1.0000
  C   C360      1.0  0.00832  0.71046  0.38129  1.0000
  H   H355      1.0  0.75192  0.82072  0.37696  1.0000
  C   C361      1.0  0.73186  0.82305  0.39712  1.0000
  C   C362      1.0  0.69119  0.85529  0.39901  1.0000
  H   H356      1.0  0.65173  0.76107  0.23514  1.0000
  H   H357      1.0  0.69453  0.89687  0.14010  1.0000
  H   H358      1.0  0.89305  0.75196  0.13197  1.0000
  H   H359      1.0  0.96183  0.76428  0.08506  1.0000
  C   C363      1.0  0.67870  0.82100  0.31073  1.0000
  C   C364      1.0  0.67095  0.85174  0.30139  1.0000
  C   C365      1.0  0.69899  0.88534  0.28223  1.0000
  C   C366      1.0  0.73515  0.88854  0.27224  1.0000
  C   C367      1.0  0.74291  0.85779  0.28157  1.0000
  C   C368      1.0  0.71480  0.82412  0.30062  1.0000
  H   H360      1.0  0.64313  0.84961  0.30916  1.0000
  H   H361      1.0  0.69264  0.90878  0.27536  1.0000
  H   H362      1.0  0.77077  0.85997  0.27384  1.0000
  N   N30       1.0  0.55163  0.00279  0.05739  1.0000
  H   H363      1.0  0.71729  0.79883  0.20516  1.0000
  H   H364      1.0  0.75649  0.02252  0.32882  1.0000
  C   C369      1.0  0.59431  0.02016  0.05208  1.0000
  C   C370      1.0  0.64531  0.84060  0.20426  1.0000
  H   H365      1.0  0.54229  0.99420  0.34060  1.0000
  C   C371      1.0  0.98347  0.75355  0.08212  1.0000
  C   C372      1.0  0.63400  0.80418  0.22126  1.0000
  H   H366      1.0  0.54480  0.95775  0.43799  1.0000
  H   H367      1.0  0.60561  0.78812  0.23479  1.0000
  C   C373      1.0  0.73661  0.00849  0.07584  1.0000
  H   H368      1.0  0.67870  0.70151  0.26025  1.0000
  C   C374      1.0  0.77841  0.72019  0.19941  1.0000
  C   C375      1.0  0.75430  0.88906  0.37100  1.0000
  S   S126      1.0  0.63794  0.70779  0.41465  1.0000
  H   H369      1.0  0.66248  0.97485  0.99465  1.0000
  H   H370      1.0  0.91824  0.71100  0.04337  1.0000
  C   C376      1.0  0.72355  0.00006  0.01013  1.0000
  C   C377      1.0  0.68472  0.88703  0.39149  1.0000
  S   S127      1.0  0.74167  0.00526  0.96500  1.0000
  C   C378      1.0  0.69339  0.89944  0.17030  1.0000
  H   H371      1.0  0.76956  0.01028  0.39312  1.0000
  H   H372      1.0  0.75740  0.01806  0.09823  1.0000
  C   C379      1.0  0.75340  0.02592  0.38765  1.0000
  H   H373      1.0  0.00315  0.73513  0.38475  1.0000
  N   N31       1.0  0.72551  0.85646  0.38848  1.0000
  C   C380      1.0  0.75015  0.01212  0.03958  1.0000
  H   H374      1.0  0.66819  0.82925  0.41247  1.0000
  H   H375      1.0  0.72297  0.92168  0.18014  1.0000
  C   C381      1.0  0.65992  0.78896  0.22146  1.0000
  H   H376      1.0  0.73632  0.86354  0.17621  1.0000
  H   H377      1.0  0.70872  0.94466  0.36665  1.0000
  C   C382      1.0  0.88500  0.72123  0.13042  1.0000
  H   H378      1.0  0.77958  0.70469  0.25624  1.0000
  H   H379      1.0  0.65722  0.88572  0.39937  1.0000
  C   C383      1.0  0.90811  0.70763  0.14882  1.0000
  H   H380      1.0  0.00599  0.71250  0.32230  1.0000
  Fe  Fe64      1.0  0.69323  0.70335  0.41088  1.0000
  H   H381      1.0  0.60803  0.01478  0.07680  1.0000
  N   N32       1.0  0.96322  0.71088  0.07720  1.0000
  H   H382      1.0  0.62897  0.00778  0.39330  1.0000
  C   C384      1.0  0.54330  0.98261  0.44906  1.0000
  H   H383      1.0  0.00390  0.70228  0.11041  1.0000
  C   C385      1.0  0.55699  0.02073  0.35667  1.0000
  H   H384      1.0  0.67715  0.72245  0.19574  1.0000
  H   H385      1.0  0.00314  0.76842  0.05839  1.0000
  H   H386      1.0  0.70363  0.79491  0.39598  1.0000
  H   H387      1.0  0.60133  0.00755  0.02793  1.0000
  H   H388      1.0  0.83502  0.70674  0.09491  1.0000
  H   H389      1.0  0.78133  0.02425  0.03430  1.0000
  H   H390      1.0  0.77419  0.72594  0.14086  1.0000
  H   H391      1.0  0.74456  0.82608  0.42504  1.0000
  N   N33       1.0  0.59198  0.03062  0.37389  1.0000
  H   H392      1.0  0.68370  0.87812  0.96028  1.0000
  Fe  Fe65      1.0  0.75985  0.78249  0.72210  1.0000
  H   H393      1.0  0.65618  0.96431  0.76540  1.0000
  S   S128      1.0  0.76783  0.84196  0.73879  1.0000
  Fe  Fe66      1.0  0.80001  0.73554  0.69500  1.0000
  H   H394      1.0  0.88972  0.75906  0.58593  1.0000
  C   C386      1.0  0.59259  0.02501  0.84001  1.0000
  Fe  Fe67      1.0  0.71912  0.71671  0.66712  1.0000
  C   C387      1.0  0.74809  0.73262  0.53061  1.0000
  S   S129      1.0  0.66345  0.01289  0.53002  1.0000
  C   C388      1.0  0.73316  0.70198  0.91010  1.0000
  S   S130      1.0  0.77735  0.77220  0.66614  1.0000
  S   S131      1.0  0.78875  0.75189  0.75101  1.0000
  S   S132      1.0  0.66778  0.98224  0.63185  1.0000
  Fe  Fe68      1.0  0.65546  0.91631  0.86597  1.0000
  S   S133      1.0  0.71267  0.97273  0.86302  1.0000
  S   S134      1.0  0.65038  0.85778  0.84956  1.0000
  Fe  Fe69      1.0  0.61181  0.95716  0.89949  1.0000
  C   C389      1.0  0.55195  0.00283  0.84524  1.0000
  H   H395      1.0  0.73315  0.82049  0.66597  1.0000
  C   C390      1.0  0.57390  0.00925  0.47177  1.0000
  Fe  Fe70      1.0  0.69679  0.98361  0.91928  1.0000
  S   S135      1.0  0.61902  0.94172  0.84172  1.0000
  S   S136      1.0  0.64195  0.92529  0.92394  1.0000
  C   C391      1.0  0.70612  0.78971  0.89614  1.0000
  C   C392      1.0  0.69421  0.70573  0.57454  1.0000
  C   C393      1.0  0.66133  0.97243  0.70657  1.0000
  C   C394      1.0  0.75316  0.89969  0.89475  1.0000
  H   H396      1.0  0.64559  0.94132  0.70099  1.0000
  C   C395      1.0  0.68647  0.02569  0.75037  1.0000
  C   C396      1.0  0.54789  0.95726  0.55781  1.0000
  H   H397      1.0  0.92771  0.73481  0.65990  1.0000
  C   C397      1.0  0.58241  0.02270  0.95197  1.0000
  H   H398      1.0  0.75550  0.73725  0.58946  1.0000
  C   C398      1.0  0.83782  0.70644  0.77901  1.0000
  H   H399      1.0  0.99012  0.71826  0.68664  1.0000
  C   C399      1.0  0.69387  0.89558  0.69972  1.0000
  C   C400      1.0  0.57757  0.97014  0.58428  1.0000
  H   H400      1.0  0.67380  0.76953  0.89477  1.0000
  H   H401      1.0  0.60846  0.01262  0.82589  1.0000
  H   H402      1.0  0.84928  0.73813  0.82961  1.0000
  S   S137      1.0  0.69990  0.72957  0.72083  1.0000
  H   H403      1.0  0.77000  0.75819  0.88426  1.0000
  C   C401      1.0  0.83192  0.71023  0.81609  1.0000
  C   C402      1.0  0.02100  0.73184  0.69429  1.0000
  C   C403      1.0  0.73627  0.84598  0.77122  1.0000
  C   C404      1.0  0.74149  0.88333  0.77958  1.0000
  C   C405      1.0  0.71563  0.88749  0.80373  1.0000
  C   C406      1.0  0.68424  0.85423  0.81974  1.0000
  C   C407      1.0  0.67948  0.81693  0.81193  1.0000
  C   C408      1.0  0.70543  0.81279  0.78790  1.0000
  H   H404      1.0  0.76531  0.90918  0.76686  1.0000
  H   H405      1.0  0.71969  0.91638  0.80951  1.0000
  H   H406      1.0  0.65535  0.79104  0.82427  1.0000
  H   H407      1.0  0.70122  0.78388  0.78195  1.0000
  C   C409      1.0  0.73466  0.72613  0.56711  1.0000
  C   C410      1.0  0.69301  0.83558  0.93068  1.0000
  H   H408      1.0  0.76123  0.85681  0.86530  1.0000
  H   H409      1.0  0.62590  0.82034  0.75167  1.0000
  C   C411      1.0  0.83357  0.72028  0.56151  1.0000
  N   N34       1.0  0.71445  0.82983  0.90424  1.0000
  H   H410      1.0  0.70745  0.92727  0.69640  1.0000
  H   H411      1.0  0.77934  0.74899  0.52492  1.0000
  H   H412      1.0  0.61144  0.02792  0.94451  1.0000
  C   C412      1.0  0.67548  0.99954  0.67728  1.0000
  N   N35       1.0  0.68888  0.83402  0.68217  1.0000
  C   C413      1.0  0.66043  0.81474  0.70821  1.0000
  C   C414      1.0  0.70583  0.87395  0.67799  1.0000
  C   C415      1.0  0.64778  0.83547  0.73043  1.0000
  C   C416      1.0  0.66467  0.87613  0.72612  1.0000
  H   H413      1.0  0.81764  0.73135  0.57744  1.0000
  H   H414      1.0  0.68388  0.77990  0.66264  1.0000
  H   H415      1.0  0.64791  0.78330  0.71246  1.0000
  H   H416      1.0  0.72903  0.88932  0.65796  1.0000
  H   H417      1.0  0.65582  0.89262  0.74387  1.0000
  S   S138      1.0  0.55326  0.94937  0.92024  1.0000
  C   C417      1.0  0.66709  0.98542  0.74303  1.0000
  C   C418      1.0  0.74908  0.72754  0.87990  1.0000
  Fe  Fe71      1.0  0.67571  0.99882  0.84217  1.0000
  H   H418      1.0  0.59469  0.95512  0.58836  1.0000
  S   S139      1.0  0.85915  0.73892  0.68254  1.0000
  H   H419      1.0  0.70066  0.81918  0.62958  1.0000
  C   C419      1.0  0.86434  0.70422  0.65546  1.0000
  C   C420      1.0  0.72122  0.71829  0.50139  1.0000
  C   C421      1.0  0.90232  0.70981  0.64834  1.0000
  H   H420      1.0  0.75098  0.73352  0.82107  1.0000
  C   C422      1.0  0.70221  0.81228  0.65899  1.0000
  H   H421      1.0  0.85987  0.73135  0.76342  1.0000
  H   H422      1.0  0.77628  0.92453  0.88006  1.0000
  H   H423      1.0  0.71896  0.77892  0.91783  1.0000
  C   C423      1.0  0.00118  0.72473  0.75860  1.0000
  N   N36       1.0  0.03179  0.73687  0.73043  1.0000
  C   C424      1.0  0.89414  0.72070  0.54617  1.0000
  H   H424      1.0  0.01310  0.72538  0.78657  1.0000
  S   S140      1.0  0.66615  0.01610  0.89820  1.0000
  C   C425      1.0  0.87413  0.73596  0.56617  1.0000
  C   C426      1.0  0.74444  0.86129  0.88653  1.0000
  C   C427      1.0  0.54929  0.98688  0.94350  1.0000
  H   H425      1.0  0.59865  0.00473  0.47815  1.0000
  S   S141      1.0  0.74899  0.02897  0.46234  1.0000
  H   H426      1.0  0.71850  0.78818  0.86922  1.0000
  C   C428      1.0  0.73844  0.71356  0.84405  1.0000
  C   C429      1.0  0.56382  0.02239  0.59932  1.0000
  C   C430      1.0  0.58563  0.00287  0.60521  1.0000
  Fe  Fe72      1.0  0.69037  0.02801  0.58634  1.0000
  H   H427      1.0  0.60897  0.01323  0.62561  1.0000
  S   S142      1.0  0.74786  0.72045  0.95459  1.0000
  H   H428      1.0  0.92553  0.73255  0.55046  1.0000
  H   H429      1.0  0.98780  0.74424  0.75778  1.0000
  H   H430      1.0  0.04069  0.73656  0.63824  1.0000
  S   S143      1.0  0.01462  0.71031  0.45615  1.0000
  C   C431      1.0  0.73139  0.90580  0.92162  1.0000
  H   H431      1.0  0.73775  0.93542  0.92826  1.0000
  C   C432      1.0  0.70109  0.87360  0.93971  1.0000
  H   H432      1.0  0.66924  0.81067  0.94469  1.0000
  S   S144      1.0  0.73899  0.72656  0.45591  1.0000
