data_image0
_chemical_formula_structural       FeS2FeS2FeSFeS3HNSH2CH2C4HC2H2CNC6H4C6H3C5H3FeCNCHC2H2NHCH3CHSC3H4C2HCH4CH2C2H3C3HNHCH4FeS2FeS2FeSFeS3FeCSHCHNH2C6H6C2SCHC6H5CNH2CH4CHCSHC2NC6H4NC4HCH3CSHCHCH3C2H3C2H2C2HCH2NSCSHCH2FeH3C2HC6H2CSHSCHCFeS2FeS2FeCFeSFeS2FeS2FeSFeS3C6H3C7H5C2HCHC3H3NC3SHC2H3CFeNC3H5CNC3H2C3NH3CH3CHC3H5CH4C2HCHC2HCHS3C2H4CH3C2HCHCH6CH2SC4FeS2FeSNFe2S3FeS2FeSCFeS2FeS2FeSFeS3C2FeH2C6HCH2C8H4C5H2C6H4C2H4CHSCHCH2CH4CHCNC6H8CHNC2H3NHC2HC2H2C2SH2SCHCHSCH4CHFeSFeS2FeSHCS2FeS2FeSFeSFeS2FeS2FeSFeS3C7H4C6H4CHC2H2C3HSH3SHC6H4CNHCHC4HCHCH3CHCNC6H8NC2HC2H2SCH3SC2HCHCSCHCH2C2HNFeCHCHNH3CH2CH3C3HCH2C2HFeSFeS2Fe3S3FeS2FeS2FeSFeS3CSCHC4HC2H3C8H4NC6H4SC2HSCSC4NH4C2HCHCH5CHCH3C2HC2H2C3HCSH2SHC2HNC2H2C2H7C2NH3CHNC3SCHC2HCHCHCHCHCH5C2FeHFeSHSFeS2FeS2FeSHSC3H3CH2C7H3SHC5H3CHC6SH2NH2FeHFeC2H2NCHFeHCHCH2C2SH4C2HFeH2FeS3FeH2C2Fe2SHSHCH3C3NH2C4NHC2H2C2H2SCS2CH3CSH2CHC2HCH2SFeHFeSHSFeS2FeCFeHFeS3CH4S2HC6H4C4H4CNCHCH4NH2C3SNC5HSH5FeC2HFeSC2HC2HSHC3SHN
_chemical_formula_sum              "Fe72 S144 H432 N36 C432"
_cell_length_a       42.612
_cell_length_b       41.9141
_cell_length_c       57.9856
_cell_angle_alpha    89.1101
_cell_angle_beta     91.654
_cell_angle_gamma    118.874

_space_group_name_H-M_alt    "P 1"
_space_group_IT_number       1

loop_
  _space_group_symop_operation_xyz
  'x, y, z'

loop_
  _atom_site_type_symbol
  _atom_site_label
  _atom_site_symmetry_multiplicity
  _atom_site_fract_x
  _atom_site_fract_y
  _atom_site_fract_z
  _atom_site_occupancy
  Fe  Fe1       1.0  0.17953  0.14661  0.12743  1.0000
  S   S1        1.0  0.15822  0.12864  0.09167  1.0000
  S   S2        1.0  0.13622  0.13563  0.15250  1.0000
  Fe  Fe2       1.0  0.25682  0.17115  0.11511  1.0000
  S   S3        1.0  0.24106  0.15509  0.07770  1.0000
  S   S4        1.0  0.31710  0.19536  0.12313  1.0000
  Fe  Fe3       1.0  0.20541  0.18032  0.08050  1.0000
  S   S5        1.0  0.19330  0.21384  0.05436  1.0000
  Fe  Fe4       1.0  0.19479  0.10444  0.09178  1.0000
  S   S6        1.0  0.17239  0.04958  0.07455  1.0000
  S   S7        1.0  0.22458  0.20084  0.11664  1.0000
  S   S8        1.0  0.21277  0.11802  0.12878  1.0000
  H   H1        1.0  0.01868  0.12845  0.14010  1.0000
  N   N1        1.0  0.06760  0.02861  0.13220  1.0000
  S   S9        1.0  0.41525  0.26685  0.21333  1.0000
  H   H2        1.0  0.34589  0.25247  0.09034  1.0000
  H   H3        1.0  0.10826  0.22251  0.11168  1.0000
  C   C1        1.0  0.09403  0.16984  0.02794  1.0000
  H   H4        1.0  0.30920  0.26167  0.13554  1.0000
  H   H5        1.0  0.25311  0.28563  0.06649  1.0000
  C   C2        1.0  0.38453  0.17423  0.20981  1.0000
  C   C3        1.0  0.28558  0.26228  0.05578  1.0000
  C   C4        1.0  0.08741  0.16326  0.00424  1.0000
  C   C5        1.0  0.44506  0.18387  0.21292  1.0000
  H   H6        1.0  0.27886  0.29807  0.10623  1.0000
  C   C6        1.0  0.13752  0.01323  0.08917  1.0000
  C   C7        1.0  0.18566  0.22583  0.00854  1.0000
  H   H7        1.0  0.99693  0.12861  0.00394  1.0000
  H   H8        1.0  0.12138  0.18166  0.03462  1.0000
  C   C8        1.0  0.38343  0.16562  0.18656  1.0000
  N   N2        1.0  0.06643  0.16157  0.04252  1.0000
  C   C9        1.0  0.38858  0.24864  0.18779  1.0000
  C   C10       1.0  0.35113  0.23386  0.18875  1.0000
  C   C11       1.0  0.32877  0.21744  0.16921  1.0000
  C   C12       1.0  0.34367  0.21557  0.14843  1.0000
  C   C13       1.0  0.38114  0.23059  0.14741  1.0000
  C   C14       1.0  0.40349  0.24707  0.16693  1.0000
  H   H9        1.0  0.33929  0.23491  0.20479  1.0000
  H   H10       1.0  0.30003  0.20608  0.17029  1.0000
  H   H11       1.0  0.39302  0.22946  0.13141  1.0000
  H   H12       1.0  0.43222  0.25833  0.16588  1.0000
  C   C15       1.0  0.06070  0.17693  0.12484  1.0000
  C   C16       1.0  0.04714  0.14418  0.13720  1.0000
  C   C17       1.0  0.07057  0.13216  0.14627  1.0000
  C   C18       1.0  0.10739  0.15194  0.14210  1.0000
  C   C19       1.0  0.12080  0.18419  0.12926  1.0000
  C   C20       1.0  0.09762  0.19712  0.12116  1.0000
  H   H13       1.0  0.46920  0.19143  0.22332  1.0000
  H   H14       1.0  0.06007  0.10722  0.15623  1.0000
  H   H15       1.0  0.14918  0.19962  0.12601  1.0000
  C   C21       1.0  0.32606  0.26051  0.08508  1.0000
  C   C22       1.0  0.28883  0.28611  0.09391  1.0000
  C   C23       1.0  0.31160  0.25273  0.06260  1.0000
  C   C24       1.0  0.27416  0.27918  0.07148  1.0000
  C   C25       1.0  0.03187  0.04022  0.10399  1.0000
  H   H16       1.0  0.09990  0.17164  0.07284  1.0000
  H   H17       1.0  0.32000  0.23874  0.05071  1.0000
  H   H18       1.0  0.16491  0.02598  0.12226  1.0000
  Fe  Fe5       1.0  0.47583  0.28909  0.21732  1.0000
  C   C26       1.0  0.21337  0.18827  0.01699  1.0000
  N   N3        1.0  0.31474  0.27717  0.10037  1.0000
  C   C27       1.0  0.00743  0.00304  0.10304  1.0000
  H   H19       1.0  0.12363  0.06106  0.13844  1.0000
  C   C28       1.0  0.06219  0.05256  0.11860  1.0000
  C   C29       1.0  0.47559  0.17713  0.17977  1.0000
  H   H20       1.0  0.35461  0.28326  0.12589  1.0000
  H   H21       1.0  0.09572  0.05812  0.16210  1.0000
  N   N4        1.0  0.44378  0.17535  0.19011  1.0000
  H   H22       1.0  0.27358  0.25583  0.03854  1.0000
  C   C30       1.0  0.41364  0.16677  0.17684  1.0000
  H   H23       1.0  0.01012  0.14145  0.04558  1.0000
  H   H24       1.0  0.36194  0.17518  0.21729  1.0000
  H   H25       1.0  0.10308  0.02037  0.15552  1.0000
  C   C31       1.0  0.03197  0.14732  0.03408  1.0000
  H   H26       1.0  0.33329  0.31039  0.13052  1.0000
  S   S10       1.0  0.03187  0.19234  0.11304  1.0000
  C   C32       1.0  0.19761  0.20856  0.02470  1.0000
  C   C33       1.0  0.09897  0.04256  0.14787  1.0000
  C   C34       1.0  0.32867  0.28354  0.12423  1.0000
  H   H27       1.0  0.22264  0.17482  0.02931  1.0000
  H   H28       1.0  0.02728  0.05936  0.09358  1.0000
  H   H29       1.0  0.41289  0.16121  0.15858  1.0000
  H   H30       1.0  0.08134  0.08144  0.11913  1.0000
  C   C35       1.0  0.14119  0.00705  0.11261  1.0000
  C   C36       1.0  0.07394  0.16990  0.06715  1.0000
  H   H31       1.0  0.05267  0.14852  0.07779  1.0000
  C   C37       1.0  0.41556  0.18358  0.22309  1.0000
  H   H32       1.0  0.35981  0.15959  0.17592  1.0000
  H   H33       1.0  0.07502  0.19636  0.07088  1.0000
  H   H34       1.0  0.17379  0.24191  0.01438  1.0000
  H   H35       1.0  0.46221  0.31841  0.33332  1.0000
  C   C38       1.0  0.02435  0.14018  0.01049  1.0000
  H   H36       1.0  0.46931  0.16322  0.16279  1.0000
  H   H37       1.0  0.41711  0.19165  0.24095  1.0000
  C   C39       1.0  0.39632  0.42244  0.50074  1.0000
  C   C40       1.0  0.41817  0.44334  0.53945  1.0000
  H   H38       1.0  0.42527  0.40044  0.48278  1.0000
  H   H39       1.0  0.37456  0.44778  0.52264  1.0000
  H   H40       1.0  0.37863  0.41950  0.48614  1.0000
  C   C41       1.0  0.42229  0.41148  0.49890  1.0000
  C   C42       1.0  0.39407  0.43834  0.52117  1.0000
  C   C43       1.0  0.44590  0.41685  0.51753  1.0000
  H   H41       1.0  0.41706  0.45682  0.55501  1.0000
  N   N5        1.0  0.44396  0.43309  0.53734  1.0000
  H   H42       1.0  0.47601  0.46459  0.56587  1.0000
  C   C44       1.0  0.46905  0.43879  0.55668  1.0000
  H   H43       1.0  0.46672  0.40930  0.51562  1.0000
  H   H44       1.0  0.45694  0.41567  0.56898  1.0000
  H   H45       1.0  0.45300  0.49248  0.46729  1.0000
  H   H46       1.0  0.21972  0.38838  0.66922  1.0000
  Fe  Fe6       1.0  0.09972  0.19197  0.91214  1.0000
  S   S11       1.0  0.10934  0.20947  0.87510  1.0000
  S   S12       1.0  0.04707  0.16517  0.93054  1.0000
  Fe  Fe7       1.0  0.17708  0.21036  0.92177  1.0000
  S   S13       1.0  0.19384  0.22984  0.88543  1.0000
  S   S14       1.0  0.21243  0.20041  0.94746  1.0000
  Fe  Fe8       1.0  0.16026  0.25778  0.88812  1.0000
  S   S15       1.0  0.17282  0.31469  0.87547  1.0000
  Fe  Fe9       1.0  0.14206  0.18062  0.87518  1.0000
  S   S16       1.0  0.13828  0.14401  0.84615  1.0000
  S   S17       1.0  0.14779  0.24231  0.92570  1.0000
  S   S18       1.0  0.12813  0.15904  0.91093  1.0000
  Fe  Fe10      1.0  0.29311  0.46943  0.78578  1.0000
  C   C45       1.0  0.17562  0.10182  0.93480  1.0000
  S   S19       1.0  0.28416  0.41499  0.80041  1.0000
  H   H47       1.0  0.26708  0.42007  0.67241  1.0000
  C   C46       1.0  0.21774  0.18587  0.99324  1.0000
  H   H48       1.0  0.22848  0.08463  0.90100  1.0000
  N   N6        1.0  0.06082  0.02431  0.85058  1.0000
  H   H49       1.0  0.07830  0.07124  0.82889  1.0000
  H   H50       1.0  0.22649  0.13864  0.88870  1.0000
  C   C47       1.0  0.20033  0.33854  0.85193  1.0000
  C   C48       1.0  0.22746  0.33160  0.84465  1.0000
  C   C49       1.0  0.25216  0.35461  0.82828  1.0000
  C   C50       1.0  0.25003  0.38473  0.81900  1.0000
  C   C51       1.0  0.22200  0.39079  0.82551  1.0000
  C   C52       1.0  0.19732  0.36780  0.84192  1.0000
  H   H51       1.0  0.23016  0.30926  0.85222  1.0000
  H   H52       1.0  0.27362  0.34954  0.82325  1.0000
  H   H53       1.0  0.21980  0.41363  0.81837  1.0000
  H   H54       1.0  0.17632  0.37326  0.84739  1.0000
  H   H55       1.0  0.23578  0.43684  0.67189  1.0000
  H   H56       1.0  0.30946  0.47143  0.84412  1.0000
  C   C53       1.0  0.01173  0.13112  0.91421  1.0000
  C   C54       1.0  0.26448  0.40525  0.88343  1.0000
  S   S20       1.0  0.18301  0.02286  0.86723  1.0000
  C   C55       1.0  0.00992  0.13405  0.89021  1.0000
  H   H57       1.0  0.03109  0.15688  0.88138  1.0000
  C   C56       1.0  0.16928  0.05568  0.86177  1.0000
  C   C57       1.0  0.18387  0.07946  0.84315  1.0000
  C   C58       1.0  0.17433  0.10659  0.83860  1.0000
  C   C59       1.0  0.15160  0.11142  0.85335  1.0000
  C   C60       1.0  0.13768  0.08833  0.87245  1.0000
  C   C61       1.0  0.14575  0.05982  0.87630  1.0000
  H   H58       1.0  0.20219  0.07650  0.83193  1.0000
  H   H59       1.0  0.18495  0.12419  0.82374  1.0000
  H   H60       1.0  0.11972  0.09166  0.88375  1.0000
  H   H61       1.0  0.13455  0.04172  0.89083  1.0000
  H   H62       1.0  0.21463  0.44832  0.87962  1.0000
  C   C62       1.0  0.20562  0.20301  0.97707  1.0000
  N   N7        1.0  0.20020  0.10717  0.91842  1.0000
  H   H63       1.0  0.26410  0.38132  0.89120  1.0000
  H   H64       1.0  0.18468  0.41139  0.74556  1.0000
  C   C63       1.0  0.21770  0.14193  0.90596  1.0000
  H   H65       1.0  0.22346  0.39305  0.76869  1.0000
  H   H66       1.0  0.13803  0.06411  0.95914  1.0000
  H   H67       1.0  0.18016  0.23631  0.97246  1.0000
  H   H68       1.0  0.31137  0.41952  0.86347  1.0000
  C   C64       1.0  0.16576  0.04065  0.94138  1.0000
  H   H69       1.0  0.19761  0.02519  0.92077  1.0000
  C   C65       1.0  0.19170  0.04679  0.92521  1.0000
  S   S21       1.0  0.32484  0.48836  0.75334  1.0000
  H   H70       1.0  0.21558  0.39581  0.89914  1.0000
  C   C66       1.0  0.06301  0.05677  0.84384  1.0000
  C   C67       1.0  0.04173  0.00638  0.86953  1.0000
  N   N8        1.0  0.23652  0.40950  0.70302  1.0000
  C   C68       1.0  0.21030  0.41354  0.71351  1.0000
  C   C69       1.0  0.25820  0.39973  0.71566  1.0000
  C   C70       1.0  0.07783  0.00781  0.83707  1.0000
  C   C71       1.0  0.25393  0.39385  0.73947  1.0000
  C   C72       1.0  0.22701  0.39753  0.75023  1.0000
  C   C73       1.0  0.28963  0.45596  0.85691  1.0000
  H   H71       1.0  0.10940  0.16997  0.99270  1.0000
  H   H72       1.0  0.27913  0.39672  0.70741  1.0000
  H   H73       1.0  0.27148  0.38674  0.74966  1.0000
  H   H74       1.0  0.19370  0.42214  0.70359  1.0000
  N   N9        1.0  0.26283  0.46393  0.86145  1.0000
  C   C74       1.0  0.20513  0.40761  0.73724  1.0000
  C   C75       1.0  0.02479  0.02116  0.88258  1.0000
  C   C76       1.0  0.29094  0.42664  0.86788  1.0000
  C   C77       1.0  0.04699  0.07273  0.85675  1.0000
  H   H75       1.0  0.16934  0.12332  0.93873  1.0000
  C   C78       1.0  0.20908  0.08056  0.91403  1.0000
  H   H76       1.0  0.15163  0.01432  0.94986  1.0000
  H   H77       1.0  0.19887  0.15297  0.90288  1.0000
  H   H78       1.0  0.04998  0.09915  0.85183  1.0000
  C   C79       1.0  0.23719  0.41346  0.88792  1.0000
  S   S22       1.0  0.25088  0.48340  0.77294  1.0000
  H   H79       1.0  0.24111  0.16221  0.91623  1.0000
  C   C80       1.0  0.02775  0.05472  0.87623  1.0000
  H   H80       1.0  0.01521  0.06674  0.88640  1.0000
  C   C81       1.0  0.18919  0.22266  0.98478  1.0000
  H   H81       1.0  0.23053  0.17068  0.98738  1.0000
  H   H82       1.0  0.08982  0.99488  0.84860  1.0000
  H   H83       1.0  0.04682  0.14304  0.97716  1.0000
  C   C82       1.0  0.23666  0.44298  0.87663  1.0000
  C   C83       1.0  0.15790  0.06846  0.94643  1.0000
  H   H84       1.0  0.25125  0.48502  0.83079  1.0000
  H   H85       1.0  0.36019  0.47305  0.67746  1.0000
  H   H86       1.0  0.10006  0.02854  0.82667  1.0000
  C   C84       1.0  0.23989  0.41374  0.67790  1.0000
  C   C85       1.0  0.05229  0.14823  0.99551  1.0000
  H   H87       1.0  0.32015  0.47566  0.70641  1.0000
  H   H88       1.0  0.00950  0.00665  0.89751  1.0000
  C   C86       1.0  0.34409  0.48598  0.67315  1.0000
  C   C87       1.0  0.32166  0.48780  0.68971  1.0000
  H   H89       1.0  0.98493  0.09961  0.94411  1.0000
  C   C88       1.0  0.16164  0.95697  0.02584  1.0000
  H   H90       1.0  0.08599  0.86222  0.07743  1.0000
  H   H91       1.0  0.09393  0.87165  0.01529  1.0000
  N   N10       1.0  0.10812  0.89720  0.04837  1.0000
  S   S23       1.0  0.99407  0.81605  0.09380  1.0000
  C   C89       1.0  0.07785  0.86725  0.05996  1.0000
  S   S24       1.0  0.05224  0.91080  0.12491  1.0000
  H   H92       1.0  0.06680  0.84140  0.05002  1.0000
  C   C90       1.0  0.08056  0.95696  0.08752  1.0000
  H   H93       1.0  0.12747  0.92917  0.07902  1.0000
  H   H94       1.0  0.11841  0.97027  0.14131  1.0000
  Fe  Fe11      1.0  0.00228  0.87069  0.10531  1.0000
  H   H95       1.0  0.02623  0.89587  0.02808  1.0000
  H   H96       1.0  0.05597  0.87421  0.06172  1.0000
  H   H97       1.0  0.18194  0.98063  0.01697  1.0000
  C   C91       1.0  0.08455  0.95020  0.11082  1.0000
  C   C92       1.0  0.15777  0.95812  0.04957  1.0000
  H   H98       1.0  0.05764  0.93786  0.07758  1.0000
  C   C93       1.0  0.13074  0.92777  0.06063  1.0000
  C   C94       1.0  0.13890  0.92545  0.01354  1.0000
  C   C95       1.0  0.11495  0.97540  0.12332  1.0000
  C   C96       1.0  0.03230  0.88768  0.01199  1.0000
  C   C97       1.0  0.11213  0.89563  0.02516  1.0000
  C   C98       1.0  0.01769  0.85071  0.00665  1.0000
  H   H99       1.0  0.04730  0.97319  0.14271  1.0000
  H   H100      1.0  0.17498  0.98274  0.05926  1.0000
  C   C99       1.0  0.01328  0.97881  0.11690  1.0000
  S   S25       1.0  0.99051  0.81640  0.02615  1.0000
  H   H101      1.0  0.99459  0.94981  0.11627  1.0000
  S   S26       1.0  0.98795  0.88591  0.07101  1.0000
  C   C100      1.0  0.10708  0.98819  0.07669  1.0000
  H   H102      1.0  0.10426  0.99271  0.05850  1.0000
  C   C101      1.0  0.04335  0.99222  0.13175  1.0000
  Fe  Fe12      1.0  0.44791  0.87713  0.58207  1.0000
  S   S27       1.0  0.39186  0.85705  0.59429  1.0000
  S   S28       1.0  0.45141  0.56780  0.59670  1.0000
  Fe  Fe13      1.0  0.37881  0.56331  0.55442  1.0000
  S   S29       1.0  0.38098  0.57910  0.59136  1.0000
  S   S30       1.0  0.34074  0.57120  0.53026  1.0000
  Fe  Fe14      1.0  0.43983  0.61253  0.58573  1.0000
  C   C102      1.0  0.13718  0.53002  0.52679  1.0000
  Fe  Fe15      1.0  0.39200  0.53307  0.59924  1.0000
  S   S31       1.0  0.43753  0.59977  0.54816  1.0000
  Fe  Fe16      1.0  0.16953  0.66295  0.58425  1.0000
  S   S32       1.0  0.17611  0.69240  0.55042  1.0000
  S   S33       1.0  0.14826  0.67587  0.61604  1.0000
  Fe  Fe17      1.0  0.19088  0.60995  0.56455  1.0000
  S   S34       1.0  0.19804  0.63413  0.52919  1.0000
  S   S35       1.0  0.20360  0.56517  0.57435  1.0000
  Fe  Fe18      1.0  0.22611  0.68757  0.54772  1.0000
  S   S36       1.0  0.27931  0.72682  0.53282  1.0000
  Fe  Fe19      1.0  0.14711  0.63626  0.53479  1.0000
  S   S37       1.0  0.10905  0.62695  0.50406  1.0000
  S   S38       1.0  0.22212  0.66318  0.58287  1.0000
  S   S39       1.0  0.13712  0.60694  0.56878  1.0000
  C   C103      1.0  0.30338  0.57019  0.54313  1.0000
  C   C104      1.0  0.28689  0.58875  0.53253  1.0000
  C   C105      1.0  0.25702  0.58835  0.54244  1.0000
  C   C106      1.0  0.24274  0.56840  0.56261  1.0000
  C   C107      1.0  0.25913  0.54968  0.57315  1.0000
  C   C108      1.0  0.28969  0.55098  0.56362  1.0000
  H   H103      1.0  0.29747  0.60374  0.51672  1.0000
  H   H104      1.0  0.24473  0.60295  0.53421  1.0000
  H   H105      1.0  0.99634  0.60693  0.51191  1.0000
  C   C109      1.0  0.36624  0.65286  0.56665  1.0000
  C   C110      1.0  0.36073  0.81800  0.57909  1.0000
  C   C111      1.0  0.32417  0.80149  0.58405  1.0000
  C   C112      1.0  0.29891  0.77234  0.57050  1.0000
  C   C113      1.0  0.31019  0.76040  0.55164  1.0000
  C   C114      1.0  0.34675  0.77648  0.54700  1.0000
  C   C115      1.0  0.37198  0.80472  0.56095  1.0000
  H   H106      1.0  0.31531  0.81151  0.59817  1.0000
  H   H107      1.0  0.27066  0.75993  0.57420  1.0000
  H   H108      1.0  0.35565  0.76735  0.53245  1.0000
  H   H109      1.0  0.40008  0.81665  0.55729  1.0000
  H   H110      1.0  0.24816  0.53412  0.58873  1.0000
  C   C116      1.0  0.42641  0.92833  0.51752  1.0000
  C   C117      1.0  0.36462  0.86195  0.52218  1.0000
  H   H111      1.0  0.32544  0.52797  0.62841  1.0000
  C   C118      1.0  0.24024  0.73899  0.65272  1.0000
  H   H112      1.0  0.10841  0.67424  0.57388  1.0000
  C   C119      1.0  0.99091  0.54149  0.49125  1.0000
  C   C120      1.0  0.17948  0.69873  0.63873  1.0000
  C   C121      1.0  0.21612  0.71965  0.63458  1.0000
  H   H113      1.0  0.26847  0.75551  0.64929  1.0000
  H   H114      1.0  0.22583  0.72146  0.61732  1.0000
  H   H115      1.0  0.38723  0.64525  0.56729  1.0000
  N   N11       1.0  0.40825  0.91989  0.53775  1.0000
  C   C122      1.0  0.31393  0.65047  0.58342  1.0000
  C   C123      1.0  0.06411  0.59253  0.49926  1.0000
  C   C124      1.0  0.04643  0.59284  0.47846  1.0000
  S   S40       1.0  0.38454  0.51339  0.56248  1.0000
  H   H116      1.0  0.42264  0.60393  0.63842  1.0000
  C   C125      1.0  0.00887  0.54065  0.51183  1.0000
  C   C126      1.0  0.04531  0.56599  0.51584  1.0000
  H   H117      1.0  0.06079  0.61324  0.46550  1.0000
  H   H118      1.0  0.98742  0.57916  0.54913  1.0000
  H   H119      1.0  0.05855  0.56542  0.53192  1.0000
  C   C127      1.0  0.00999  0.56751  0.47447  1.0000
  Fe  Fe20      1.0  0.44386  0.55130  0.55926  1.0000
  N   N12       1.0  0.36387  0.67315  0.54865  1.0000
  C   C128      1.0  0.33779  0.68330  0.54804  1.0000
  C   C129      1.0  0.31253  0.67217  0.56540  1.0000
  C   C130      1.0  0.39002  0.68518  0.53021  1.0000
  H   H120      1.0  0.33610  0.69979  0.53395  1.0000
  H   H121      1.0  0.29171  0.67995  0.56464  1.0000
  H   H122      1.0  0.40435  0.66894  0.52999  1.0000
  H   H123      1.0  0.37635  0.68151  0.51309  1.0000
  H   H124      1.0  0.41002  0.71438  0.53267  1.0000
  C   C131      1.0  0.43973  0.83652  0.65572  1.0000
  N   N13       1.0  0.03335  0.62937  0.54047  1.0000
  C   C132      1.0  0.06693  0.65570  0.54718  1.0000
  C   C133      1.0  0.01402  0.60012  0.55449  1.0000
  C   C134      1.0  0.18830  0.53705  0.50592  1.0000
  H   H125      1.0  0.30208  0.53633  0.57180  1.0000
  H   H126      1.0  0.40777  0.96329  0.55571  1.0000
  C   C135      1.0  0.46781  0.51322  0.50202  1.0000
  C   C136      1.0  0.45829  0.87373  0.65089  1.0000
  C   C137      1.0  0.47647  0.73675  0.59660  1.0000
  N   N14       1.0  0.15161  0.56184  0.49051  1.0000
  H   H127      1.0  0.03790  0.64599  0.50525  1.0000
  H   H128      1.0  0.13895  0.68085  0.66452  1.0000
  H   H129      1.0  0.45061  0.96422  0.55621  1.0000
  C   C138      1.0  0.30127  0.51780  0.66194  1.0000
  H   H130      1.0  0.29371  0.64072  0.59657  1.0000
  H   H131      1.0  0.08243  0.67873  0.53600  1.0000
  H   H132      1.0  0.27391  0.86690  0.66450  1.0000
  C   C139      1.0  0.16621  0.52359  0.52490  1.0000
  H   H133      1.0  0.45201  0.88424  0.63522  1.0000
  C   C140      1.0  0.02856  0.59640  0.57568  1.0000
  C   C141      1.0  0.13020  0.54931  0.50931  1.0000
  C   C142      1.0  0.01731  0.63369  0.51874  1.0000
  H   H134      1.0  0.26282  0.82010  0.65901  1.0000
  H   H135      1.0  0.37445  0.84986  0.48802  1.0000
  H   H136      1.0  0.99650  0.56845  0.45857  1.0000
  H   H137      1.0  0.44745  0.52150  0.50290  1.0000
  H   H138      1.0  0.11572  0.57491  0.47132  1.0000
  C   C143      1.0  0.41465  0.90326  0.49937  1.0000
  H   H139      1.0  0.34226  0.62377  0.59799  1.0000
  H   H140      1.0  0.47035  0.68023  0.55329  1.0000
  H   H141      1.0  0.28419  0.52952  0.65739  1.0000
  H   H142      1.0  0.42976  0.90975  0.48363  1.0000
  C   C144      1.0  0.34109  0.64090  0.58418  1.0000
  C   C145      1.0  0.37730  0.88756  0.54004  1.0000
  H   H143      1.0  0.19853  0.56763  0.47442  1.0000
  C   C146      1.0  0.34587  0.50072  0.65107  1.0000
  H   H144      1.0  0.15951  0.61264  0.47754  1.0000
  C   C147      1.0  0.14478  0.58328  0.47283  1.0000
  C   C148      1.0  0.38368  0.86976  0.50183  1.0000
  H   H145      1.0  0.07448  0.62095  0.59912  1.0000
  C   C149      1.0  0.08195  0.65317  0.56844  1.0000
  H   H146      1.0  0.10794  0.55473  0.51105  1.0000
  S   S41       1.0  0.46371  0.87943  0.54530  1.0000
  S   S42       1.0  0.46520  0.66746  0.60295  1.0000
  S   S43       1.0  0.37443  0.49735  0.63103  1.0000
  C   C150      1.0  0.16724  0.69701  0.66118  1.0000
  C   C151      1.0  0.47137  0.70494  0.58578  1.0000
  H   H147      1.0  0.20051  0.78951  0.66530  1.0000
  H   H148      1.0  0.01345  0.57291  0.58661  1.0000
  H   H149      1.0  0.15329  0.57966  0.45558  1.0000
  H   H150      1.0  0.36253  0.88110  0.55591  1.0000
  C   C152      1.0  0.42110  0.94618  0.55675  1.0000
  H   H151      1.0  0.43925  0.56660  0.66405  1.0000
  H   H152      1.0  0.41560  0.93193  0.57372  1.0000
  H   H153      1.0  0.17234  0.50929  0.53858  1.0000
  C   C153      1.0  0.18073  0.55651  0.48886  1.0000
  C   C154      1.0  0.06272  0.62324  0.58270  1.0000
  H   H154      1.0  0.34047  0.83599  0.52433  1.0000
  C   C155      1.0  0.32459  0.51694  0.64551  1.0000
  H   H155      1.0  0.00500  0.65136  0.52143  1.0000
  C   C156      1.0  0.41156  0.59658  0.65553  1.0000
  H   H156      1.0  0.99430  0.52048  0.52486  1.0000
  H   H157      1.0  0.45048  0.95432  0.51544  1.0000
  H   H158      1.0  0.47541  0.73753  0.61520  1.0000
  H   H159      1.0  0.41895  0.81809  0.64379  1.0000
  H   H160      1.0  0.48407  0.73570  0.53024  1.0000
  H   H161      1.0  0.37952  0.62339  0.65164  1.0000
  C   C157      1.0  0.47354  0.70443  0.56177  1.0000
  H   H162      1.0  0.21167  0.53322  0.50481  1.0000
  H   H163      1.0  0.12078  0.52084  0.54198  1.0000
  S   S44       1.0  0.47824  0.84971  0.59553  1.0000
  C   C158      1.0  0.47104  0.49675  0.48185  1.0000
  C   C159      1.0  0.38744  0.60759  0.66300  1.0000
  C   C160      1.0  0.48149  0.73594  0.54875  1.0000
  C   C161      1.0  0.48408  0.76804  0.58358  1.0000
  Fe  Fe21      1.0  0.10065  0.92408  0.92131  1.0000
  S   S45       1.0  0.06692  0.87362  0.90027  1.0000
  S   S46       1.0  0.09762  0.93765  0.95857  1.0000
  Fe  Fe22      1.0  0.14096  0.96798  0.87944  1.0000
  S   S47       1.0  0.11116  0.92166  0.85476  1.0000
  N   N15       1.0  0.23906  0.82850  0.68870  1.0000
  Fe  Fe23      1.0  0.06278  0.91218  0.87450  1.0000
  Fe  Fe24      1.0  0.11845  0.88711  0.88217  1.0000
  S   S48       1.0  0.13687  0.84486  0.87640  1.0000
  S   S49       1.0  0.09231  0.96127  0.89685  1.0000
  S   S50       1.0  0.15242  0.93478  0.90556  1.0000
  Fe  Fe25      1.0  0.35464  0.54330  0.76979  1.0000
  S   S51       1.0  0.31705  0.56274  0.75658  1.0000
  S   S52       1.0  0.41242  0.57843  0.76082  1.0000
  Fe  Fe26      1.0  0.28693  0.53824  0.78887  1.0000
  S   S53       1.0  0.27081  0.56865  0.81344  1.0000
  C   C162      1.0  0.33479  0.70552  0.77903  1.0000
  Fe  Fe27      1.0  0.27671  0.76365  0.78261  1.0000
  S   S54       1.0  0.22373  0.73866  0.80029  1.0000
  S   S55       1.0  0.32660  0.77598  0.80345  1.0000
  Fe  Fe28      1.0  0.24283  0.75444  0.73450  1.0000
  S   S56       1.0  0.18719  0.72850  0.74809  1.0000
  S   S57       1.0  0.25881  0.76393  0.69710  1.0000
  Fe  Fe29      1.0  0.20992  0.77209  0.77551  1.0000
  S   S58       1.0  0.17769  0.80159  0.78132  1.0000
  Fe  Fe30      1.0  0.20595  0.69776  0.77167  1.0000
  S   S59       1.0  0.17479  0.63718  0.77653  1.0000
  S   S60       1.0  0.26479  0.80069  0.75999  1.0000
  S   S61       1.0  0.25963  0.72019  0.75590  1.0000
  C   C163      1.0  0.21741  0.83288  0.72570  1.0000
  C   C164      1.0  0.44805  0.82328  0.67591  1.0000
  Fe  Fe31      1.0  0.28565  0.50663  0.74176  1.0000
  H   H164      1.0  0.18181  0.71397  0.69666  1.0000
  H   H165      1.0  0.47003  0.64712  0.74597  1.0000
  C   C165      1.0  0.36712  0.80062  0.78896  1.0000
  C   C166      1.0  0.39883  0.80410  0.79916  1.0000
  C   C167      1.0  0.43141  0.82289  0.78771  1.0000
  C   C168      1.0  0.43258  0.83903  0.76623  1.0000
  C   C169      1.0  0.40088  0.83567  0.75604  1.0000
  C   C170      1.0  0.36810  0.81613  0.76726  1.0000
  H   H166      1.0  0.39815  0.79209  0.81591  1.0000
  C   C171      1.0  0.35246  0.72572  0.75959  1.0000
  H   H167      1.0  0.40164  0.84807  0.73942  1.0000
  H   H168      1.0  0.34370  0.81342  0.75926  1.0000
  C   C172      1.0  0.38948  0.73984  0.75826  1.0000
  C   C173      1.0  0.41820  0.54523  0.70719  1.0000
  C   C174      1.0  0.24515  0.58829  0.80219  1.0000
  C   C175      1.0  0.24313  0.61536  0.81495  1.0000
  C   C176      1.0  0.22280  0.63147  0.80659  1.0000
  C   C177      1.0  0.20301  0.61943  0.78589  1.0000
  C   C178      1.0  0.20470  0.59208  0.77319  1.0000
  C   C179      1.0  0.22628  0.57700  0.78111  1.0000
  H   H169      1.0  0.25720  0.62379  0.83142  1.0000
  H   H170      1.0  0.22146  0.65237  0.81655  1.0000
  H   H171      1.0  0.18941  0.58266  0.75717  1.0000
  H   H172      1.0  0.22758  0.55605  0.77118  1.0000
  C   C180      1.0  0.43219  0.62213  0.77316  1.0000
  C   C181      1.0  0.42030  0.62780  0.79415  1.0000
  C   C182      1.0  0.46074  0.65140  0.76220  1.0000
  C   C183      1.0  0.02569  0.84057  0.98560  1.0000
  C   C184      1.0  0.19150  0.71568  0.67943  1.0000
  H   H173      1.0  0.31261  0.68501  0.82131  1.0000
  H   H174      1.0  0.45571  0.82545  0.79572  1.0000
  C   C185      1.0  0.15188  0.83690  0.84992  1.0000
  C   C186      1.0  0.14398  0.84823  0.82876  1.0000
  C   C187      1.0  0.15335  0.83837  0.80795  1.0000
  C   C188      1.0  0.17110  0.81746  0.80803  1.0000
  C   C189      1.0  0.18008  0.80711  0.82919  1.0000
  C   C190      1.0  0.17018  0.81649  0.85000  1.0000
  H   H175      1.0  0.12985  0.86385  0.82842  1.0000
  H   H176      1.0  0.14624  0.84652  0.79170  1.0000
  H   H177      1.0  0.19387  0.79117  0.82953  1.0000
  H   H178      1.0  0.17659  0.80778  0.86629  1.0000
  C   C191      1.0  0.04900  0.86714  0.97022  1.0000
  C   C192      1.0  0.06462  0.90403  0.97591  1.0000
  H   H179      1.0  0.35254  0.68576  0.83238  1.0000
  H   H180      1.0  0.05575  0.85900  0.95430  1.0000
  H   H181      1.0  0.37338  0.57051  0.71664  1.0000
  H   H182      1.0  0.40377  0.75648  0.74364  1.0000
  C   C193      1.0  0.40817  0.73320  0.77614  1.0000
  H   H183      1.0  0.99175  0.87436  0.90057  1.0000
  S   S62       1.0  0.32746  0.52305  0.80356  1.0000
  C   C194      1.0  0.26870  0.84075  0.67266  1.0000
  H   H184      1.0  0.40469  0.70869  0.80928  1.0000
  C   C195      1.0  0.47735  0.68627  0.77219  1.0000
  H   H185      1.0  0.33765  0.73116  0.74599  1.0000
  H   H186      1.0  0.01434  0.81200  0.98133  1.0000
  C   C196      1.0  0.42109  0.57569  0.67021  1.0000
  H   H187      1.0  0.27201  0.86456  0.71542  1.0000
  H   H188      1.0  0.44179  0.56412  0.71793  1.0000
  H   H189      1.0  0.39841  0.60529  0.80273  1.0000
  H   H190      1.0  0.35453  0.60614  0.69107  1.0000
  C   C197      1.0  0.43773  0.66232  0.80452  1.0000
  H   H191      1.0  0.42923  0.66623  0.82115  1.0000
  C   C198      1.0  0.37355  0.59806  0.68508  1.0000
  N   N16       1.0  0.10927  0.72340  0.81531  1.0000
  C   C199      1.0  0.11105  0.70636  0.79585  1.0000
  C   C200      1.0  0.12291  0.71859  0.83594  1.0000
  C   C201      1.0  0.12651  0.68352  0.79676  1.0000
  C   C202      1.0  0.13899  0.69631  0.83739  1.0000
  C   C203      1.0  0.14047  0.67844  0.81768  1.0000
  C   C204      1.0  0.09078  0.74521  0.81419  1.0000
  H   H192      1.0  0.10071  0.71056  0.77945  1.0000
  H   H193      1.0  0.12184  0.73243  0.85134  1.0000
  H   H194      1.0  0.12802  0.67003  0.78131  1.0000
  H   H195      1.0  0.15040  0.69308  0.85365  1.0000
  H   H196      1.0  0.15300  0.66116  0.81843  1.0000
  H   H197      1.0  0.09786  0.76210  0.79823  1.0000
  H   H198      1.0  0.06134  0.72713  0.81440  1.0000
  H   H199      1.0  0.09877  0.76448  0.82894  1.0000
  C   C205      1.0  0.18317  0.80557  0.71934  1.0000
  H   H200      1.0  0.22248  0.84474  0.74284  1.0000
  N   N17       1.0  0.35357  0.70016  0.79678  1.0000
  C   C206      1.0  0.22807  0.73697  0.67521  1.0000
  C   C207      1.0  0.47493  0.84759  0.69101  1.0000
  H   H201      1.0  0.03959  0.98048  0.87467  1.0000
  H   H202      1.0  0.32272  0.64937  0.81322  1.0000
  H   H203      1.0  0.30608  0.69494  0.78015  1.0000
  N   N18       1.0  0.40714  0.56624  0.69178  1.0000
  H   H204      1.0  0.43689  0.74397  0.77541  1.0000
  C   C208      1.0  0.46620  0.69163  0.79355  1.0000
  C   C209      1.0  0.24526  0.84400  0.71011  1.0000
  H   H205      1.0  0.16162  0.79619  0.73154  1.0000
  C   C210      1.0  0.38972  0.71321  0.79538  1.0000
  C   C211      1.0  0.29995  0.50348  0.68416  1.0000
  H   H206      1.0  0.24285  0.50200  0.85690  1.0000
  H   H207      1.0  0.43382  0.79442  0.67990  1.0000
  C   C212      1.0  0.38410  0.57762  0.69943  1.0000
  C   C213      1.0  0.33445  0.67895  0.81694  1.0000
  S   S63       1.0  0.01424  0.90933  0.85613  1.0000
  H   H208      1.0  0.14123  0.92442  0.99499  1.0000
  H   H209      1.0  0.42494  0.52696  0.69729  1.0000
  S   S64       1.0  0.47336  0.86322  0.75190  1.0000
  C   C214      1.0  0.17702  0.79005  0.69743  1.0000
  H   H210      1.0  0.15069  0.76827  0.69245  1.0000
  C   C215      1.0  0.20536  0.80221  0.68214  1.0000
  H   H211      1.0  0.06795  0.94280  0.00119  1.0000
  S   S65       1.0  0.26884  0.50239  0.70409  1.0000
  C   C216      1.0  0.05585  0.91426  0.99668  1.0000
  H   H212      1.0  0.29335  0.84410  0.68192  1.0000
  H   H213      1.0  0.05757  0.98647  0.82551  1.0000
  H   H214      1.0  0.39629  0.52776  0.71900  1.0000
  H   H215      1.0  0.28792  0.51825  0.84825  1.0000
  C   C217      1.0  0.26106  0.49362  0.84879  1.0000
  H   H216      1.0  0.48119  0.83720  0.70675  1.0000
  Fe  Fe32      1.0  0.92650  0.06726  0.11657  1.0000
  S   S66       1.0  0.96836  0.09801  0.09067  1.0000
  Fe  Fe33      1.0  0.89437  0.11801  0.11327  1.0000
  S   S67       1.0  0.93380  0.15365  0.08655  1.0000
  S   S68       1.0  0.84603  0.11958  0.12829  1.0000
  Fe  Fe34      1.0  0.92472  0.10145  0.07010  1.0000
  S   S69       1.0  0.93175  0.09870  0.03168  1.0000
  H   H217      1.0  0.82285  0.01306  0.16219  1.0000
  C   C218      1.0  0.50777  0.33110  0.31223  1.0000
  S   S70       1.0  0.88163  0.06583  0.09467  1.0000
  S   S71       1.0  0.93682  0.11685  0.13660  1.0000
  Fe  Fe35      1.0  0.55097  0.34076  0.20117  1.0000
  S   S72       1.0  0.57789  0.32302  0.22800  1.0000
  S   S73       1.0  0.58230  0.38189  0.17397  1.0000
  Fe  Fe36      1.0  0.53420  0.26680  0.22019  1.0000
  S   S74       1.0  0.54445  0.21895  0.22102  1.0000
  Fe  Fe37      1.0  0.53916  0.32571  0.25230  1.0000
  S   S75       1.0  0.51013  0.28360  0.19070  1.0000
  Fe  Fe38      1.0  0.79812  0.23571  0.21593  1.0000
  S   S76       1.0  0.80078  0.24766  0.25398  1.0000
  S   S77       1.0  0.84493  0.23564  0.19772  1.0000
  Fe  Fe39      1.0  0.72796  0.23728  0.20903  1.0000
  S   S78       1.0  0.72437  0.24845  0.24609  1.0000
  S   S79       1.0  0.69072  0.24042  0.18192  1.0000
  Fe  Fe40      1.0  0.78270  0.28826  0.24412  1.0000
  S   S80       1.0  0.79646  0.33950  0.26379  1.0000
  Fe  Fe41      1.0  0.74207  0.20699  0.25360  1.0000
  S   S81       1.0  0.72223  0.16925  0.28451  1.0000
  S   S82       1.0  0.78527  0.28057  0.20629  1.0000
  S   S83       1.0  0.74052  0.19159  0.21613  1.0000
  C   C219      1.0  0.66804  0.46564  0.20691  1.0000
  C   C220      1.0  0.80923  0.37896  0.24701  1.0000
  C   C221      1.0  0.82381  0.38246  0.22522  1.0000
  C   C222      1.0  0.83393  0.41442  0.21223  1.0000
  C   C223      1.0  0.82894  0.44270  0.22083  1.0000
  C   C224      1.0  0.81406  0.43903  0.24254  1.0000
  C   C225      1.0  0.80445  0.40732  0.25565  1.0000
  H   H218      1.0  0.82792  0.36085  0.21854  1.0000
  H   H219      1.0  0.84545  0.41713  0.19545  1.0000
  H   H220      1.0  0.80995  0.46060  0.24923  1.0000
  H   H221      1.0  0.79280  0.40443  0.27237  1.0000
  C   C226      1.0  0.58601  0.22685  0.21064  1.0000
  C   C227      1.0  0.60017  0.24755  0.19070  1.0000
  C   C228      1.0  0.63219  0.25137  0.18182  1.0000
  C   C229      1.0  0.65058  0.23529  0.19317  1.0000
  C   C230      1.0  0.63683  0.21535  0.21340  1.0000
  C   C231      1.0  0.60435  0.21068  0.22190  1.0000
  H   H222      1.0  0.58596  0.25980  0.18178  1.0000
  H   H223      1.0  0.64271  0.26679  0.16614  1.0000
  H   H224      1.0  0.65062  0.20253  0.22215  1.0000
  H   H225      1.0  0.59336  0.19439  0.23723  1.0000
  C   C232      1.0  0.61938  0.42444  0.18112  1.0000
  H   H226      1.0  0.69319  0.42381  0.17869  1.0000
  C   C233      1.0  0.86394  0.04194  0.02192  1.0000
  C   C234      1.0  0.63708  0.43172  0.20277  1.0000
  H   H227      1.0  0.56565  0.26355  0.31765  1.0000
  H   H228      1.0  0.62723  0.41114  0.21615  1.0000
  C   C235      1.0  0.68126  0.19882  0.30023  1.0000
  C   C236      1.0  0.69708  0.17700  0.30530  1.0000
  C   C237      1.0  0.66876  0.34198  0.20449  1.0000
  H   H229      1.0  0.68229  0.20928  0.28303  1.0000
  S   S84       1.0  0.51512  0.34792  0.22577  1.0000
  H   H230      1.0  0.61010  0.44573  0.29462  1.0000
  H   H231      1.0  0.95317  0.09925  0.20292  1.0000
  H   H232      1.0  0.79419  0.22949  0.31627  1.0000
  S   S85       1.0  0.84041  0.48188  0.20397  1.0000
  H   H233      1.0  0.49180  0.31964  0.29666  1.0000
  C   C238      1.0  0.84700  0.15110  0.14876  1.0000
  C   C239      1.0  0.87795  0.18412  0.15334  1.0000
  C   C240      1.0  0.87695  0.20926  0.16879  1.0000
  C   C241      1.0  0.84518  0.20164  0.17994  1.0000
  C   C242      1.0  0.81452  0.16809  0.17594  1.0000
  C   C243      1.0  0.81544  0.14305  0.16035  1.0000
  H   H234      1.0  0.90247  0.19063  0.14464  1.0000
  H   H235      1.0  0.90091  0.23504  0.17188  1.0000
  H   H236      1.0  0.78994  0.16175  0.18450  1.0000
  H   H237      1.0  0.79141  0.11743  0.15706  1.0000
  C   C244      1.0  0.88214  0.11271  0.18991  1.0000
  N   N19       1.0  0.70187  0.34731  0.21155  1.0000
  H   H238      1.0  0.53457  0.43818  0.27195  1.0000
  C   C245      1.0  0.73194  0.37940  0.20683  1.0000
  H   H239      1.0  0.64486  0.31655  0.20814  1.0000
  C   C246      1.0  0.72936  0.40756  0.19517  1.0000
  C   C247      1.0  0.66357  0.20681  0.31740  1.0000
  C   C248      1.0  0.70569  0.31811  0.22330  1.0000
  C   C249      1.0  0.66221  0.48523  0.16831  1.0000
  H   H240      1.0  0.75811  0.38328  0.21205  1.0000
  C   C250      1.0  0.82753  0.45236  0.32633  1.0000
  H   H241      1.0  0.75335  0.43316  0.19177  1.0000
  C   C251      1.0  0.82917  0.46653  0.30412  1.0000
  H   H242      1.0  0.71615  0.30549  0.21112  1.0000
  H   H243      1.0  0.72463  0.32900  0.23835  1.0000
  H   H244      1.0  0.67965  0.29633  0.22971  1.0000
  C   C252      1.0  0.66520  0.36929  0.19246  1.0000
  H   H245      1.0  0.77412  0.26870  0.29562  1.0000
  C   C253      1.0  0.54512  0.34727  0.31168  1.0000
  N   N20       1.0  0.79286  0.23123  0.14398  1.0000
  C   C254      1.0  0.76072  0.22628  0.15163  1.0000
  C   C255      1.0  0.79473  0.20379  0.13267  1.0000
  C   C256      1.0  0.72963  0.19267  0.14894  1.0000
  C   C257      1.0  0.76413  0.16985  0.12959  1.0000
  C   C258      1.0  0.73146  0.16424  0.13796  1.0000
  C   C259      1.0  0.82515  0.26667  0.14692  1.0000
  H   H246      1.0  0.75888  0.24826  0.16000  1.0000
  H   H247      1.0  0.82020  0.20762  0.12661  1.0000
  H   H248      1.0  0.70436  0.18878  0.15546  1.0000
  H   H249      1.0  0.76606  0.14789  0.12121  1.0000
  H   H250      1.0  0.70761  0.13792  0.13600  1.0000
  H   H251      1.0  0.84966  0.26356  0.14813  1.0000
  H   H252      1.0  0.82737  0.28490  0.13226  1.0000
  H   H253      1.0  0.82461  0.27965  0.16337  1.0000
  N   N21       1.0  0.87318  0.05603  0.17428  1.0000
  C   C260      1.0  0.86142  0.08080  0.17727  1.0000
  C   C261      1.0  0.92711  0.09401  0.19613  1.0000
  H   H254      1.0  0.81038  0.00075  0.01213  1.0000
  C   C262      1.0  0.69570  0.40233  0.18788  1.0000
  C   C263      1.0  0.54173  0.41826  0.27996  1.0000
  H   H255      1.0  0.87288  0.13251  0.19194  1.0000
  H   H256      1.0  0.93189  0.14438  0.20872  1.0000
  S   S86       1.0  0.49698  0.26773  0.24645  1.0000
  C   C264      1.0  0.85202  0.02395  0.15977  1.0000
  H   H257      1.0  0.85807  0.03149  0.14135  1.0000
  H   H258      1.0  0.65171  0.22399  0.31330  1.0000
  H   H259      1.0  0.71250  0.29735  0.32031  1.0000
  S   S87       1.0  0.92541  0.02020  0.13632  1.0000
  C   C265      1.0  0.91524  0.11935  0.19931  1.0000
  C   C266      1.0  0.86248  0.48843  0.29444  1.0000
  H   H260      1.0  0.85619  0.04725  0.03843  1.0000
  C   C267      1.0  0.69390  0.16214  0.32756  1.0000
  H   H261      1.0  0.91553  0.04327  0.18048  1.0000
  C   C268      1.0  0.56557  0.36181  0.33197  1.0000
  S   S88       1.0  0.56763  0.35196  0.28592  1.0000
  C   C269      1.0  0.49111  0.33050  0.33296  1.0000
  H   H262      1.0  0.70574  0.14490  0.33156  1.0000
  C   C270      1.0  0.63230  0.45123  0.16395  1.0000
  H   H263      1.0  0.61882  0.44580  0.14722  1.0000
  H   H264      1.0  0.80477  0.46130  0.29469  1.0000
  C   C271      1.0  0.59218  0.44402  0.30808  1.0000
  C   C272      1.0  0.89946  0.06216  0.01505  1.0000
  H   H265      1.0  0.63889  0.36485  0.18678  1.0000
  N   N22       1.0  0.55620  0.42972  0.30345  1.0000
  Fe  Fe42      1.0  0.97499  0.14767  0.10856  1.0000
  C   C273      1.0  0.90563  0.06231  0.18346  1.0000
  H   H266      1.0  0.72574  0.28564  0.29416  1.0000
  C   C274      1.0  0.73534  0.29700  0.31176  1.0000
  H   H267      1.0  0.83620  0.07637  0.16942  1.0000
  N   N23       1.0  0.74788  0.27476  0.32464  1.0000
  H   H268      1.0  0.85850  0.00172  0.16382  1.0000
  H   H269      1.0  0.68174  0.47129  0.22356  1.0000
  H   H270      1.0  0.48727  0.16381  0.19124  1.0000
  C   C275      1.0  0.53348  0.42666  0.32059  1.0000
  H   H271      1.0  0.50488  0.41465  0.31705  1.0000
  H   H272      1.0  0.56128  0.41577  0.26882  1.0000
  C   C276      1.0  0.76800  0.26248  0.31370  1.0000
  H   H273      1.0  0.90357  0.00345  0.08830  1.0000
  H   H274      1.0  0.51758  0.39088  0.28023  1.0000
  H   H275      1.0  0.75771  0.32527  0.31002  1.0000
  C   C277      1.0  0.77982  0.24067  0.32539  1.0000
  C   C278      1.0  0.56039  0.25679  0.33579  1.0000
  C   C279      1.0  0.83802  0.01572  0.00696  1.0000
  H   H276      1.0  0.59449  0.37419  0.33164  1.0000
  C   C280      1.0  0.60619  0.45550  0.33042  1.0000
  H   H277      1.0  0.49633  0.20605  0.17745  1.0000
  H   H278      1.0  0.63456  0.46605  0.33422  1.0000
  C   C281      1.0  0.89109  0.48219  0.32945  1.0000
  C   C282      1.0  0.68042  0.49255  0.18964  1.0000
  H   H279      1.0  0.80152  0.43560  0.33378  1.0000
  Fe  Fe43      1.0  0.85075  0.43980  0.42682  1.0000
  S   S89       1.0  0.82574  0.38476  0.40970  1.0000
  Fe  Fe44      1.0  0.59811  0.44498  0.42086  1.0000
  S   S90       1.0  0.58541  0.44395  0.45833  1.0000
  S   S91       1.0  0.82788  0.47389  0.41214  1.0000
  Fe  Fe45      1.0  0.52529  0.38123  0.40814  1.0000
  Fe  Fe46      1.0  0.53107  0.43499  0.44564  1.0000
  Fe  Fe47      1.0  0.56145  0.38317  0.45441  1.0000
  S   S92       1.0  0.57771  0.35111  0.47871  1.0000
  S   S93       1.0  0.54631  0.44156  0.40818  1.0000
  S   S94       1.0  0.57804  0.38507  0.41802  1.0000
  Fe  Fe48      1.0  0.66425  0.21342  0.44673  1.0000
  S   S95       1.0  0.63517  0.23055  0.42116  1.0000
  S   S96       1.0  0.71063  0.25406  0.46821  1.0000
  Fe  Fe49      1.0  0.61551  0.13299  0.43864  1.0000
  S   S97       1.0  0.58202  0.14305  0.41160  1.0000
  S   S98       1.0  0.61031  0.07838  0.45019  1.0000
  Fe  Fe50      1.0  0.63421  0.18739  0.39822  1.0000
  S   S99       1.0  0.64218  0.20727  0.36114  1.0000
  Fe  Fe51      1.0  0.58550  0.18571  0.43609  1.0000
  S   S100      1.0  0.53852  0.19554  0.43989  1.0000
  S   S101      1.0  0.66788  0.17391  0.42284  1.0000
  S   S102      1.0  0.61450  0.17216  0.46415  1.0000
  C   C283      1.0  0.58304  0.05181  0.47313  1.0000
  S   S103      1.0  0.49605  0.45990  0.45590  1.0000
  C   C284      1.0  0.67621  0.17022  0.34485  1.0000
  H   H280      1.0  0.72419  0.34833  0.43017  1.0000
  C   C285      1.0  0.54229  0.04199  0.50431  1.0000
  C   C286      1.0  0.56194  0.06265  0.48532  1.0000
  C   C287      1.0  0.51067  0.27161  0.38305  1.0000
  C   C288      1.0  0.56432  0.99925  0.49908  1.0000
  H   H281      1.0  0.56098  0.08711  0.48023  1.0000
  C   C289      1.0  0.64479  0.15846  0.52540  1.0000
  C   C290      1.0  0.67673  0.35190  0.43765  1.0000
  H   H282      1.0  0.71134  0.46905  0.39219  1.0000
  H   H283      1.0  0.74474  0.23866  0.37768  1.0000
  H   H284      1.0  0.67450  0.15928  0.36207  1.0000
  C   C291      1.0  0.71305  0.36212  0.44001  1.0000
  C   C292      1.0  0.69071  0.49132  0.44356  1.0000
  C   C293      1.0  0.56686  0.30796  0.46781  1.0000
  C   C294      1.0  0.58948  0.29299  0.47279  1.0000
  C   C295      1.0  0.58144  0.25883  0.46384  1.0000
  C   C296      1.0  0.54987  0.23882  0.45079  1.0000
  C   C297      1.0  0.52697  0.25353  0.44618  1.0000
  C   C298      1.0  0.53589  0.28842  0.45416  1.0000
  H   H285      1.0  0.61335  0.30788  0.48347  1.0000
  H   H286      1.0  0.59911  0.24752  0.46759  1.0000
  H   H287      1.0  0.50219  0.23781  0.43652  1.0000
  H   H288      1.0  0.51817  0.29969  0.45044  1.0000
  N   N24       1.0  0.68434  0.39687  0.46569  1.0000
  C   C299      1.0  0.79417  0.34844  0.42615  1.0000
  C   C300      1.0  0.76831  0.31679  0.41498  1.0000
  C   C301      1.0  0.74231  0.28782  0.42778  1.0000
  C   C302      1.0  0.74261  0.29015  0.45185  1.0000
  C   C303      1.0  0.76867  0.32162  0.46301  1.0000
  C   C304      1.0  0.79427  0.35083  0.45017  1.0000
  H   H289      1.0  0.76823  0.31484  0.39640  1.0000
  H   H290      1.0  0.72229  0.26355  0.41908  1.0000
  H   H291      1.0  0.76907  0.32343  0.48162  1.0000
  H   H292      1.0  0.81448  0.37488  0.45893  1.0000
  S   S104      1.0  0.65088  0.47844  0.40340  1.0000
  C   C305      1.0  0.74827  0.49219  0.44638  1.0000
  C   C306      1.0  0.62630  0.12198  0.53218  1.0000
  H   H293      1.0  0.68618  0.13459  0.46222  1.0000
  S   S105      1.0  0.49040  0.34639  0.37854  1.0000
  C   C307      1.0  0.73491  0.38996  0.45526  1.0000
  S   S106      1.0  0.50623  0.37370  0.44459  1.0000
  C   C308      1.0  0.51993  0.49062  0.49949  1.0000
  C   C309      1.0  0.54346  0.01030  0.51137  1.0000
  C   C310      1.0  0.71994  0.40687  0.46824  1.0000
  C   C311      1.0  0.71392  0.47650  0.41021  1.0000
  N   N25       1.0  0.53225  0.25920  0.37059  1.0000
  H   H294      1.0  0.61773  0.06774  0.52592  1.0000
  H   H295      1.0  0.60702  0.11349  0.54586  1.0000
  H   H296      1.0  0.87495  0.46735  0.37399  1.0000
  H   H297      1.0  0.54183  0.23431  0.40030  1.0000
  C   C312      1.0  0.74016  0.26704  0.34747  1.0000
  C   C313      1.0  0.58399  0.01993  0.48006  1.0000
  H   H298      1.0  0.59116  0.22819  0.33839  1.0000
  C   C314      1.0  0.66141  0.19300  0.33983  1.0000
  H   H299      1.0  0.77987  0.21455  0.35768  1.0000
  C   C315      1.0  0.77163  0.23219  0.34858  1.0000
  H   H300      1.0  0.68304  0.19703  0.50212  1.0000
  H   H301      1.0  0.52625  0.05081  0.51367  1.0000
  H   H302      1.0  0.56506  0.37321  0.36802  1.0000
  H   H303      1.0  0.64019  0.17871  0.53382  1.0000
  H   H304      1.0  0.72379  0.27629  0.35614  1.0000
  C   C316      1.0  0.68710  0.48143  0.42034  1.0000
  H   H305      1.0  0.63460  0.36195  0.44862  1.0000
  C   C317      1.0  0.66283  0.36992  0.45056  1.0000
  H   H306      1.0  0.70619  0.18149  0.47049  1.0000
  H   H307      1.0  0.65934  0.32992  0.42611  1.0000
  H   H308      1.0  0.68910  0.43894  0.48843  1.0000
  C   C318      1.0  0.51173  0.34616  0.35308  1.0000
  C   C319      1.0  0.54677  0.24054  0.38216  1.0000
  H   H309      1.0  0.49474  0.44156  0.55054  1.0000
  C   C320      1.0  0.56793  0.22895  0.37072  1.0000
  C   C321      1.0  0.85650  0.44554  0.36196  1.0000
  H   H310      1.0  0.73707  0.42815  0.48029  1.0000
  H   H311      1.0  0.65028  0.42031  0.46954  1.0000
  C   C322      1.0  0.63236  0.09628  0.52103  1.0000
  C   C323      1.0  0.57475  0.23712  0.34738  1.0000
  C   C324      1.0  0.66843  0.41346  0.48011  1.0000
  H   H312      1.0  0.76320  0.39818  0.45720  1.0000
  C   C325      1.0  0.49659  0.48470  0.48062  1.0000
  S   S107      1.0  0.90813  0.48220  0.42184  1.0000
  H   H313      1.0  0.72365  0.15327  0.48271  1.0000
  H   H314      1.0  0.65975  0.08692  0.49364  1.0000
  S   S108      1.0  0.84937  0.45602  0.46329  1.0000
  H   H315      1.0  0.65246  0.39399  0.49381  1.0000
  C   C326      1.0  0.69879  0.15368  0.47697  1.0000
  C   C327      1.0  0.75192  0.24567  0.35979  1.0000
  H   H316      1.0  0.60023  0.01131  0.47073  1.0000
  N   N26       1.0  0.67385  0.14301  0.49605  1.0000
  C   C328      1.0  0.66892  0.16863  0.50735  1.0000
  C   C329      1.0  0.65625  0.10731  0.50283  1.0000
  H   H317      1.0  0.59367  0.46056  0.36548  1.0000
  H   H318      1.0  0.49508  0.25193  0.39675  1.0000
  C   C330      1.0  0.54896  0.36130  0.35260  1.0000
  C   C331      1.0  0.53909  0.26769  0.34775  1.0000
  H   H319      1.0  0.57897  0.21367  0.37992  1.0000
  H   H320      1.0  0.49090  0.27425  0.37135  1.0000
  H   H321      1.0  0.91543  0.48915  0.33950  1.0000
  H   H322      1.0  0.82918  0.43374  0.36907  1.0000
  H   H323      1.0  0.76466  0.47761  0.41528  1.0000
  H   H324      1.0  0.52830  0.29856  0.39113  1.0000
  H   H325      1.0  0.86420  0.42371  0.36181  1.0000
  C   C332      1.0  0.58319  0.45241  0.34799  1.0000
  C   C333      1.0  0.74425  0.48145  0.42327  1.0000
  N   N27       1.0  0.85829  0.46048  0.33873  1.0000
  H   H326      1.0  0.53987  0.48173  0.49873  1.0000
  H   H327      1.0  0.52793  0.28281  0.33864  1.0000
  H   H328      1.0  0.52824  0.43429  0.35676  1.0000
  C   C334      1.0  0.54658  0.43790  0.34309  1.0000
  H   H329      1.0  0.93240  0.05406  0.92194  1.0000
  N   N28       1.0  0.89374  0.10417  0.93615  1.0000
  C   C335      1.0  0.95412  0.07569  0.91292  1.0000
  C   C336      1.0  0.92239  0.12906  0.92399  1.0000
  C   C337      1.0  0.97988  0.10822  0.87765  1.0000
  S   S109      1.0  0.91375  0.04821  0.87284  1.0000
  C   C338      1.0  0.92139  0.13613  0.97139  1.0000
  H   H330      1.0  0.92075  0.13824  0.99002  1.0000
  C   C339      1.0  0.95138  0.16073  0.95925  1.0000
  C   C340      1.0  0.95187  0.07895  0.88895  1.0000
  H   H331      1.0  0.92324  0.12627  0.90545  1.0000
  C   C341      1.0  0.90915  0.05517  0.99355  1.0000
  H   H332      1.0  0.97436  0.18219  0.96832  1.0000
  C   C342      1.0  0.88332  0.02885  0.97871  1.0000
  H   H333      1.0  0.89102  0.02469  0.96199  1.0000
  C   C343      1.0  0.86375  0.07380  0.92406  1.0000
  H   H334      1.0  0.97822  0.11110  0.85913  1.0000
  C   C344      1.0  0.95178  0.15749  0.93537  1.0000
  H   H335      1.0  0.84364  0.08195  0.91813  1.0000
  C   C345      1.0  0.89245  0.10807  0.95944  1.0000
  H   H336      1.0  0.86937  0.08881  0.96905  1.0000
  H   H337      1.0  0.87319  0.06523  0.90883  1.0000
  H   H338      1.0  0.85048  0.04948  0.93547  1.0000
  H   H339      1.0  0.93657  0.07077  0.98809  1.0000
  H   H340      1.0  0.97520  0.17618  0.92579  1.0000
  C   C346      1.0  0.84752  0.00936  0.98520  1.0000
  C   C347      1.0  0.98387  0.10180  0.92552  1.0000
  Fe  Fe52      1.0  0.87371  0.99639  0.89010  1.0000
  H   H341      1.0  0.86644  0.57373  0.29955  1.0000
  Fe  Fe53      1.0  0.93227  0.85944  0.08430  1.0000
  S   S110      1.0  0.89967  0.88678  0.07401  1.0000
  H   H342      1.0  0.76472  0.61268  0.20247  1.0000
  S   S111      1.0  0.91845  0.80448  0.07049  1.0000
  Fe  Fe54      1.0  0.76536  0.54243  0.21458  1.0000
  S   S112      1.0  0.81538  0.55876  0.19479  1.0000
  S   S113      1.0  0.71721  0.53639  0.19412  1.0000
  Fe  Fe55      1.0  0.80215  0.54565  0.26082  1.0000
  S   S114      1.0  0.85544  0.56274  0.24500  1.0000
  S   S115      1.0  0.78809  0.53277  0.29834  1.0000
  Fe  Fe56      1.0  0.84316  0.60015  0.22258  1.0000
  S   S116      1.0  0.88468  0.65904  0.21564  1.0000
  H   H343      1.0  0.90202  0.58760  0.13588  1.0000
  S   S117      1.0  0.79252  0.58673  0.24097  1.0000
  C   C348      1.0  0.82086  0.72362  0.14313  1.0000
  C   C349      1.0  0.90875  0.57621  0.19349  1.0000
  C   C350      1.0  0.88239  0.56322  0.33336  1.0000
  H   H344      1.0  0.93557  0.62021  0.21783  1.0000
  H   H345      1.0  0.74138  0.60456  0.16227  1.0000
  H   H346      1.0  0.98383  0.99301  0.09177  1.0000
  C   C351      1.0  0.82068  0.53772  0.31937  1.0000
  H   H347      1.0  0.88292  0.53868  0.16549  1.0000
  H   H348      1.0  0.90048  0.55494  0.20648  1.0000
  C   C352      1.0  0.77835  0.66021  0.15242  1.0000
  C   C353      1.0  0.89765  0.71548  0.14518  1.0000
  C   C354      1.0  0.91805  0.73502  0.16440  1.0000
  C   C355      1.0  0.91380  0.71736  0.18589  1.0000
  C   C356      1.0  0.88908  0.68015  0.18836  1.0000
  C   C357      1.0  0.86880  0.66061  0.16910  1.0000
  C   C358      1.0  0.87300  0.67825  0.14766  1.0000
  H   H349      1.0  0.93706  0.76372  0.16272  1.0000
  H   H350      1.0  0.92966  0.73269  0.20071  1.0000
  H   H351      1.0  0.84967  0.63200  0.17073  1.0000
  S   S118      1.0  0.90111  0.73595  0.11780  1.0000
  H   H352      1.0  0.84792  0.74524  0.14885  1.0000
  C   C359      1.0  0.77634  0.63530  0.19046  1.0000
  C   C360      1.0  0.90165  0.95189  0.08205  1.0000
  C   C361      1.0  0.90712  0.92387  0.09140  1.0000
  C   C362      1.0  0.91828  0.92569  0.11449  1.0000
  C   C363      1.0  0.92356  0.95523  0.12824  1.0000
  H   H353      1.0  0.76800  0.65654  0.13479  1.0000
  H   H354      1.0  0.89288  0.95055  0.06422  1.0000
  H   H355      1.0  0.92212  0.90397  0.12189  1.0000
  C   C364      1.0  0.85737  0.55946  0.31575  1.0000
  H   H356      1.0  0.93180  0.95633  0.14617  1.0000
  C   C365      1.0  0.90768  0.98184  0.09567  1.0000
  C   C366      1.0  0.81892  0.69774  0.18176  1.0000
  C   C367      1.0  0.94148  0.65920  0.14242  1.0000
  C   C368      1.0  0.80449  0.66886  0.19753  1.0000
  C   C369      1.0  0.76317  0.63081  0.16779  1.0000
  C   C370      1.0  0.91836  0.98338  0.11884  1.0000
  S   S119      1.0  0.94690  0.84795  0.11983  1.0000
  H   H357      1.0  0.88207  0.89404  0.02361  1.0000
  H   H358      1.0  0.85702  0.66296  0.13287  1.0000
  N   N29       1.0  0.80600  0.69306  0.15946  1.0000
  H   H359      1.0  0.84116  0.72358  0.18732  1.0000
  H   H360      1.0  0.80284  0.73577  0.14119  1.0000
  Fe  Fe57      1.0  0.82298  0.52011  0.21850  1.0000
  H   H361      1.0  0.82439  0.71441  0.12597  1.0000
  Fe  Fe58      1.0  0.93718  0.79421  0.10520  1.0000
  C   C371      1.0  0.90968  0.59487  0.15382  1.0000
  C   C372      1.0  0.92879  0.61274  0.19981  1.0000
  H   H362      1.0  0.67139  0.50587  0.15496  1.0000
  H   H363      1.0  0.95429  0.66812  0.18801  1.0000
  N   N30       1.0  0.92940  0.63067  0.16018  1.0000
  C   C373      1.0  0.90007  0.89223  0.01145  1.0000
  H   H364      1.0  0.81556  0.67225  0.21499  1.0000
  Fe  Fe59      1.0  0.97583  0.83010  0.06031  1.0000
  H   H365      1.0  0.86406  0.49978  0.27729  1.0000
  C   C374      1.0  0.89897  0.56712  0.17039  1.0000
  H   H366      1.0  0.90935  0.85507  0.03314  1.0000
  C   C375      1.0  0.93918  0.63977  0.18282  1.0000
  H   H367      1.0  0.91996  0.65313  0.12916  1.0000
  H   H368      1.0  0.94838  0.68618  0.14987  1.0000
  C   C376      1.0  0.91558  0.87024  0.01706  1.0000
  C   C377      1.0  0.89370  0.49637  0.30714  1.0000
  S   S120      1.0  0.77041  0.50006  0.23575  1.0000
  H   H369      1.0  0.95109  0.85078  0.00600  1.0000
  H   H370      1.0  0.91075  0.58029  0.33058  1.0000
  H   H371      1.0  0.91974  0.51393  0.29995  1.0000
  H   H372      1.0  0.96550  0.66147  0.13393  1.0000
  C   C378      1.0  0.57052  0.75816  0.63071  1.0000
  C   C379      1.0  0.74358  0.56259  0.39222  1.0000
  H   H373      1.0  0.71742  0.55438  0.39931  1.0000
  Fe  Fe60      1.0  0.49785  0.85574  0.55953  1.0000
  H   H374      1.0  0.84866  0.60607  0.42056  1.0000
  H   H375      1.0  0.72652  0.56417  0.35708  1.0000
  Fe  Fe61      1.0  0.88471  0.51760  0.40944  1.0000
  S   S121      1.0  0.90277  0.55034  0.37634  1.0000
  S   S122      1.0  0.51910  0.98645  0.53599  1.0000
  S   S123      1.0  0.88720  0.54098  0.44462  1.0000
  Fe  Fe62      1.0  0.51052  0.93421  0.55429  1.0000
  H   H376      1.0  0.60051  0.84887  0.63597  1.0000
  H   H377      1.0  0.82468  0.50997  0.37421  1.0000
  C   C380      1.0  0.56530  0.78489  0.59463  1.0000
  C   C381      1.0  0.48671  0.76789  0.55959  1.0000
  Fe  Fe63      1.0  0.90573  0.50161  0.45751  1.0000
  Fe  Fe64      1.0  0.52432  0.90557  0.60056  1.0000
  S   S124      1.0  0.55921  0.92220  0.63285  1.0000
  H   H378      1.0  0.55719  0.78157  0.57651  1.0000
  S   S125      1.0  0.54661  0.91081  0.56517  1.0000
  H   H379      1.0  0.56073  0.84072  0.57759  1.0000
  C   C382      1.0  0.58130  0.84947  0.59181  1.0000
  H   H380      1.0  0.57682  0.86829  0.60291  1.0000
  H   H381      1.0  0.51831  0.79729  0.66164  1.0000
  H   H382      1.0  0.83652  0.59061  0.36763  1.0000
  C   C383      1.0  0.58541  0.79246  0.64096  1.0000
  C   C384      1.0  0.55864  0.88896  0.65207  1.0000
  C   C385      1.0  0.53538  0.85172  0.64872  1.0000
  N   N31       1.0  0.80469  0.57538  0.39773  1.0000
  H   H383      1.0  0.51716  0.84255  0.63401  1.0000
  H   H384      1.0  0.78081  0.50313  0.34349  1.0000
  C   C386      1.0  0.87085  0.54508  0.35453  1.0000
  C   C387      1.0  0.74868  0.56808  0.36853  1.0000
  C   C388      1.0  0.81040  0.58257  0.37468  1.0000
  C   C389      1.0  0.51697  0.50747  0.51957  1.0000
  N   N32       1.0  0.57827  0.81808  0.60510  1.0000
  H   H385      1.0  0.82337  0.55809  0.42738  1.0000
  C   C390      1.0  0.58943  0.82239  0.62775  1.0000
  C   C391      1.0  0.83392  0.57830  0.41307  1.0000
  H   H386      1.0  0.67036  0.49569  0.45141  1.0000
  H   H387      1.0  0.59296  0.79575  0.65919  1.0000
  C   C392      1.0  0.49043  0.51814  0.52114  1.0000
  C   C393      1.0  0.77213  0.56660  0.40669  1.0000
  H   H388      1.0  0.54886  0.72769  0.59923  1.0000
  H   H389      1.0  0.76777  0.56173  0.42506  1.0000
  S   S126      1.0  0.49205  0.93300  0.59052  1.0000
  C   C394      1.0  0.56079  0.75435  0.60733  1.0000
  S   S127      1.0  0.78678  0.50092  0.46311  1.0000
  S   S128      1.0  0.94436  0.51093  0.48811  1.0000
  C   C395      1.0  0.78237  0.57846  0.35967  1.0000
  H   H390      1.0  0.85308  0.57255  0.40369  1.0000
  H   H391      1.0  0.49997  0.92604  0.66219  1.0000
  H   H392      1.0  0.60830  0.86460  0.58430  1.0000
  C   C396      1.0  0.83414  0.52337  0.35798  1.0000
  S   S129      1.0  0.48480  0.53442  0.54798  1.0000
  H   H393      1.0  0.53487  0.51156  0.53418  1.0000
  H   H394      1.0  0.56631  0.73454  0.64091  1.0000
  C   C397      1.0  0.80920  0.51977  0.34052  1.0000
  H   H395      1.0  0.72450  0.50582  0.47423  1.0000
  C   C398      1.0  0.48517  0.89723  0.66629  1.0000
  C   C399      1.0  0.53597  0.82609  0.66444  1.0000
  H   H396      1.0  0.48951  0.79255  0.59236  1.0000
  C   C400      1.0  0.72142  0.49713  0.45644  1.0000
  H   H397      1.0  0.56549  0.97494  0.50430  1.0000
  H   H398      1.0  0.78664  0.58261  0.34122  1.0000
  S   S130      1.0  0.49879  0.80767  0.54297  1.0000
  Fe  Fe65      1.0  0.83136  0.49405  0.44789  1.0000
  H   H399      1.0  0.93756  0.92488  0.96020  1.0000
  Fe  Fe66      1.0  0.86403  0.92536  0.91040  1.0000
  S   S131      1.0  0.89072  0.89226  0.92103  1.0000
  H   H400      1.0  0.86703  0.92679  0.99572  1.0000
  S   S132      1.0  0.80754  0.90751  0.92025  1.0000
  Fe  Fe67      1.0  0.58568  0.85816  0.78480  1.0000
  S   S133      1.0  0.57730  0.80359  0.77288  1.0000
  S   S134      1.0  0.63103  0.90014  0.80756  1.0000
  Fe  Fe68      1.0  0.51386  0.84579  0.76287  1.0000
  C   C401      1.0  0.60237  0.79953  0.85293  1.0000
  Fe  Fe69      1.0  0.52064  0.78268  0.78432  1.0000
  H   H401      1.0  0.88112  0.92919  0.96671  1.0000
  Fe  Fe70      1.0  0.55743  0.81714  0.73943  1.0000
  S   S135      1.0  0.56230  0.80543  0.70225  1.0000
  S   S136      1.0  0.52995  0.83626  0.79823  1.0000
  S   S137      1.0  0.57019  0.87323  0.75036  1.0000
  C   C402      1.0  0.58243  0.87481  0.68710  1.0000
  H   H402      1.0  0.54218  0.93284  0.69316  1.0000
  H   H403      1.0  0.78589  0.80212  0.88596  1.0000
  H   H404      1.0  0.60112  0.88391  0.70167  1.0000
  H   H405      1.0  0.81667  0.83940  0.90433  1.0000
  S   S138      1.0  0.85675  0.94157  0.87452  1.0000
  S   S139      1.0  0.81728  0.98390  0.89749  1.0000
  H   H406      1.0  0.51988  0.79057  0.84161  1.0000
  C   C403      1.0  0.72314  0.89145  0.84542  1.0000
  C   C404      1.0  0.71943  0.92265  0.84742  1.0000
  C   C405      1.0  0.69180  0.92531  0.83506  1.0000
  C   C406      1.0  0.66749  0.89682  0.82069  1.0000
  C   C407      1.0  0.67162  0.86591  0.81832  1.0000
  C   C408      1.0  0.69926  0.86323  0.83069  1.0000
  H   H407      1.0  0.73767  0.94462  0.85860  1.0000
  H   H408      1.0  0.68899  0.94946  0.83685  1.0000
  H   H409      1.0  0.65320  0.84386  0.80725  1.0000
  H   H410      1.0  0.53374  0.89555  0.71202  1.0000
  C   C409      1.0  0.96173  0.92415  0.86947  1.0000
  C   C410      1.0  0.93500  0.92147  0.88417  1.0000
  C   C411      1.0  0.92756  0.90041  0.90425  1.0000
  C   C412      1.0  0.94833  0.88377  0.91027  1.0000
  H   H411      1.0  0.60466  0.89553  0.88490  1.0000
  H   H412      1.0  0.55146  0.85444  0.85526  1.0000
  H   H413      1.0  0.91944  0.93472  0.87950  1.0000
  H   H414      1.0  0.94269  0.86739  0.92577  1.0000
  C   C413      1.0  0.52068  0.90920  0.70227  1.0000
  N   N33       1.0  0.60096  0.85456  0.86213  1.0000
  C   C414      1.0  0.61922  0.83526  0.86136  1.0000
  H   H415      1.0  0.49936  0.70875  0.76366  1.0000
  C   C415      1.0  0.56573  0.83890  0.85513  1.0000
  H   H416      1.0  0.96611  0.88675  0.96958  1.0000
  H   H417      1.0  0.55295  0.75582  0.83889  1.0000
  H   H418      1.0  0.96654  0.93941  0.85353  1.0000
  H   H419      1.0  0.64731  0.84778  0.86661  1.0000
  N   N34       1.0  0.90743  0.91095  0.99100  1.0000
  H   H420      1.0  0.61729  0.78479  0.85160  1.0000
  H   H421      1.0  0.70199  0.83904  0.82894  1.0000
  C   C416      1.0  0.54781  0.80292  0.84722  1.0000
  C   C417      1.0  0.56641  0.78333  0.84580  1.0000
  C   C418      1.0  0.61897  0.89244  0.87013  1.0000
  S   S140      1.0  0.81382  0.97849  0.96612  1.0000
  N   N35       1.0  0.83182  0.84271  0.86938  1.0000
  C   C419      1.0  0.82918  0.85867  0.84918  1.0000
  C   C420      1.0  0.85966  0.83557  0.87325  1.0000
  C   C421      1.0  0.85562  0.86919  0.83258  1.0000
  C   C422      1.0  0.88630  0.84526  0.85690  1.0000
  C   C423      1.0  0.88442  0.86253  0.83656  1.0000
  H   H422      1.0  0.61945  0.91066  0.85582  1.0000
  S   S141      1.0  0.50028  0.79069  0.75003  1.0000
  H   H423      1.0  0.86201  0.82335  0.88940  1.0000
  H   H424      1.0  0.85392  0.88278  0.81689  1.0000
  H   H425      1.0  0.90899  0.84065  0.86038  1.0000
  H   H426      1.0  0.90553  0.87113  0.82409  1.0000
  H   H427      1.0  0.78795  0.84604  0.88407  1.0000
  Fe  Fe71      1.0  0.80095  0.92715  0.88494  1.0000
  C   C424      1.0  0.55963  0.83761  0.68362  1.0000
  C   C425      1.0  0.93123  0.90956  0.97623  1.0000
  H   H428      1.0  0.80695  0.86411  0.84599  1.0000
  Fe  Fe72      1.0  0.82880  0.96531  0.93187  1.0000
  S   S142      1.0  0.75598  0.88562  0.86167  1.0000
  C   C426      1.0  0.80417  0.83194  0.88676  1.0000
  C   C427      1.0  0.97600  0.88758  0.89599  1.0000
  H   H429      1.0  0.64725  0.90170  0.87570  1.0000
  C   C428      1.0  0.89073  0.93360  0.98503  1.0000
  C   C429      1.0  0.94742  0.88804  0.98140  1.0000
  H   H430      1.0  0.60024  0.92908  0.67398  1.0000
  S   S143      1.0  0.88576  0.98105  0.92502  1.0000
  H   H431      1.0  0.91036  0.96286  0.98762  1.0000
  C   C430      1.0  0.98211  0.90703  0.87529  1.0000
  C   C431      1.0  0.58209  0.90035  0.67130  1.0000
  C   C432      1.0  0.93920  0.86800  0.00186  1.0000
  S   S144      1.0  0.48759  0.73448  0.80710  1.0000
  H   H432      1.0  0.50809  0.91897  0.71489  1.0000
  N   N36       1.0  0.49334  0.88399  0.68596  1.0000
