data_image0
_chemical_formula_structural       FeSHCH5C2H2C3H4C4H3NHCSC2H2CH2CHFeHSC2FeSHC2HC2H2C3SHCH2C2NFeHSH3CHCHSCHCFeNC6HC2HSHNHC4FeCHCSHC2SHNCHC2HCH3C2HSHC3H3CHCHSCH2CHSFeSCFeS2CHCNHSFeS2CH2S2HSCSH3CH2CHCHCFeHC3H2CSCHC2HCHC3HC6H4NCH6CHSNH2Fe2H2CHCHC2H4CNFeS2FeSFeSFeS3H3C2HCFeSCSH4CH2CNFeC6H4C6H6CH2C2H3SHCNHNC6H8NC6H2CHCH3C2S2CH2C5HCHCSCH2SH2CHSCH3CHCSHFeSFe3SCSFeS2HFeHS2H3C7H4C6NHC2HSHSFeCH2C2SC2H2SC3HSNC6H2FeH4SH2CHCH4C2H2C2H2CH2CNC3H2CSC2SCH2C3HSHC5H2CH2SHCHFeH2C3H2C2HCH5C2HNCHCH2SHC2H2CNC2HC2HFeC3SCH2FeS2FeS2FeSFeS3H2SNCSH3Fe2CFeS3H3FeH2CHNC7H4C6H4C6H4C8H2C6H5C2SFeSHNC6H9C3SNC6H6SHS3HCHFeC2H4SHSFeSFeCHFeCHSHCSCSNSNH2C2SC2HCSFeS2CHC4H3SCNH5C3HC2HCHFeCFeCH3C2SNHSHFeC2NC2HCHCH2SFeSFeC2HSCHFeCSHC2SHCSC2HC2H2C4HSCH4SHC2H3CFeCH3C3H4CHCHCHNCH2C2H2C2H2C2H2CHCHCHC2H2C3H2CHCH4FeSHFeSCFeSFeCSHFeCFeS2FeHFeHS3FeS2FeS2FeSFeS3FeH3CHFeSCSC3H2CFeC2H4C3SHCHC6H3C4SCH5C4H3C6H4C2FeH2C7H3S2HC2SCHFeCH4C3HSCHNSHC3SC2H3CHNHCHNH6C2NC6H9C2HSHCHNC2HC3FeNHSHSCHCHC2HSH2C2HSCHCNHCNHCHSH2SCHCH2C3SCSFe2H3CHNCSC2HC2HSHS2C2H3CH3C2S2H3SCHC3HS3HFeS2FeS2FeSFeS3H2CHFeSCSFeSFeHS2HFe2SH2C6H4C6H6SC4FeCH2C2HC3H2C6HCH2C6H4CFeSCHCNC2H2SCFeHCSHC2H2CHSHCH2CSC2SC2S3CHNHC2HNC6H8FeHCHNSHSHCH2CFeC5H2SHSHC2SNH2CH2SHFe3CSNCHFeH4CFeH3SHFeSHCH2NFeHCH3C2SHC2HC5H2C4H2CH2FeSHC3HCH2FeCSCHCSC3H2CH3NCH2CHCSHSC2HS2C7H5CH5SHCSCFeCHCSHCH2SNC2FeCSFeCHCSHCNSCFeSHSFeSH2S2CSFeS2FeS2FeSFeS3HFe2S2CSC2S2C6H4CHFeHSC6H4SC3H2C4H3C6H4C3H2C6HC3H4NC4H7C3FeC3HC2NCSH2CFeCNFeHFeCNH2C3SCFeCH3CFeCSH2C2HSHCNH3CHSHC2SH3CHC3H3CSCHCHC2FeH2CSH2FeCH7FeC3H3SH3SHC2H2SCHCHNC2H2CHCSHCHCHCSCH2C2NCHNC2HC3HC2HCHC3H3FeH2S2HC2H3SHCHCH2C2H2FeS2FeHFeSHCHS2C2FeH4CFe2HCHSCHC2H2CSC3H5C6H4CHFeH2SCH4CNCHNHSHCSNC7HNHCHC3SH2CSHSCHC4H3NH2CHFeSFeS2FeS2Fe2S2FeSC4H3C2SH4C2H2CFeSHC2H4C6H4C2HC2SC2H2C2SH4CNC3HCFeHCH4C2NH4C2HCHCHCSHCFeS2HCFeSHSHC2FeS2FeSFeS2HC3H2CNCH2C6H6NHNHC3H2C2NHSCSCHC2HCHCHFeC5HC2SHCH2NHC2HC2H2C2H2CFeC2H2CH2CH3CHCSCHCHNHCHNHCH3SH2CFeSCHSCFeSFeS2HFeH2FeS2FeCFeHS2CH2NSC10H4CSH2CHS2C4HSH2C2HCH2CH2CH4SCHCNH3FeNH5CH2C2HCH
_chemical_formula_sum              "Fe144 S288 H864 C864 N72"
_cell_length_a       41.9294
_cell_length_b       39.2052
_cell_length_c       85.9628
_cell_angle_alpha    87.5828
_cell_angle_beta     84.0584
_cell_angle_gamma    112.875

_space_group_name_H-M_alt    "P 1"
_space_group_IT_number       1

loop_
  _space_group_symop_operation_xyz
  'x, y, z'

loop_
  _atom_site_type_symbol
  _atom_site_label
  _atom_site_symmetry_multiplicity
  _atom_site_fract_x
  _atom_site_fract_y
  _atom_site_fract_z
  _atom_site_occupancy
  Fe  Fe1       1.0  0.01435  0.15872  0.16965  1.0000
  S   S1        1.0  0.00819  0.09951  0.17173  1.0000
  H   H1        1.0  0.01527  0.01812  0.18727  1.0000
  C   C1        1.0  0.02722  0.39655  0.99717  1.0000
  H   H2        1.0  0.01515  0.13858  0.23110  1.0000
  H   H3        1.0  0.02893  0.20605  0.23244  1.0000
  H   H4        1.0  0.00128  0.37964  0.00312  1.0000
  H   H5        1.0  0.02430  0.04533  0.13402  1.0000
  H   H6        1.0  0.03197  0.10981  0.13702  1.0000
  C   C2        1.0  0.01000  0.48783  0.99264  1.0000
  C   C3        1.0  0.03677  0.15908  0.22333  1.0000
  H   H7        1.0  0.07291  0.14706  0.13035  1.0000
  H   H8        1.0  0.03900  0.43692  0.01428  1.0000
  C   C4        1.0  0.20950  0.05659  0.23259  1.0000
  C   C5        1.0  0.47585  0.12993  0.04007  1.0000
  C   C6        1.0  0.49327  0.21852  0.06929  1.0000
  H   H9        1.0  0.48464  0.20716  0.08177  1.0000
  H   H10       1.0  0.47720  0.16384  0.17307  1.0000
  H   H11       1.0  0.22524  0.04989  0.24091  1.0000
  H   H12       1.0  0.09726  0.47660  0.99982  1.0000
  C   C7        1.0  0.04441  0.19689  0.22405  1.0000
  C   C8        1.0  0.06833  0.02516  0.23549  1.0000
  C   C9        1.0  0.48005  0.46297  0.99967  1.0000
  C   C10       1.0  0.08103  0.45095  0.99531  1.0000
  H   H13       1.0  0.08707  0.04477  0.22636  1.0000
  H   H14       1.0  0.04595  0.12083  0.11626  1.0000
  H   H15       1.0  0.05194  0.11854  0.21213  1.0000
  N   N1        1.0  0.48715  0.18806  0.05913  1.0000
  H   H16       1.0  0.43959  0.29221  0.11399  1.0000
  C   C11       1.0  0.15412  0.20821  0.13919  1.0000
  S   S2        1.0  0.31690  0.14268  0.17079  1.0000
  C   C12       1.0  0.05500  0.11892  0.12782  1.0000
  C   C13       1.0  0.05239  0.05541  0.13118  1.0000
  H   H17       1.0  0.47016  0.31236  0.06405  1.0000
  H   H18       1.0  0.47893  0.23593  0.06622  1.0000
  C   C14       1.0  0.21324  0.11835  0.23863  1.0000
  H   H19       1.0  0.17425  0.22675  0.13026  1.0000
  H   H20       1.0  0.43788  0.18662  0.05416  1.0000
  C   C15       1.0  0.12931  0.15077  0.15609  1.0000
  H   H21       1.0  0.48391  0.35459  0.11726  1.0000
  Fe  Fe2       1.0  0.48724  0.23662  0.11618  1.0000
  H   H22       1.0  0.42755  0.13517  0.03700  1.0000
  S   S3        1.0  0.48522  0.27909  0.03658  1.0000
  C   C16       1.0  0.33822  0.16194  0.13898  1.0000
  C   C17       1.0  0.40807  0.20101  0.14313  1.0000
  Fe  Fe3       1.0  0.26028  0.11578  0.16689  1.0000
  S   S4        1.0  0.23974  0.10009  0.14403  1.0000
  H   H23       1.0  0.48541  0.15933  0.14444  1.0000
  C   C18       1.0  0.38225  0.18660  0.15620  1.0000
  C   C19       1.0  0.07251  0.22291  0.21400  1.0000
  H   H24       1.0  0.44602  0.17780  0.00269  1.0000
  C   C20       1.0  0.42138  0.13252  0.17547  1.0000
  C   C21       1.0  0.43047  0.12804  0.14332  1.0000
  H   H25       1.0  0.38952  0.19038  0.16792  1.0000
  H   H26       1.0  0.46649  0.46516  0.01075  1.0000
  C   C22       1.0  0.49086  0.24522  0.02521  1.0000
  C   C23       1.0  0.04833  0.42870  0.00341  1.0000
  C   C24       1.0  0.10028  0.19367  0.15658  1.0000
  S   S5        1.0  0.15558  0.07829  0.20900  1.0000
  H   H27       1.0  0.43249  0.27090  0.08732  1.0000
  C   C25       1.0  0.34738  0.16613  0.15419  1.0000
  H   H28       1.0  0.13008  0.12475  0.16023  1.0000
  H   H29       1.0  0.43427  0.12707  0.13069  1.0000
  C   C26       1.0  0.10432  0.04256  0.12719  1.0000
  C   C27       1.0  0.24717  0.17307  0.22103  1.0000
  N   N2        1.0  0.39772  0.11215  0.15158  1.0000
  Fe  Fe4       1.0  0.18702  0.08814  0.18513  1.0000
  H   H30       1.0  0.05240  0.00022  0.13338  1.0000
  S   S6        1.0  0.18857  0.16209  0.13596  1.0000
  H   H31       1.0  0.43911  0.22644  0.01853  1.0000
  H   H32       1.0  0.17132  0.20889  0.20402  1.0000
  H   H33       1.0  0.43490  0.21554  0.14491  1.0000
  C   C28       1.0  0.12414  0.08050  0.12364  1.0000
  H   H34       1.0  0.12305  0.13461  0.12076  1.0000
  C   C29       1.0  0.45147  0.29846  0.08877  1.0000
  H   H35       1.0  0.10133  0.16559  0.19473  1.0000
  S   S7        1.0  0.22511  0.06131  0.18026  1.0000
  C   C30       1.0  0.15202  0.11836  0.21582  1.0000
  H   H36       1.0  0.37061  0.10626  0.13157  1.0000
  C   C31       1.0  0.12694  0.21799  0.14540  1.0000
  Fe  Fe5       1.0  0.20171  0.04791  0.15793  1.0000
  N   N3        1.0  0.22308  0.09687  0.22868  1.0000
  C   C32       1.0  0.05737  0.14780  0.21269  1.0000
  C   C33       1.0  0.36403  0.17661  0.12589  1.0000
  C   C34       1.0  0.45693  0.17426  0.05245  1.0000
  C   C35       1.0  0.47268  0.32163  0.07575  1.0000
  C   C36       1.0  0.45945  0.14661  0.15096  1.0000
  C   C37       1.0  0.15552  0.17476  0.14461  1.0000
  H   H37       1.0  0.20935  0.04157  0.22190  1.0000
  C   C38       1.0  0.13876  0.11786  0.23151  1.0000
  C   C39       1.0  0.39914  0.19551  0.12794  1.0000
  H   H38       1.0  0.41745  0.13464  0.18800  1.0000
  S   S8        1.0  0.22438  0.14399  0.17384  1.0000
  H   H39       1.0  0.36693  0.10173  0.17401  1.0000
  N   N4        1.0  0.07210  0.09264  0.12787  1.0000
  H   H40       1.0  0.11698  0.02312  0.12698  1.0000
  C   C40       1.0  0.14833  0.18286  0.22729  1.0000
  C   C41       1.0  0.45087  0.14508  0.04279  1.0000
  C   C42       1.0  0.06815  0.02979  0.13087  1.0000
  C   C43       1.0  0.25827  0.15116  0.21128  1.0000
  Fe  Fe6       1.0  0.20064  0.12368  0.15211  1.0000
  C   C44       1.0  0.46337  0.22250  0.01763  1.0000
  H   H41       1.0  0.27579  0.16354  0.20047  1.0000
  C   C45       1.0  0.10743  0.10522  0.12378  1.0000
  S   S9        1.0  0.43140  0.21008  0.11139  1.0000
  H   H42       1.0  0.17251  0.15154  0.19371  1.0000
  C   C46       1.0  0.46732  0.19501  0.00866  1.0000
  C   C47       1.0  0.39297  0.11380  0.16749  1.0000
  S   S10       1.0  0.16039  0.06983  0.16383  1.0000
  H   H43       1.0  0.15234  0.09087  0.12085  1.0000
  N   N5        1.0  0.09228  0.21156  0.20347  1.0000
  C   C48       1.0  0.45533  0.31053  0.10377  1.0000
  H   H44       1.0  0.35680  0.17250  0.11418  1.0000
  C   C49       1.0  0.24608  0.11290  0.21537  1.0000
  C   C50       1.0  0.36780  0.09202  0.14340  1.0000
  H   H45       1.0  0.25565  0.20262  0.21781  1.0000
  C   C51       1.0  0.45482  0.14901  0.16711  1.0000
  H   H46       1.0  0.36568  0.06318  0.14217  1.0000
  H   H47       1.0  0.34297  0.09102  0.14986  1.0000
  H   H48       1.0  0.07867  0.25227  0.21476  1.0000
  C   C52       1.0  0.22484  0.15670  0.23491  1.0000
  C   C53       1.0  0.16212  0.18352  0.21171  1.0000
  H   H49       1.0  0.14173  0.25653  0.20035  1.0000
  S   S11       1.0  0.06637  0.20645  0.16398  1.0000
  H   H50       1.0  0.11236  0.25776  0.18634  1.0000
  C   C54       1.0  0.10138  0.15993  0.16187  1.0000
  C   C55       1.0  0.12168  0.23959  0.19318  1.0000
  C   C56       1.0  0.16326  0.15112  0.20590  1.0000
  H   H51       1.0  0.31146  0.14656  0.13724  1.0000
  H   H52       1.0  0.08109  0.14116  0.17059  1.0000
  H   H53       1.0  0.13412  0.22672  0.18453  1.0000
  C   C57       1.0  0.48038  0.34582  0.10553  1.0000
  H   H54       1.0  0.12623  0.24415  0.14131  1.0000
  C   C58       1.0  0.08517  0.17456  0.20279  1.0000
  H   H55       1.0  0.25465  0.09606  0.20770  1.0000
  S   S12       1.0  0.14455  0.22282  0.23401  1.0000
  C   C59       1.0  0.13685  0.15005  0.23723  1.0000
  H   H56       1.0  0.47207  0.10822  0.03216  1.0000
  H   H57       1.0  0.13096  0.09295  0.23940  1.0000
  C   C60       1.0  0.49743  0.35676  0.07793  1.0000
  H   H58       1.0  0.18187  0.04594  0.23818  1.0000
  S   S13       1.0  0.19146  0.99311  0.14822  1.0000
  Fe  Fe7       1.0  0.07435  0.15345  0.28488  1.0000
  S   S14       1.0  0.18374  0.04164  0.27428  1.0000
  C   C61       1.0  0.04696  0.48751  0.42447  1.0000
  Fe  Fe8       1.0  0.08938  0.23526  0.28738  1.0000
  S   S15       1.0  0.07773  0.24281  0.26284  1.0000
  S   S16       1.0  0.09898  0.28255  0.30297  1.0000
  C   C62       1.0  0.19238  0.46247  0.29595  1.0000
  H   H59       1.0  0.12733  0.14970  0.24944  1.0000
  C   C63       1.0  0.00957  0.02564  0.27134  1.0000
  N   N6        1.0  0.02809  0.01269  0.25911  1.0000
  H   H60       1.0  0.00441  0.02963  0.31044  1.0000
  S   S17       1.0  0.12403  0.20497  0.28070  1.0000
  Fe  Fe9       1.0  0.26516  0.43704  0.32657  1.0000
  S   S18       1.0  0.29634  0.45223  0.34684  1.0000
  S   S19       1.0  0.25209  0.38177  0.31637  1.0000
  C   C64       1.0  0.11649  0.03125  0.28525  1.0000
  H   H61       1.0  0.24634  0.38784  0.28041  1.0000
  H   H62       1.0  0.05756  0.06704  0.24761  1.0000
  S   S20       1.0  0.04080  0.18302  0.29375  1.0000
  S   S21       1.0  0.22945  0.46533  0.33443  1.0000
  H   H63       1.0  0.21919  0.47831  0.45779  1.0000
  S   S22       1.0  0.30334  0.48574  0.31058  1.0000
  C   C65       1.0  0.15056  0.05691  0.28026  1.0000
  S   S23       1.0  0.25240  0.49014  0.37916  1.0000
  H   H64       1.0  0.19529  0.10555  0.24922  1.0000
  H   H65       1.0  0.21571  0.17335  0.24251  1.0000
  H   H66       1.0  0.46472  0.02888  0.44692  1.0000
  C   C66       1.0  0.49138  0.48080  0.46840  1.0000
  H   H67       1.0  0.37453  0.48367  0.36384  1.0000
  H   H68       1.0  0.13614  0.43816  0.30034  1.0000
  C   C67       1.0  0.46733  0.04988  0.45510  1.0000
  H   H69       1.0  0.00674  0.01023  0.28290  1.0000
  C   C68       1.0  0.24150  0.48023  0.44961  1.0000
  H   H70       1.0  0.32106  0.49101  0.41988  1.0000
  C   C69       1.0  0.15814  0.09505  0.27997  1.0000
  Fe  Fe10      1.0  0.26412  0.48491  0.35342  1.0000
  H   H71       1.0  0.01175  0.44136  0.47351  1.0000
  C   C70       1.0  0.15671  0.40092  0.28967  1.0000
  C   C71       1.0  0.05154  0.03749  0.24754  1.0000
  C   C72       1.0  0.09019  0.04371  0.29002  1.0000
  H   H72       1.0  0.41971  0.07198  0.48420  1.0000
  H   H73       1.0  0.01980  0.42854  0.43066  1.0000
  C   C73       1.0  0.23651  0.47088  0.43425  1.0000
  S   S24       1.0  0.06182  0.15445  0.26027  1.0000
  C   C74       1.0  0.26521  0.47448  0.42350  1.0000
  H   H74       1.0  0.18458  0.11505  0.27648  1.0000
  C   C75       1.0  0.47855  0.12745  0.48926  1.0000
  C   C76       1.0  0.22218  0.45662  0.29029  1.0000
  H   H75       1.0  0.48378  0.46124  0.45959  1.0000
  C   C77       1.0  0.09766  0.08179  0.28954  1.0000
  H   H76       1.0  0.27530  0.47570  0.47772  1.0000
  C   C78       1.0  0.25083  0.41776  0.27899  1.0000
  C   C79       1.0  0.13158  0.10748  0.28434  1.0000
  C   C80       1.0  0.29842  0.48724  0.42822  1.0000
  H   H77       1.0  0.13765  0.13692  0.28414  1.0000
  C   C81       1.0  0.14134  0.30817  0.30753  1.0000
  C   C82       1.0  0.16999  0.30130  0.30104  1.0000
  C   C83       1.0  0.20371  0.32350  0.30423  1.0000
  C   C84       1.0  0.20906  0.35300  0.31373  1.0000
  C   C85       1.0  0.18039  0.35969  0.32036  1.0000
  C   C86       1.0  0.14658  0.33710  0.31736  1.0000
  H   H78       1.0  0.16623  0.27904  0.29350  1.0000
  H   H79       1.0  0.22580  0.31806  0.29915  1.0000
  H   H80       1.0  0.18425  0.38221  0.32776  1.0000
  H   H81       1.0  0.12444  0.34238  0.32248  1.0000
  N   N7        1.0  0.21928  0.42340  0.28482  1.0000
  C   C87       1.0  0.18708  0.39602  0.28413  1.0000
  H   H82       1.0  0.46245  0.25700  0.49073  1.0000
  H   H83       1.0  0.18468  0.36965  0.27978  1.0000
  H   H84       1.0  0.27244  0.43219  0.28591  1.0000
  H   H85       1.0  0.06983  0.48540  0.41812  1.0000
  H   H86       1.0  0.41303  0.02560  0.46480  1.0000
  H   H87       1.0  0.02017  0.05602  0.32666  1.0000
  C   C88       1.0  0.44226  0.07431  0.47612  1.0000
  H   H88       1.0  0.06410  0.02386  0.29412  1.0000
  S   S25       1.0  0.06435  0.09664  0.29576  1.0000
  N   N8        1.0  0.47436  0.10164  0.47704  1.0000
  H   H89       1.0  0.02405  0.05561  0.27275  1.0000
  H   H90       1.0  0.24763  0.47879  0.29044  1.0000
  Fe  Fe11      1.0  0.10844  0.20852  0.25664  1.0000
  Fe  Fe12      1.0  0.03230  0.18806  0.26868  1.0000
  H   H91       1.0  0.13131  0.37843  0.28967  1.0000
  H   H92       1.0  0.19496  0.48869  0.30055  1.0000
  C   C89       1.0  0.15946  0.43426  0.29575  1.0000
  H   H93       1.0  0.25910  0.42829  0.26643  1.0000
  C   C90       1.0  0.43823  0.04814  0.46510  1.0000
  H   H94       1.0  0.01126  0.10926  0.31606  1.0000
  C   C91       1.0  0.00718  0.46641  0.47503  1.0000
  C   C92       1.0  0.01887  0.45569  0.43140  1.0000
  H   H95       1.0  0.11059  0.00181  0.28582  1.0000
  H   H96       1.0  0.26173  0.46793  0.41147  1.0000
  H   H97       1.0  0.21066  0.46163  0.43061  1.0000
  H   H98       1.0  0.48973  0.17680  0.56053  1.0000
  C   C93       1.0  0.06993  0.18388  0.72608  1.0000
  N   N9        1.0  0.06361  0.06941  0.70515  1.0000
  Fe  Fe13      1.0  0.22155  0.07816  0.65476  1.0000
  S   S26       1.0  0.21437  0.11677  0.67187  1.0000
  S   S27       1.0  0.27343  0.07571  0.64656  1.0000
  Fe  Fe14      1.0  0.14389  0.04137  0.65230  1.0000
  S   S28       1.0  0.13019  0.07699  0.66925  1.0000
  Fe  Fe15      1.0  0.17696  0.12368  0.65650  1.0000
  S   S29       1.0  0.17944  0.18144  0.65164  1.0000
  Fe  Fe16      1.0  0.16838  0.06696  0.68310  1.0000
  S   S30       1.0  0.15919  0.06215  0.70928  1.0000
  S   S31       1.0  0.18800  0.08930  0.63820  1.0000
  S   S32       1.0  0.17832  0.02699  0.66738  1.0000
  H   H99       1.0  0.04440  0.11114  0.70909  1.0000
  H   H100      1.0  0.08098  0.12427  0.69384  1.0000
  H   H101      1.0  0.25660  0.06431  0.68231  1.0000
  C   C94       1.0  0.02137  0.17468  0.71131  1.0000
  C   C95       1.0  0.24871  0.06084  0.69493  1.0000
  H   H102      1.0  0.48662  0.11687  0.49971  1.0000
  C   C96       1.0  0.23083  0.02527  0.70272  1.0000
  Fe  Fe17      1.0  0.46054  0.21995  0.62849  1.0000
  S   S33       1.0  0.41331  0.21930  0.64393  1.0000
  C   C97       1.0  0.13861  0.01662  0.71795  1.0000
  S   S34       1.0  0.03745  0.20058  0.64818  1.0000
  H   H103      1.0  0.22261  0.24308  0.72556  1.0000
  H   H104      1.0  0.07347  0.21609  0.70454  1.0000
  H   H105      1.0  0.26987  0.11959  0.69757  1.0000
  H   H106      1.0  0.01112  0.18248  0.70133  1.0000
  C   C98       1.0  0.01290  0.13578  0.73526  1.0000
  H   H107      1.0  0.07426  0.06377  0.72866  1.0000
  H   H108      1.0  0.39069  0.25078  0.61540  1.0000
  C   C99       1.0  0.04803  0.15497  0.73715  1.0000
  N   N10       1.0  0.03866  0.05055  0.62471  1.0000
  Fe  Fe18      1.0  0.49422  0.23630  0.59470  1.0000
  C   C100      1.0  0.13985  0.18559  0.64953  1.0000
  C   C101      1.0  0.14007  0.22083  0.64589  1.0000
  C   C102      1.0  0.10862  0.22525  0.64514  1.0000
  C   C103      1.0  0.07680  0.19445  0.64808  1.0000
  C   C104      1.0  0.07661  0.15902  0.65127  1.0000
  C   C105      1.0  0.10808  0.15464  0.65208  1.0000
  H   H109      1.0  0.16459  0.24486  0.64381  1.0000
  H   H110      1.0  0.10894  0.25265  0.64256  1.0000
  H   H111      1.0  0.05224  0.13495  0.65298  1.0000
  H   H112      1.0  0.10771  0.12738  0.65467  1.0000
  C   C106      1.0  0.31236  0.11498  0.64706  1.0000
  C   C107      1.0  0.31211  0.14739  0.65317  1.0000
  C   C108      1.0  0.34349  0.17883  0.65270  1.0000
  C   C109      1.0  0.37511  0.17830  0.64581  1.0000
  C   C110      1.0  0.37538  0.14580  0.63983  1.0000
  C   C111      1.0  0.34413  0.11415  0.64059  1.0000
  H   H113      1.0  0.28780  0.14845  0.65809  1.0000
  H   H114      1.0  0.34316  0.20397  0.65733  1.0000
  H   H115      1.0  0.39967  0.14495  0.63469  1.0000
  H   H116      1.0  0.34454  0.08907  0.63593  1.0000
  H   H117      1.0  0.08798  0.12237  0.71402  1.0000
  H   H118      1.0  0.06219  0.99698  0.72843  1.0000
  C   C112      1.0  0.22854  0.05106  0.72712  1.0000
  H   H119      1.0  0.19552  0.13935  0.70488  1.0000
  H   H120      1.0  0.44456  0.01311  0.50202  1.0000
  C   C113      1.0  0.05661  0.19376  0.71315  1.0000
  C   C114      1.0  0.47799  0.22098  0.50496  1.0000
  H   H121      1.0  0.45248  0.19842  0.50647  1.0000
  H   H122      1.0  0.05021  0.06700  0.68183  1.0000
  H   H123      1.0  0.09335  0.06640  0.62507  1.0000
  S   S35       1.0  0.45744  0.18379  0.60867  1.0000
  H   H124      1.0  0.45397  0.13108  0.49301  1.0000
  C   C115      1.0  0.05335  0.05184  0.69201  1.0000
  N   N11       1.0  0.22094  0.02078  0.71861  1.0000
  H   H125      1.0  0.07792  0.10180  0.62965  1.0000
  N   N12       1.0  0.34269  0.16714  0.60337  1.0000
  C   C116      1.0  0.36488  0.16674  0.59059  1.0000
  C   C117      1.0  0.35147  0.19717  0.61206  1.0000
  C   C118      1.0  0.39662  0.19712  0.58613  1.0000
  C   C119      1.0  0.38326  0.22771  0.60809  1.0000
  C   C120      1.0  0.40582  0.22772  0.59498  1.0000
  C   C121      1.0  0.30965  0.13485  0.60776  1.0000
  H   H126      1.0  0.35816  0.14276  0.58382  1.0000
  H   H127      1.0  0.33423  0.19742  0.62232  1.0000
  H   H128      1.0  0.41437  0.19682  0.57603  1.0000
  H   H129      1.0  0.22546  0.18100  0.72447  1.0000
  H   H130      1.0  0.43069  0.25111  0.59182  1.0000
  H   H131      1.0  0.31484  0.11004  0.61127  1.0000
  H   H132      1.0  0.29339  0.13926  0.61792  1.0000
  H   H133      1.0  0.29406  0.12886  0.59778  1.0000
  N   N13       1.0  0.17274  0.21130  0.69658  1.0000
  C   C122      1.0  0.17519  0.17766  0.69549  1.0000
  C   C123      1.0  0.19027  0.23503  0.70694  1.0000
  C   C124      1.0  0.19413  0.16627  0.70552  1.0000
  C   C125      1.0  0.20957  0.22458  0.71708  1.0000
  C   C126      1.0  0.21115  0.18978  0.71646  1.0000
  C   C127      1.0  0.15241  0.22270  0.68617  1.0000
  H   H134      1.0  0.16236  0.15943  0.68688  1.0000
  H   H135      1.0  0.18821  0.26163  0.70784  1.0000
  C   C128      1.0  0.06960  0.10872  0.70555  1.0000
  H   H136      1.0  0.25136  0.11090  0.72652  1.0000
  C   C129      1.0  0.07102  0.07138  0.63115  1.0000
  H   H137      1.0  0.13056  0.19826  0.68285  1.0000
  H   H138      1.0  0.14043  0.24034  0.69210  1.0000
  H   H139      1.0  0.16955  0.23831  0.67531  1.0000
  C   C130      1.0  0.48363  0.25408  0.49606  1.0000
  C   C131      1.0  0.06642  0.04999  0.71817  1.0000
  S   S36       1.0  0.11436  0.20615  0.72784  1.0000
  S   S37       1.0  0.00473  0.11822  0.68063  1.0000
  C   C132      1.0  0.99947  0.14569  0.72239  1.0000
  H   H140      1.0  0.01804  0.09176  0.62851  1.0000
  H   H141      1.0  0.48634  0.14124  0.57523  1.0000
  C   C133      1.0  0.01367  0.06478  0.62434  1.0000
  C   C134      1.0  0.25624  0.09188  0.70350  1.0000
  C   C135      1.0  0.24603  0.08704  0.71970  1.0000
  C   C136      1.0  0.46610  0.01205  0.49424  1.0000
  C   C137      1.0  0.13443  0.01061  0.73429  1.0000
  H   H142      1.0  0.06793  0.06229  0.64384  1.0000
  C   C138      1.0  0.03279  0.01601  0.61996  1.0000
  H   H143      1.0  0.22079  0.04755  0.73969  1.0000
  C   C139      1.0  0.04755  0.01433  0.69134  1.0000
  S   S38       1.0  0.48955  0.25011  0.56986  1.0000
  C   C140      1.0  0.05963  0.01214  0.71810  1.0000
  H   H144      1.0  0.48207  0.38184  0.55069  1.0000
  H   H145      1.0  0.22489  0.00130  0.69597  1.0000
  S   S39       1.0  0.49339  0.27323  0.61365  1.0000
  H   H146      1.0  0.04056  0.00089  0.68067  1.0000
  H   H147      1.0  0.00588  0.05420  0.73832  1.0000
  C   C141      1.0  0.05095  0.99448  0.70446  1.0000
  H   H148      1.0  0.05239  0.00459  0.62051  1.0000
  S   S40       1.0  0.10294  0.00284  0.63902  1.0000
  C   C142      1.0  0.00137  0.99485  0.61449  1.0000
  H   H149      1.0  0.14399  0.03393  0.74130  1.0000
  H   H150      1.0  0.02193  0.36291  0.97781  1.0000
  H   H151      1.0  0.27030  0.05729  0.77679  1.0000
  C   C143      1.0  0.29220  0.46717  0.90823  1.0000
  H   H152      1.0  0.23601  0.38053  0.94665  1.0000
  C   C144      1.0  0.37657  0.45531  0.87733  1.0000
  S   S41       1.0  0.09649  0.17494  0.77355  1.0000
  H   H153      1.0  0.29910  0.32555  0.82431  1.0000
  Fe  Fe19      1.0  0.17836  0.15484  0.76099  1.0000
  S   S42       1.0  0.15255  0.14350  0.78582  1.0000
  Fe  Fe20      1.0  0.27449  0.46968  0.83675  1.0000
  Fe  Fe21      1.0  0.10279  0.12076  0.77517  1.0000
  Fe  Fe22      1.0  0.14902  0.19881  0.78203  1.0000
  S   S43       1.0  0.15863  0.23529  0.80210  1.0000
  C   C145      1.0  0.20998  0.45235  0.95007  1.0000
  S   S44       1.0  0.17924  0.21220  0.75791  1.0000
  Fe  Fe23      1.0  0.30057  0.42434  0.81536  1.0000
  S   S45       1.0  0.27467  0.41262  0.84039  1.0000
  S   S46       1.0  0.29231  0.38505  0.79631  1.0000
  H   H154      1.0  0.10509  0.39155  0.96084  1.0000
  Fe  Fe24      1.0  0.35756  0.47459  0.94903  1.0000
  H   H155      1.0  0.16607  0.04606  0.80263  1.0000
  S   S47       1.0  0.35497  0.44950  0.82184  1.0000
  S   S48       1.0  0.34924  0.42186  0.86629  1.0000
  H   H156      1.0  0.25731  0.20828  0.78135  1.0000
  H   H157      1.0  0.99978  0.14302  0.78544  1.0000
  H   H158      1.0  0.05271  0.08571  0.75469  1.0000
  C   C146      1.0  0.00463  0.04256  0.75012  1.0000
  C   C147      1.0  0.25209  0.34688  0.79714  1.0000
  C   C148      1.0  0.22776  0.33615  0.81069  1.0000
  C   C149      1.0  0.19821  0.30255  0.81182  1.0000
  C   C150      1.0  0.19276  0.27977  0.79936  1.0000
  C   C151      1.0  0.21623  0.29146  0.78553  1.0000
  C   C152      1.0  0.24590  0.32485  0.78446  1.0000
  H   H159      1.0  0.23226  0.35305  0.82050  1.0000
  H   H160      1.0  0.18000  0.29373  0.82251  1.0000
  H   H161      1.0  0.21207  0.27445  0.77580  1.0000
  H   H162      1.0  0.26456  0.33324  0.77391  1.0000
  C   C153      1.0  0.22193  0.10125  0.76283  1.0000
  C   C154      1.0  0.18895  0.07188  0.76560  1.0000
  C   C155      1.0  0.18550  0.03676  0.77196  1.0000
  C   C156      1.0  0.21477  0.03172  0.77631  1.0000
  C   C157      1.0  0.24760  0.06111  0.77349  1.0000
  C   C158      1.0  0.24239  0.48105  0.95113  1.0000
  N   N14       1.0  0.29285  0.43701  0.90099  1.0000
  H   H163      1.0  0.49680  0.00887  0.94733  1.0000
  C   C159      1.0  0.20792  0.41624  0.94843  1.0000
  C   C160      1.0  0.00845  0.44460  0.96751  1.0000
  H   H164      1.0  0.18299  0.39401  0.94758  1.0000
  S   S49       1.0  0.30736  0.42619  0.94777  1.0000
  H   H165      1.0  0.27680  0.11813  0.76434  1.0000
  S   S50       1.0  0.06061  0.06796  0.78676  1.0000
  Fe  Fe25      1.0  0.12710  0.18343  0.74965  1.0000
  C   C161      1.0  0.26143  0.44903  0.88105  1.0000
  H   H166      1.0  0.31589  0.39697  0.89947  1.0000
  H   H167      1.0  0.24932  0.44161  0.87044  1.0000
  C   C162      1.0  0.23792  0.40859  0.94790  1.0000
  C   C163      1.0  0.03901  0.38735  0.98276  1.0000
  S   S51       1.0  0.41082  0.47323  0.94497  1.0000
  C   C164      1.0  0.27028  0.43697  0.94902  1.0000
  C   C165      1.0  0.39238  0.44395  0.88893  1.0000
  H   H168      1.0  0.38745  0.41483  0.89111  1.0000
  H   H169      1.0  0.30394  0.47421  0.91894  1.0000
  S   S52       1.0  0.17125  0.45998  0.95076  1.0000
  C   C166      1.0  0.14854  0.99402  0.81688  1.0000
  C   C167      1.0  0.03100  0.06041  0.75937  1.0000
  C   C168      1.0  0.25128  0.09555  0.76649  1.0000
  H   H170      1.0  0.28920  0.39418  0.91782  1.0000
  S   S53       1.0  0.12902  0.12701  0.75050  1.0000
  N   N15       1.0  0.25683  0.24142  0.80059  1.0000
  C   C169      1.0  0.28725  0.27004  0.79427  1.0000
  C   C170      1.0  0.24124  0.24243  0.81526  1.0000
  C   C171      1.0  0.30324  0.30033  0.80284  1.0000
  C   C172      1.0  0.25663  0.27219  0.82418  1.0000
  C   C173      1.0  0.28781  0.30132  0.81789  1.0000
  C   C174      1.0  0.23922  0.21083  0.79121  1.0000
  H   H171      1.0  0.29873  0.27022  0.78236  1.0000
  H   H172      1.0  0.21599  0.22093  0.81986  1.0000
  Fe  Fe26      1.0  0.32885  0.44310  0.84646  1.0000
  H   H173      1.0  0.24357  0.27356  0.83556  1.0000
  H   H174      1.0  0.06209  0.37772  0.95479  1.0000
  H   H175      1.0  0.22793  0.18385  0.79856  1.0000
  H   H176      1.0  0.21774  0.21564  0.78628  1.0000
  S   S54       1.0  0.22710  0.14519  0.75476  1.0000
  H   H177      1.0  0.09290  0.42507  0.95088  1.0000
  H   H178      1.0  0.10622  0.04063  0.79971  1.0000
  C   C175      1.0  0.30821  0.41345  0.90818  1.0000
  H   H179      1.0  0.32643  0.32388  0.79756  1.0000
  C   C176      1.0  0.08315  0.40030  0.95961  1.0000
  H   H180      1.0  0.42684  0.46121  0.90670  1.0000
  H   H181      1.0  0.11736  0.45829  0.97467  1.0000
  H   H182      1.0  0.27776  0.40353  0.88194  1.0000
  H   H183      1.0  0.16619  0.07613  0.76268  1.0000
  C   C177      1.0  0.14368  0.02226  0.80833  1.0000
  C   C178      1.0  0.10978  0.01914  0.80681  1.0000
  H   H184      1.0  0.16008  0.01408  0.77397  1.0000
  H   H185      1.0  0.05831  0.14698  0.74703  1.0000
  C   C179      1.0  0.27261  0.47333  0.95058  1.0000
  C   C180      1.0  0.41467  0.47016  0.89775  1.0000
  H   H186      1.0  0.33217  0.43064  0.91321  1.0000
  H   H187      1.0  0.48605  0.48484  0.96047  1.0000
  C   C181      1.0  0.09208  0.44076  0.98100  1.0000
  H   H188      1.0  0.17473  0.99548  0.81762  1.0000
  H   H189      1.0  0.42103  0.46518  0.84288  1.0000
  C   C182      1.0  0.02881  0.04574  0.77475  1.0000
  N   N16       1.0  0.07096  0.40962  0.97481  1.0000
  C   C183      1.0  0.47333  0.47685  0.98563  1.0000
  C   C184      1.0  0.27748  0.42760  0.88764  1.0000
  C   C185      1.0  0.26087  0.48001  0.88827  1.0000
  H   H190      1.0  0.00783  0.42798  0.95772  1.0000
  H   H191      1.0  0.04306  0.01204  0.81370  1.0000
  C   C186      1.0  0.49094  0.47398  0.97134  1.0000
  S   S55       1.0  0.29624  0.47934  0.81125  1.0000
  C   C187      1.0  0.27620  0.48912  0.90201  1.0000
  C   C188      1.0  0.03752  0.47792  0.96809  1.0000
  S   S56       1.0  0.23491  0.48964  0.84773  1.0000
  C   C189      1.0  0.00032  0.01333  0.78087  1.0000
  H   H192      1.0  0.05918  0.48689  0.95878  1.0000
  H   H193      1.0  0.45202  0.49154  0.86525  1.0000
  C   C190      1.0  0.44287  0.49210  0.84118  1.0000
  C   C191      1.0  0.06862  0.89706  0.22446  1.0000
  C   C192      1.0  0.03543  0.87314  0.22152  1.0000
  H   H194      1.0  0.06399  0.95063  0.15653  1.0000
  S   S57       1.0  0.04173  0.92103  0.12728  1.0000
  H   H195      1.0  0.04052  0.90150  0.18305  1.0000
  C   C193      1.0  0.04816  0.90043  0.19464  1.0000
  C   C194      1.0  0.08144  0.92445  0.19761  1.0000
  C   C195      1.0  0.02553  0.87411  0.20653  1.0000
  C   C196      1.0  0.08671  0.95330  0.14855  1.0000
  C   C197      1.0  0.08277  0.94003  0.13369  1.0000
  H   H196      1.0  0.05246  0.81830  0.17891  1.0000
  H   H197      1.0  0.07628  0.89542  0.23598  1.0000
  C   C198      1.0  0.09204  0.92197  0.21240  1.0000
  H   H198      1.0  0.07910  0.82718  0.20371  1.0000
  H   H199      1.0  0.01777  0.85312  0.23080  1.0000
  S   S58       1.0  0.00270  0.83154  0.15722  1.0000
  H   H200      1.0  0.09944  0.94395  0.18832  1.0000
  C   C199      1.0  0.07842  0.83952  0.17911  1.0000
  H   H201      1.0  0.08494  0.85988  0.15475  1.0000
  Fe  Fe27      1.0  0.99927  0.88137  0.14500  1.0000
  H   H202      1.0  0.02663  0.97309  0.20485  1.0000
  H   H203      1.0  0.07516  0.97783  0.22639  1.0000
  C   C200      1.0  0.09344  0.84435  0.19303  1.0000
  C   C201      1.0  0.09650  0.86289  0.16561  1.0000
  C   C202      1.0  0.00127  0.96564  0.20087  1.0000
  H   H204      1.0  0.01069  0.50434  0.00248  1.0000
  H   H205      1.0  0.10917  0.93390  0.11181  1.0000
  C   C203      1.0  0.11220  0.94394  0.12333  1.0000
  C   C204      1.0  0.06126  0.98738  0.23539  1.0000
  H   H206      1.0  0.36282  0.56105  0.99224  1.0000
  C   C205      1.0  0.14970  0.97455  0.14250  1.0000
  H   H207      1.0  0.39179  0.62349  0.00123  1.0000
  H   H208      1.0  0.16819  0.96260  0.11993  1.0000
  H   H209      1.0  0.41428  0.90300  0.00694  1.0000
  H   H210      1.0  0.12359  0.98218  0.16417  1.0000
  H   H211      1.0  0.35746  0.66174  0.00736  1.0000
  C   C206      1.0  0.12618  0.87304  0.19332  1.0000
  C   C207      1.0  0.36396  0.61233  0.00051  1.0000
  H   H212      1.0  0.26631  0.57413  0.99537  1.0000
  N   N17       1.0  0.31267  0.56350  0.99372  1.0000
  C   C208      1.0  0.29363  0.58436  0.99707  1.0000
  H   H213      1.0  0.29401  0.63623  0.00464  1.0000
  C   C209      1.0  0.40435  0.90396  0.99583  1.0000
  H   H214      1.0  0.17006  0.95391  0.18163  1.0000
  H   H215      1.0  0.35926  0.85233  0.00151  1.0000
  S   S59       1.0  0.13529  0.94774  0.21542  1.0000
  H   H216      1.0  0.19494  0.93291  0.17023  1.0000
  C   C210      1.0  0.34473  0.63383  0.00389  1.0000
  C   C211      1.0  0.17588  0.92859  0.18088  1.0000
  H   H217      1.0  0.13687  0.87780  0.20438  1.0000
  H   H218      1.0  0.18834  0.92569  0.19137  1.0000
  C   C212      1.0  0.12033  0.97134  0.15282  1.0000
  N   N18       1.0  0.14345  0.89622  0.18009  1.0000
  C   C213      1.0  0.12928  0.89107  0.16631  1.0000
  C   C214      1.0  0.14555  0.96036  0.12787  1.0000
  H   H219      1.0  0.14309  0.90927  0.15584  1.0000
  C   C215      1.0  0.30925  0.61965  0.00232  1.0000
  C   C216      1.0  0.34740  0.57698  0.99543  1.0000
  H   H220      1.0  0.30569  0.50696  0.99205  1.0000
  Fe  Fe28      1.0  0.14162  0.93961  0.24071  1.0000
  C   C217      1.0  0.37358  0.87557  0.99279  1.0000
  C   C218      1.0  0.16782  0.51672  0.37894  1.0000
  C   C219      1.0  0.02893  0.53378  0.47333  1.0000
  S   S60       1.0  0.26130  0.55440  0.30311  1.0000
  C   C220      1.0  0.45902  0.71412  0.47152  1.0000
  H   H221      1.0  0.45764  0.58161  0.33202  1.0000
  H   H222      1.0  0.37117  0.69182  0.46258  1.0000
  Fe  Fe29      1.0  0.23047  0.70392  0.34040  1.0000
  S   S61       1.0  0.25095  0.74984  0.32093  1.0000
  S   S62       1.0  0.18965  0.64687  0.33995  1.0000
  Fe  Fe30      1.0  0.27761  0.74834  0.36285  1.0000
  S   S63       1.0  0.30148  0.79926  0.34593  1.0000
  S   S64       1.0  0.29187  0.73842  0.38655  1.0000
  Fe  Fe31      1.0  0.24727  0.78608  0.34000  1.0000
  S   S65       1.0  0.22857  0.83267  0.33722  1.0000
  Fe  Fe32      1.0  0.30324  0.75952  0.32829  1.0000
  S   S66       1.0  0.35214  0.77601  0.31146  1.0000
  S   S67       1.0  0.22286  0.73914  0.35907  1.0000
  S   S68       1.0  0.28325  0.70938  0.34560  1.0000
  H   H223      1.0  0.48941  0.64382  0.31767  1.0000
  H   H224      1.0  0.25901  0.80011  0.38992  1.0000
  S   S69       1.0  0.20397  0.87557  0.26906  1.0000
  N   N19       1.0  0.01720  0.52544  0.43403  1.0000
  C   C221      1.0  0.28669  0.83209  0.41383  1.0000
  S   S70       1.0  0.47653  0.79010  0.34991  1.0000
  H   H225      1.0  0.23709  0.75842  0.40283  1.0000
  H   H226      1.0  0.14675  0.80130  0.32338  1.0000
  H   H227      1.0  0.31612  0.67641  0.42231  1.0000
  Fe  Fe33      1.0  0.40198  0.59738  0.43353  1.0000
  Fe  Fe34      1.0  0.11231  0.58296  0.45403  1.0000
  C   C222      1.0  0.28558  0.66832  0.46104  1.0000
  Fe  Fe35      1.0  0.40319  0.86305  0.44023  1.0000
  S   S71       1.0  0.40419  0.87254  0.41415  1.0000
  S   S72       1.0  0.44953  0.89683  0.45177  1.0000
  S   S73       1.0  0.39672  0.80864  0.45239  1.0000
  H   H228      1.0  0.26077  0.66189  0.43997  1.0000
  H   H229      1.0  0.08270  0.82057  0.28098  1.0000
  H   H230      1.0  0.42272  0.80684  0.38353  1.0000
  Fe  Fe36      1.0  0.16161  0.98191  0.26903  1.0000
  H   H231      1.0  0.09058  0.85875  0.30353  1.0000
  H   H232      1.0  0.28057  0.75892  0.42784  1.0000
  C   C223      1.0  0.28961  0.57277  0.42416  1.0000
  H   H233      1.0  0.28854  0.56705  0.41198  1.0000
  N   N20       1.0  0.41834  0.57164  0.37284  1.0000
  C   C224      1.0  0.25971  0.57224  0.44997  1.0000
  C   C225      1.0  0.32694  0.77461  0.39279  1.0000
  C   C226      1.0  0.34359  0.80910  0.38401  1.0000
  C   C227      1.0  0.36839  0.83890  0.39039  1.0000
  C   C228      1.0  0.37614  0.83425  0.40560  1.0000
  C   C229      1.0  0.36087  0.79923  0.41393  1.0000
  C   C230      1.0  0.33672  0.76941  0.40746  1.0000
  H   H234      1.0  0.33678  0.81322  0.37255  1.0000
  H   H235      1.0  0.38063  0.86584  0.38375  1.0000
  H   H236      1.0  0.36704  0.79506  0.42548  1.0000
  H   H237      1.0  0.32436  0.74263  0.41416  1.0000
  C   C231      1.0  0.44235  0.78895  0.33945  1.0000
  C   C232      1.0  0.44872  0.79886  0.32326  1.0000
  C   C233      1.0  0.42105  0.79544  0.31472  1.0000
  C   C234      1.0  0.38685  0.78205  0.32236  1.0000
  C   C235      1.0  0.38056  0.77313  0.33865  1.0000
  C   C236      1.0  0.40827  0.77666  0.34719  1.0000
  H   H238      1.0  0.47038  0.69589  0.46659  1.0000
  H   H239      1.0  0.42622  0.80322  0.30220  1.0000
  H   H240      1.0  0.35434  0.76317  0.34471  1.0000
  H   H241      1.0  0.40310  0.76904  0.35971  1.0000
  C   C237      1.0  0.22086  0.84412  0.31835  1.0000
  C   C238      1.0  0.22040  0.82133  0.30625  1.0000
  C   C239      1.0  0.21425  0.83080  0.29129  1.0000
  C   C240      1.0  0.20826  0.86303  0.28832  1.0000
  C   C241      1.0  0.20802  0.88562  0.30046  1.0000
  C   C242      1.0  0.21442  0.87620  0.31546  1.0000
  H   H242      1.0  0.22445  0.79622  0.30836  1.0000
  H   H243      1.0  0.21430  0.81315  0.28195  1.0000
  H   H244      1.0  0.20392  0.91087  0.29819  1.0000
  H   H245      1.0  0.21474  0.89400  0.32478  1.0000
  C   C243      1.0  0.41103  0.57001  0.32105  1.0000
  C   C244      1.0  0.44505  0.59192  0.32373  1.0000
  C   C245      1.0  0.46303  0.62715  0.31562  1.0000
  C   C246      1.0  0.44732  0.64025  0.30454  1.0000
  C   C247      1.0  0.41349  0.61807  0.30165  1.0000
  C   C248      1.0  0.39508  0.58319  0.31010  1.0000
  C   C249      1.0  0.45980  0.98457  0.48367  1.0000
  C   C250      1.0  0.21390  0.51419  0.39977  1.0000
  H   H246      1.0  0.40144  0.62794  0.29296  1.0000
  H   H247      1.0  0.36888  0.56620  0.30791  1.0000
  C   C251      1.0  0.24070  0.57961  0.31320  1.0000
  C   C252      1.0  0.25155  0.61765  0.30898  1.0000
  C   C253      1.0  0.23609  0.63842  0.31733  1.0000
  C   C254      1.0  0.20866  0.62079  0.32943  1.0000
  C   C255      1.0  0.19724  0.58253  0.33342  1.0000
  C   C256      1.0  0.21386  0.56208  0.32556  1.0000
  H   H248      1.0  0.27223  0.63118  0.29939  1.0000
  H   H249      1.0  0.24494  0.66795  0.31422  1.0000
  H   H250      1.0  0.17594  0.56881  0.34274  1.0000
  H   H251      1.0  0.20539  0.53265  0.32883  1.0000
  H   H252      1.0  0.23994  0.72151  0.48447  1.0000
  C   C257      1.0  0.46003  0.76892  0.39620  1.0000
  C   C258      1.0  0.28514  0.66831  0.44480  1.0000
  S   S74       1.0  0.14648  0.93049  0.28565  1.0000
  Fe  Fe37      1.0  0.43932  0.84321  0.46557  1.0000
  S   S75       1.0  0.30144  0.53733  0.33954  1.0000
  H   H253      1.0  0.23581  0.57569  0.35941  1.0000
  N   N21       1.0  0.38858  0.69355  0.30676  1.0000
  C   C259      1.0  0.35671  0.66510  0.30672  1.0000
  C   C260      1.0  0.40606  0.69695  0.31957  1.0000
  C   C261      1.0  0.34201  0.63838  0.31957  1.0000
  C   C262      1.0  0.39213  0.67080  0.33263  1.0000
  C   C263      1.0  0.36000  0.64120  0.33255  1.0000
  C   C264      1.0  0.40398  0.72006  0.29281  1.0000
  H   H254      1.0  0.34282  0.66248  0.29658  1.0000
  H   H255      1.0  0.43141  0.71938  0.31957  1.0000
  H   H256      1.0  0.31714  0.61531  0.31929  1.0000
  H   H257      1.0  0.40659  0.67327  0.34256  1.0000
  H   H258      1.0  0.34925  0.62025  0.34243  1.0000
  H   H259      1.0  0.43099  0.73983  0.29391  1.0000
  H   H260      1.0  0.40592  0.70497  0.28234  1.0000
  H   H261      1.0  0.38783  0.73627  0.29103  1.0000
  H   H262      1.0  0.21479  0.78838  0.39870  1.0000
  C   C265      1.0  0.03391  0.92672  0.29578  1.0000
  C   C266      1.0  0.01616  0.56218  0.43526  1.0000
  C   C267      1.0  0.42967  0.76176  0.48386  1.0000
  S   S76       1.0  0.31067  0.77519  0.48131  1.0000
  N   N22       1.0  0.31365  0.86558  0.29810  1.0000
  C   C268      1.0  0.30393  0.89320  0.29299  1.0000
  C   C269      1.0  0.31132  0.83694  0.28909  1.0000
  C   C270      1.0  0.29245  0.89322  0.27828  1.0000
  C   C271      1.0  0.29962  0.83590  0.27438  1.0000
  C   C272      1.0  0.29019  0.86430  0.26896  1.0000
  C   C273      1.0  0.32515  0.86612  0.31364  1.0000
  H   H263      1.0  0.30438  0.91503  0.30042  1.0000
  H   H264      1.0  0.31829  0.81455  0.29329  1.0000
  H   H265      1.0  0.28387  0.91462  0.27440  1.0000
  H   H266      1.0  0.29743  0.81295  0.26734  1.0000
  H   H267      1.0  0.28006  0.86342  0.25779  1.0000
  H   H268      1.0  0.30232  0.85870  0.32286  1.0000
  S   S77       1.0  0.11230  0.96109  0.25800  1.0000
  H   H269      1.0  0.34461  0.89417  0.31527  1.0000
  S   S78       1.0  0.45334  0.59443  0.42572  1.0000
  S   S79       1.0  0.48216  0.82443  0.46886  1.0000
  S   S80       1.0  0.13372  0.54663  0.39985  1.0000
  H   H270      1.0  0.34700  0.60050  0.45086  1.0000
  C   C274      1.0  0.10146  0.83775  0.30301  1.0000
  H   H271      1.0  0.13739  0.88643  0.32279  1.0000
  Fe  Fe38      1.0  0.36125  0.82053  0.47061  1.0000
  C   C275      1.0  0.19755  0.65272  0.38765  1.0000
  C   C276      1.0  0.24902  0.72944  0.47209  1.0000
  H   H272      1.0  0.33779  0.84619  0.31528  1.0000
  H   H273      1.0  0.23412  0.55639  0.42946  1.0000
  H   H274      1.0  0.22504  0.80838  0.45284  1.0000
  H   H275      1.0  0.33595  0.55478  0.38920  1.0000
  S   S81       1.0  0.39491  0.56830  0.45743  1.0000
  H   H276      1.0  0.20394  0.77901  0.42891  1.0000
  S   S82       1.0  0.42576  0.65434  0.44117  1.0000
  Fe  Fe39      1.0  0.17731  0.64503  0.43719  1.0000
  S   S83       1.0  0.19902  0.60579  0.42725  1.0000
  Fe  Fe40      1.0  0.17318  0.91090  0.26612  1.0000
  C   C277      1.0  0.18731  0.52611  0.40452  1.0000
  H   H277      1.0  0.18791  0.65965  0.37687  1.0000
  Fe  Fe41      1.0  0.27026  0.51512  0.31995  1.0000
  C   C278      1.0  0.31623  0.67667  0.43491  1.0000
  H   H278      1.0  0.32046  0.78677  0.44749  1.0000
  S   S84       1.0  0.46069  0.51892  0.45255  1.0000
  H   H279      1.0  0.47404  0.59089  0.36880  1.0000
  C   C279      1.0  0.27199  0.75049  0.44016  1.0000
  S   S85       1.0  0.41675  0.95346  0.48263  1.0000
  C   C280      1.0  0.12505  0.85674  0.32754  1.0000
  S   S86       1.0  0.21058  0.70535  0.43070  1.0000
  N   N23       1.0  0.31621  0.67659  0.46725  1.0000
  S   S87       1.0  0.38907  0.52626  0.33153  1.0000
  N   N24       1.0  0.45536  0.80053  0.39971  1.0000
  H   H280      1.0  0.20954  0.67891  0.39336  1.0000
  H   H281      1.0  0.28686  0.85254  0.45187  1.0000
  C   C281      1.0  0.45319  0.60187  0.36978  1.0000
  C   C282      1.0  0.29444  0.76624  0.45128  1.0000
  S   S88       1.0  0.46940  0.68494  0.29483  1.0000
  C   C283      1.0  0.29166  0.58473  0.45596  1.0000
  C   C284      1.0  0.11080  0.78918  0.28941  1.0000
  H   H282      1.0  0.10795  0.77277  0.27941  1.0000
  C   C285      1.0  0.23815  0.72418  0.44492  1.0000
  S   S89       1.0  0.22094  0.56055  0.46274  1.0000
  Fe  Fe42      1.0  0.41029  0.90169  0.47042  1.0000
  S   S90       1.0  0.35893  0.58624  0.41856  1.0000
  S   S91       1.0  0.12434  0.61432  0.43021  1.0000
  C   C286      1.0  0.12846  0.78352  0.30151  1.0000
  H   H283      1.0  0.28593  0.58721  0.37441  1.0000
  C   C287      1.0  0.32136  0.58397  0.43030  1.0000
  C   C288      1.0  0.25881  0.56695  0.43401  1.0000
  C   C289      1.0  0.35137  0.51571  0.37701  1.0000
  C   C290      1.0  0.21705  0.61159  0.37237  1.0000
  H   H284      1.0  0.04273  0.58371  0.43575  1.0000
  H   H285      1.0  0.13955  0.76272  0.30099  1.0000
  H   H286      1.0  0.19408  0.60467  0.36640  1.0000
  S   S92       1.0  0.12543  0.88443  0.25431  1.0000
  C   C291      1.0  0.28296  0.75570  0.46727  1.0000
  N   N25       1.0  0.22273  0.63596  0.38369  1.0000
  H   H287      1.0  0.25485  0.66215  0.40098  1.0000
  H   H288      1.0  0.17492  0.63278  0.39572  1.0000
  H   H289      1.0  0.23195  0.51393  0.40777  1.0000
  H   H290      1.0  0.41805  0.78003  0.48855  1.0000
  H   H291      1.0  0.20016  0.69430  0.46476  1.0000
  C   C292      1.0  0.34738  0.68524  0.44133  1.0000
  C   C293      1.0  0.25062  0.64310  0.39187  1.0000
  C   C294      1.0  0.21764  0.50342  0.38463  1.0000
  H   H292      1.0  0.39571  0.60415  0.38553  1.0000
  C   C295      1.0  0.01239  0.94425  0.30176  1.0000
  C   C296      1.0  0.29947  0.84886  0.42719  1.0000
  H   H293      1.0  0.29253  0.58920  0.46828  1.0000
  C   C297      1.0  0.03693  0.96222  0.24710  1.0000
  H   H294      1.0  0.45824  0.62050  0.37945  1.0000
  Fe  Fe43      1.0  0.33111  0.50343  0.33147  1.0000
  C   C298      1.0  0.37913  0.50965  0.36907  1.0000
  Fe  Fe44      1.0  0.18188  0.57540  0.45118  1.0000
  C   C299      1.0  0.47678  0.75271  0.46828  1.0000
  H   H295      1.0  0.29568  0.63121  0.39530  1.0000
  H   H296      1.0  0.45254  0.83595  0.41756  1.0000
  H   H297      1.0  0.45571  0.61850  0.35857  1.0000
  C   C300      1.0  0.32249  0.59088  0.44611  1.0000
  C   C301      1.0  0.46188  0.77651  0.47428  1.0000
  S   S93       1.0  0.12865  0.53763  0.44597  1.0000
  N   N26       1.0  0.25268  0.80762  0.41449  1.0000
  H   H298      1.0  0.26120  0.66158  0.46862  1.0000
  S   S94       1.0  0.40344  0.85008  0.48514  1.0000
  H   H299      1.0  0.06142  0.93826  0.29702  1.0000
  Fe  Fe45      1.0  0.42316  0.62576  0.46454  1.0000
  C   C302      1.0  0.34691  0.68521  0.45763  1.0000
  C   C303      1.0  0.27708  0.84068  0.44128  1.0000
  N   N27       1.0  0.11967  0.83275  0.31459  1.0000
  C   C304      1.0  0.24029  0.78784  0.40078  1.0000
  C   C305      1.0  0.13254  0.80557  0.31414  1.0000
  H   H300      1.0  0.32680  0.86732  0.42668  1.0000
  C   C306      1.0  0.27388  0.62581  0.38866  1.0000
  H   H301      1.0  0.14267  0.85199  0.33541  1.0000
  C   C307      1.0  0.23050  0.79961  0.42823  1.0000
  H   H302      1.0  0.09962  0.85147  0.33463  1.0000
  H   H303      1.0  0.02331  0.96917  0.30771  1.0000
  S   S95       1.0  0.47666  0.62513  0.45993  1.0000
  Fe  Fe46      1.0  0.09999  0.90795  0.27257  1.0000
  S   S96       1.0  0.16403  0.61736  0.46160  1.0000
  Fe  Fe47      1.0  0.44877  0.57013  0.45046  1.0000
  C   C308      1.0  0.24035  0.59472  0.36852  1.0000
  C   C309      1.0  0.24231  0.81605  0.44181  1.0000
  H   H304      1.0  0.30436  0.83821  0.40303  1.0000
  S   S97       1.0  0.36439  0.87274  0.45757  1.0000
  C   C310      1.0  0.22661  0.71371  0.46092  1.0000
  H   H305      1.0  0.37169  0.69153  0.43379  1.0000
  Fe  Fe48      1.0  0.14463  0.57174  0.42271  1.0000
  C   C311      1.0  0.26861  0.60143  0.37690  1.0000
  S   S98       1.0  0.06212  0.57807  0.46805  1.0000
  H   H306      1.0  0.03151  0.93275  0.24727  1.0000
  C   C312      1.0  0.09685  0.81616  0.29023  1.0000
  C   C313      1.0  0.01946  0.89349  0.28878  1.0000
  S   S99       1.0  0.04539  0.86981  0.28222  1.0000
  H   H307      1.0  0.48314  0.96260  0.46538  1.0000
  C   C314      1.0  0.42685  0.69931  0.48115  1.0000
  S   S100      1.0  0.19235  0.96423  0.25052  1.0000
  C   C315      1.0  0.45652  0.81107  0.41470  1.0000
  C   C316      1.0  0.44864  0.82264  0.38727  1.0000
  H   H308      1.0  0.47508  0.80990  0.31732  1.0000
  C   C317      1.0  0.46326  0.79014  0.42656  1.0000
  C   C318      1.0  0.41254  0.53823  0.36688  1.0000
  H   H309      1.0  0.00016  0.56275  0.44633  1.0000
  H   H310      1.0  0.06089  0.50324  0.46754  1.0000
  C   C319      1.0  0.49181  0.53654  0.47960  1.0000
  C   C320      1.0  0.46827  0.75802  0.42307  1.0000
  C   C321      1.0  0.39128  0.57771  0.38078  1.0000
  C   C322      1.0  0.16465  0.52811  0.39407  1.0000
  H   H311      1.0  0.18429  0.53375  0.41632  1.0000
  S   S101      1.0  0.40315  0.65100  0.48410  1.0000
  C   C323      1.0  0.48771  0.98331  0.47367  1.0000
  H   H312      1.0  0.00150  0.95575  0.26796  1.0000
  H   H313      1.0  0.45923  0.76070  0.38428  1.0000
  H   H314      1.0  0.15023  0.51813  0.37081  1.0000
  H   H315      1.0  0.33343  0.66400  0.48833  1.0000
  S   S102      1.0  0.49379  0.70934  0.33538  1.0000
  H   H316      1.0  0.46897  0.82932  0.37692  1.0000
  C   C324      1.0  0.35741  0.54990  0.38295  1.0000
  C   C325      1.0  0.04557  0.52234  0.42582  1.0000
  H   H317      1.0  0.48458  0.56018  0.47952  1.0000
  H   H318      1.0  0.06748  0.54685  0.42032  1.0000
  H   H319      1.0  0.44889  0.84942  0.39116  1.0000
  C   C326      1.0  0.19435  0.50429  0.37421  1.0000
  Fe  Fe49      1.0  0.47673  0.64911  0.43579  1.0000
  C   C327      1.0  0.41256  0.72325  0.48758  1.0000
  H   H320      1.0  0.43347  0.53386  0.35987  1.0000
  H   H321      1.0  0.25944  0.51227  0.47537  1.0000
  H   H322      1.0  0.46487  0.79889  0.43838  1.0000
  C   C328      1.0  0.02036  0.97544  0.25889  1.0000
  C   C329      1.0  0.46632  0.74708  0.40784  1.0000
  C   C330      1.0  0.31667  0.67777  0.48424  1.0000
  H   H323      1.0  0.32702  0.70720  0.48712  1.0000
  H   H324      1.0  0.47024  0.72212  0.40507  1.0000
  H   H325      1.0  0.30507  0.52295  0.47115  1.0000
  H   H326      1.0  0.47399  0.74180  0.43213  1.0000
  C   C331      1.0  0.48227  0.51161  0.46806  1.0000
  H   H327      1.0  0.00518  0.56964  0.42508  1.0000
  C   C332      1.0  0.27872  0.50120  0.47041  1.0000
  H   H328      1.0  0.32841  0.50618  0.44722  1.0000
  C   C333      1.0  0.03496  0.50139  0.47158  1.0000
  H   H329      1.0  0.29014  0.66320  0.49084  1.0000
  N   N28       1.0  0.27420  0.49276  0.45412  1.0000
  C   C334      1.0  0.30243  0.49597  0.44371  1.0000
  H   H330      1.0  0.32513  0.49418  0.37831  1.0000
  H   H331      1.0  0.19701  0.49589  0.36248  1.0000
  C   C335      1.0  0.12573  0.98652  0.70890  1.0000
  C   C336      1.0  0.04869  0.93604  0.63891  1.0000
  H   H332      1.0  0.44109  0.89552  0.50996  1.0000
  H   H333      1.0  0.09170  0.96511  0.67044  1.0000
  C   C337      1.0  0.48266  0.94583  0.51472  1.0000
  C   C338      1.0  0.07280  0.94744  0.66349  1.0000
  H   H334      1.0  0.04913  0.94454  0.62675  1.0000
  H   H335      1.0  0.04872  0.90272  0.68196  1.0000
  C   C339      1.0  0.01506  0.79609  0.64066  1.0000
  C   C340      1.0  0.10498  0.94430  0.73269  1.0000
  H   H336      1.0  0.38797  0.71206  0.49518  1.0000
  H   H337      1.0  0.00898  0.77706  0.66508  1.0000
  C   C341      1.0  0.07299  0.95930  0.64788  1.0000
  H   H338      1.0  0.46579  0.95422  0.52268  1.0000
  C   C342      1.0  0.10848  0.95032  0.71631  1.0000
  H   H339      1.0  0.03346  0.82398  0.64209  1.0000
  C   C343      1.0  0.02406  0.90133  0.64548  1.0000
  H   H340      1.0  0.09854  0.92696  0.70934  1.0000
  C   C344      1.0  0.02393  0.88918  0.66098  1.0000
  C   C345      1.0  0.04844  0.91219  0.66999  1.0000
  H   H341      1.0  0.01964  0.89045  0.72802  1.0000
  H   H342      1.0  0.01408  0.80741  0.61600  1.0000
  C   C346      1.0  0.20367  0.98316  0.72660  1.0000
  C   C347      1.0  0.49053  0.90283  0.49700  1.0000
  C   C348      1.0  0.00135  0.76966  0.65359  1.0000
  H   H343      1.0  0.04711  0.96555  0.70401  1.0000
  H   H344      1.0  0.18297  0.96523  0.71995  1.0000
  C   C349      1.0  0.00419  0.78683  0.62606  1.0000
  H   H345      1.0  0.00569  0.88369  0.63838  1.0000
  C   C350      1.0  0.46877  0.91292  0.50752  1.0000
  H   H346      1.0  0.22306  0.97067  0.72772  1.0000
  H   H347      1.0  0.12855  0.99111  0.69626  1.0000
  H   H348      1.0  0.19073  0.98326  0.73856  1.0000
  H   H349      1.0  0.48005  0.87722  0.49135  1.0000
  Fe  Fe50      1.0  0.12516  0.55245  0.96680  1.0000
  S   S103      1.0  0.13081  0.52993  0.94366  1.0000
  H   H350      1.0  0.22948  0.50415  0.81532  1.0000
  Fe  Fe51      1.0  0.20374  0.59229  0.96643  1.0000
  S   S104      1.0  0.21623  0.57203  0.94349  1.0000
  C   C351      1.0  0.41975  0.82130  0.86204  1.0000
  Fe  Fe52      1.0  0.17286  0.58639  0.93607  1.0000
  S   S105      1.0  0.17635  0.61864  0.91320  1.0000
  Fe  Fe53      1.0  0.17353  0.51764  0.95311  1.0000
  C   C352      1.0  0.17469  0.62645  0.86378  1.0000
  S   S106      1.0  0.16326  0.61046  0.95842  1.0000
  H   H351      1.0  0.03079  0.89248  0.79319  1.0000
  Fe  Fe54      1.0  0.42286  0.80504  0.92153  1.0000
  C   C353      1.0  0.20684  0.78109  0.79356  1.0000
  Fe  Fe55      1.0  0.37314  0.81008  0.94880  1.0000
  S   S107      1.0  0.41584  0.83691  0.96352  1.0000
  S   S108      1.0  0.31628  0.79703  0.95561  1.0000
  Fe  Fe56      1.0  0.44477  0.87110  0.94099  1.0000
  H   H352      1.0  0.23784  0.75683  0.80465  1.0000
  Fe  Fe57      1.0  0.43711  0.79565  0.95481  1.0000
  H   H353      1.0  0.49685  0.81027  0.82331  1.0000
  S   S109      1.0  0.40022  0.84692  0.92685  1.0000
  S   S110      1.0  0.39156  0.76584  0.94213  1.0000
  S   S111      1.0  0.37092  0.52498  0.93262  1.0000
  Fe  Fe58      1.0  0.31627  0.71531  0.84977  1.0000
  S   S112      1.0  0.26322  0.69475  0.84211  1.0000
  S   S113      1.0  0.32457  0.69282  0.87270  1.0000
  Fe  Fe59      1.0  0.35087  0.76247  0.81936  1.0000
  S   S114      1.0  0.30082  0.74595  0.80877  1.0000
  S   S115      1.0  0.40026  0.80557  0.80627  1.0000
  Fe  Fe60      1.0  0.27769  0.75335  0.83238  1.0000
  S   S116      1.0  0.23851  0.77934  0.83655  1.0000
  Fe  Fe61      1.0  0.29015  0.68873  0.81930  1.0000
  S   S117      1.0  0.26507  0.63844  0.80659  1.0000
  S   S118      1.0  0.32874  0.77500  0.84228  1.0000
  S   S119      1.0  0.34233  0.70425  0.82765  1.0000
  Fe  Fe62      1.0  0.16341  0.93919  0.78390  1.0000
  H   H354      1.0  0.46351  0.72286  0.80607  1.0000
  H   H355      1.0  0.40987  0.54823  0.88158  1.0000
  H   H356      1.0  0.24643  0.91406  0.81839  1.0000
  C   C354      1.0  0.38338  0.64911  0.81520  1.0000
  H   H357      1.0  0.38163  0.62589  0.84450  1.0000
  Fe  Fe63      1.0  0.09399  0.88190  0.79930  1.0000
  S   S120      1.0  0.05406  0.86710  0.82056  1.0000
  C   C355      1.0  0.42166  0.50789  0.89480  1.0000
  S   S121      1.0  0.14927  0.89111  0.80195  1.0000
  C   C356      1.0  0.36830  0.90616  0.95157  1.0000
  C   C357      1.0  0.41894  0.58283  0.82040  1.0000
  C   C358      1.0  0.41514  0.57099  0.83630  1.0000
  H   H358      1.0  0.27543  0.51277  0.90791  1.0000
  H   H359      1.0  0.39567  0.54426  0.84092  1.0000
  C   C359      1.0  0.29948  0.69631  0.97633  1.0000
  Fe  Fe64      1.0  0.38547  0.55663  0.95350  1.0000
  C   C360      1.0  0.46289  0.81621  0.78964  1.0000
  C   C361      1.0  0.49182  0.77346  0.79111  1.0000
  H   H360      1.0  0.29798  0.82733  0.81286  1.0000
  H   H361      1.0  0.22810  0.92105  0.79225  1.0000
  H   H362      1.0  0.17154  0.61587  0.87599  1.0000
  H   H363      1.0  0.41234  0.73871  0.81355  1.0000
  C   C362      1.0  0.43422  0.75766  0.80561  1.0000
  C   C363      1.0  0.43431  0.79172  0.79996  1.0000
  C   C364      1.0  0.46830  0.63890  0.82423  1.0000
  S   S122      1.0  0.08938  0.84373  0.78023  1.0000
  H   H364      1.0  0.35394  0.92465  0.95124  1.0000
  C   C365      1.0  0.48476  0.82701  0.88779  1.0000
  H   H365      1.0  0.46309  0.84255  0.78520  1.0000
  C   C366      1.0  0.49245  0.95379  0.95464  1.0000
  C   C367      1.0  0.25544  0.59717  0.81834  1.0000
  C   C368      1.0  0.25924  0.59774  0.83433  1.0000
  C   C369      1.0  0.25148  0.56442  0.84355  1.0000
  C   C370      1.0  0.24087  0.53067  0.83668  1.0000
  C   C371      1.0  0.24413  0.56333  0.81158  1.0000
  H   H366      1.0  0.26836  0.62377  0.83961  1.0000
  H   H367      1.0  0.25463  0.56492  0.85589  1.0000
  H   H368      1.0  0.24121  0.56278  0.79921  1.0000
  C   C372      1.0  0.21733  0.78610  0.82079  1.0000
  C   C373      1.0  0.19630  0.80636  0.82275  1.0000
  C   C374      1.0  0.18111  0.81458  0.81007  1.0000
  C   C375      1.0  0.18683  0.80254  0.79537  1.0000
  S   S123      1.0  0.24805  0.62661  0.97914  1.0000
  C   C376      1.0  0.22208  0.77289  0.80624  1.0000
  H   H369      1.0  0.19218  0.81627  0.83403  1.0000
  H   H370      1.0  0.16509  0.83031  0.81171  1.0000
  H   H371      1.0  0.47884  0.84620  0.89507  1.0000
  H   H372      1.0  0.46494  0.86626  0.84999  1.0000
  H   H373      1.0  0.21870  0.67559  0.96565  1.0000
  C   C377      1.0  0.43128  0.71417  0.96827  1.0000
  C   C378      1.0  0.44565  0.68754  0.96633  1.0000
  C   C379      1.0  0.42438  0.65120  0.96341  1.0000
  C   C380      1.0  0.46510  0.62642  0.84002  1.0000
  H   H374      1.0  0.43564  0.63096  0.96151  1.0000
  H   H375      1.0  0.47309  0.62651  0.88835  1.0000
  H   H376      1.0  0.06371  0.93869  0.82885  1.0000
  C   C381      1.0  0.21825  0.63961  0.90259  1.0000
  C   C382      1.0  0.22598  0.67082  0.89208  1.0000
  C   C383      1.0  0.25876  0.68733  0.88299  1.0000
  C   C384      1.0  0.28401  0.67278  0.88444  1.0000
  C   C385      1.0  0.27661  0.64196  0.89515  1.0000
  C   C386      1.0  0.24363  0.62523  0.90414  1.0000
  H   H377      1.0  0.20664  0.68239  0.89104  1.0000
  H   H378      1.0  0.26463  0.71171  0.87503  1.0000
  H   H379      1.0  0.29604  0.63052  0.89623  1.0000
  H   H380      1.0  0.23758  0.60058  0.91189  1.0000
  C   C387      1.0  0.45301  0.51238  0.82649  1.0000
  C   C388      1.0  0.44099  0.77664  0.84306  1.0000
  Fe  Fe65      1.0  0.42517  0.52714  0.93030  1.0000
  H   H381      1.0  0.42434  0.95683  0.96116  1.0000
  H   H382      1.0  0.48894  0.66495  0.81944  1.0000
  C   C389      1.0  0.33360  0.59267  0.81578  1.0000
  C   C390      1.0  0.26509  0.67478  0.97403  1.0000
  C   C391      1.0  0.08604  0.96210  0.82292  1.0000
  C   C392      1.0  0.31492  0.73408  0.97096  1.0000
  C   C393      1.0  0.29576  0.75072  0.96362  1.0000
  C   C394      1.0  0.26075  0.72980  0.96205  1.0000
  C   C395      1.0  0.24549  0.69174  0.96714  1.0000
  H   H383      1.0  0.24414  0.50904  0.95236  1.0000
  H   H384      1.0  0.34168  0.75042  0.97253  1.0000
  H   H385      1.0  0.24571  0.74274  0.95652  1.0000
  S   S124      1.0  0.44646  0.50197  0.98658  1.0000
  S   S125      1.0  0.39163  0.55501  0.80778  1.0000
  H   H386      1.0  0.12281  0.94131  0.83085  1.0000
  C   C396      1.0  0.43801  0.59292  0.84612  1.0000
  C   C397      1.0  0.48059  0.54728  0.82464  1.0000
  S   S126      1.0  0.21116  0.98991  0.78609  1.0000
  C   C398      1.0  0.44691  0.63482  0.90991  1.0000
  H   H387      1.0  0.17890  0.68995  0.81429  1.0000
  Fe  Fe66      1.0  0.34843  0.50334  0.81984  1.0000
  C   C399      1.0  0.46032  0.50729  0.85385  1.0000
  H   H388      1.0  0.24834  0.49668  0.88323  1.0000
  H   H389      1.0  0.41222  0.83882  0.86975  1.0000
  H   H390      1.0  0.47339  0.69543  0.96644  1.0000
  H   H391      1.0  0.36133  0.63310  0.77844  1.0000
  C   C400      1.0  0.49714  0.56182  0.83763  1.0000
  C   C401      1.0  0.46847  0.76551  0.87883  1.0000
  C   C402      1.0  0.49135  0.80690  0.78506  1.0000
  H   H392      1.0  0.42543  0.65167  0.93047  1.0000
  S   S127      1.0  0.45822  0.76113  0.96876  1.0000
  C   C403      1.0  0.46074  0.79024  0.88820  1.0000
  H   H393      1.0  0.30348  0.53164  0.97421  1.0000
  N   N29       1.0  0.48678  0.54190  0.85202  1.0000
  S   S128      1.0  0.36766  0.50584  0.97028  1.0000
  H   H394      1.0  0.31362  0.56799  0.82222  1.0000
  C   C404      1.0  0.19108  0.66972  0.81614  1.0000
  C   C405      1.0  0.44533  0.61701  0.81441  1.0000
  C   C406      1.0  0.25376  0.90079  0.80864  1.0000
  S   S129      1.0  0.46906  0.93368  0.93926  1.0000
  C   C407      1.0  0.03833  0.49958  0.98068  1.0000
  C   C408      1.0  0.17277  0.66055  0.86006  1.0000
  H   H395      1.0  0.44654  0.95572  0.98664  1.0000
  H   H396      1.0  0.16832  0.67672  0.86935  1.0000
  H   H397      1.0  0.29766  0.49541  0.95128  1.0000
  C   C409      1.0  0.35541  0.61348  0.84056  1.0000
  H   H398      1.0  0.43328  0.71577  0.93302  1.0000
  N   N30       1.0  0.18380  0.65411  0.83255  1.0000
  H   H399      1.0  0.37740  0.77070  0.87223  1.0000
  C   C410      1.0  0.17766  0.67420  0.84429  1.0000
  H   H400      1.0  0.48787  0.56379  0.81340  1.0000
  N   N31       1.0  0.38037  0.90541  0.96694  1.0000
  H   H401      1.0  0.19180  0.60535  0.82681  1.0000
  H   H402      1.0  0.29781  0.81782  0.79276  1.0000
  H   H403      1.0  0.33157  0.85920  0.79819  1.0000
  H   H404      1.0  0.39087  0.91633  0.94207  1.0000
  H   H405      1.0  0.04201  0.97942  0.79933  1.0000
  H   H406      1.0  0.18371  0.58024  0.85449  1.0000
  C   C411      1.0  0.46322  0.74879  0.80141  1.0000
  C   C412      1.0  0.40020  0.78304  0.86345  1.0000
  N   N32       1.0  0.30025  0.69863  0.92349  1.0000
  C   C413      1.0  0.33243  0.70858  0.91497  1.0000
  C   C414      1.0  0.28766  0.66876  0.93453  1.0000
  C   C415      1.0  0.35259  0.68797  0.91718  1.0000
  C   C416      1.0  0.30736  0.64789  0.93723  1.0000
  C   C417      1.0  0.33995  0.65751  0.92843  1.0000
  C   C418      1.0  0.28000  0.72125  0.92132  1.0000
  H   H407      1.0  0.34256  0.73233  0.90624  1.0000
  H   H408      1.0  0.26214  0.66074  0.94126  1.0000
  H   H409      1.0  0.37786  0.69585  0.91021  1.0000
  H   H410      1.0  0.29748  0.62457  0.94619  1.0000
  H   H411      1.0  0.35535  0.64141  0.93038  1.0000
  H   H412      1.0  0.28850  0.74508  0.92866  1.0000
  H   H413      1.0  0.28370  0.73204  0.90882  1.0000
  H   H414      1.0  0.25155  0.70462  0.92465  1.0000
  H   H415      1.0  0.38407  0.72379  0.97056  1.0000
  C   C419      1.0  0.49078  0.68449  0.89248  1.0000
  C   C420      1.0  0.46004  0.72551  0.92653  1.0000
  H   H416      1.0  0.21976  0.68406  0.81273  1.0000
  S   S130      1.0  0.10832  0.93372  0.78340  1.0000
  H   H417      1.0  0.34690  0.66044  0.96464  1.0000
  C   C421      1.0  0.40543  0.51923  0.88344  1.0000
  H   H418      1.0  0.43892  0.50159  0.81667  1.0000
  N   N33       1.0  0.28185  0.86184  0.79846  1.0000
  C   C422      1.0  0.27317  0.87920  0.81068  1.0000
  C   C423      1.0  0.27177  0.86548  0.78405  1.0000
  H   H419      1.0  0.28067  0.87580  0.82217  1.0000
  C   C424      1.0  0.25218  0.88666  0.78164  1.0000
  C   C425      1.0  0.24335  0.90460  0.79399  1.0000
  C   C426      1.0  0.30343  0.84063  0.80065  1.0000
  Fe  Fe67      1.0  0.10800  0.89631  0.76425  1.0000
  N   N34       1.0  0.08149  0.98926  0.81405  1.0000
  H   H420      1.0  0.33853  0.62688  0.84600  1.0000
  S   S131      1.0  0.16505  0.53625  0.97688  1.0000
  H   H421      1.0  0.24305  0.88832  0.77037  1.0000
  S   S132      1.0  0.47022  0.83229  0.93352  1.0000
  C   C427      1.0  0.01127  0.88728  0.80325  1.0000
  H   H422      1.0  0.11483  0.97027  0.75424  1.0000
  C   C428      1.0  0.44962  0.83655  0.85094  1.0000
  H   H423      1.0  0.17750  0.70144  0.84153  1.0000
  C   C429      1.0  0.39546  0.70381  0.96831  1.0000
  C   C430      1.0  0.18587  0.62072  0.83610  1.0000
  H   H424      1.0  0.27811  0.85126  0.77442  1.0000
  S   S133      1.0  0.42043  0.77472  0.89998  1.0000
  H   H425      1.0  0.31459  0.68369  0.98191  1.0000
  H   H426      1.0  0.48633  0.85011  0.82105  1.0000
  C   C431      1.0  0.41085  0.76049  0.85394  1.0000
  C   C432      1.0  0.23743  0.53019  0.82068  1.0000
  H   H427      1.0  0.40271  0.66930  0.82122  1.0000
  S   S134      1.0  0.45043  0.54089  0.90536  1.0000
  C   C433      1.0  0.40986  0.93397  0.97004  1.0000
  H   H428      1.0  0.44947  0.75884  0.83598  1.0000
  C   C434      1.0  0.37442  0.66790  0.96516  1.0000
  N   N35       1.0  0.45973  0.81427  0.84156  1.0000
  H   H429      1.0  0.34409  0.58354  0.84488  1.0000
  C   C435      1.0  0.38891  0.64183  0.96239  1.0000
  N   N36       1.0  0.35788  0.61821  0.82341  1.0000
  H   H430      1.0  0.35086  0.87789  0.94896  1.0000
  C   C436      1.0  0.44370  0.66116  0.91977  1.0000
  H   H431      1.0  0.31525  0.57711  0.79356  1.0000
  S   S135      1.0  0.44147  0.56386  0.94986  1.0000
  H   H432      1.0  0.18080  0.64747  0.80816  1.0000
  H   H433      1.0  0.43570  0.58321  0.85827  1.0000
  S   S136      1.0  0.16452  0.90612  0.76346  1.0000
  C   C437      1.0  0.38508  0.65495  0.79891  1.0000
  H   H434      1.0  0.40542  0.67938  0.79242  1.0000
  C   C438      1.0  0.47044  0.64666  0.89613  1.0000
  H   H435      1.0  0.21108  0.77140  0.78224  1.0000
  H   H436      1.0  0.44835  0.62633  0.80210  1.0000
  C   C439      1.0  0.33449  0.59762  0.79952  1.0000
  C   C440      1.0  0.29652  0.52773  0.98717  1.0000
  C   C441      1.0  0.48723  0.71003  0.90272  1.0000
  S   S137      1.0  0.17097  0.81542  0.77889  1.0000
  C   C442      1.0  0.36038  0.62901  0.79106  1.0000
  S   S138      1.0  0.36200  0.59850  0.95703  1.0000
  Fe  Fe68      1.0  0.14618  0.85709  0.78146  1.0000
  Fe  Fe69      1.0  0.42259  0.50958  0.96499  1.0000
  H   H437      1.0  0.39617  0.73065  0.85526  1.0000
  H   H438      1.0  0.44997  0.73698  0.87922  1.0000
  H   H439      1.0  0.43146  0.60535  0.91296  1.0000
  C   C443      1.0  0.18138  0.60640  0.85174  1.0000
  H   H440      1.0  0.46509  0.75245  0.91987  1.0000
  N   N37       1.0  0.46334  0.69829  0.91597  1.0000
  C   C444      1.0  0.01656  0.87515  0.81796  1.0000
  S   S139      1.0  0.32617  0.49892  0.84495  1.0000
  C   C445      1.0  0.42246  0.93356  0.98446  1.0000
  C   C446      1.0  0.04630  0.98570  0.81162  1.0000
  H   H441      1.0  0.47893  0.73053  0.93521  1.0000
  C   C447      1.0  0.11954  0.96373  0.82428  1.0000
  C   C448      1.0  0.38295  0.49300  0.87471  1.0000
  H   H442      1.0  0.48795  0.57608  0.87054  1.0000
  S   S140      1.0  0.49665  0.65056  0.85183  1.0000
  H   H443      1.0  0.49193  0.90252  0.96494  1.0000
  S   S141      1.0  0.07429  0.54112  0.98203  1.0000
  S   S142      1.0  0.08500  0.89911  0.74197  1.0000
  C   C449      1.0  0.36172  0.87692  0.97823  1.0000
  C   C450      1.0  0.49073  0.83129  0.82982  1.0000
  H   H444      1.0  0.02565  0.96305  0.81961  1.0000
  H   H445      1.0  0.01321  0.79987  0.80159  1.0000
  H   H446      1.0  0.37084  0.50213  0.86596  1.0000
  C   C451      1.0  0.11792  0.97451  0.74163  1.0000
  H   H447      1.0  0.33796  0.85457  0.97590  1.0000
  H   H448      1.0  0.26758  0.51600  0.98982  1.0000
  H   H449      1.0  0.01575  0.81095  0.77263  1.0000
  C   C452      1.0  0.73804  0.42771  0.00098  1.0000
  C   C453      1.0  0.89078  0.33105  0.08572  1.0000
  S   S143      1.0  0.58581  0.28497  0.12102  1.0000
  S   S144      1.0  0.54808  0.20591  0.15698  1.0000
  H   H450      1.0  0.69951  0.32922  0.03508  1.0000
  H   H451      1.0  0.70071  0.44435  0.10750  1.0000
  H   H452      1.0  0.95726  0.14981  0.23044  1.0000
  S   S145      1.0  0.52457  0.28499  0.10001  1.0000
  C   C454      1.0  0.68371  0.30031  0.05820  1.0000
  H   H453      1.0  0.52323  0.41423  0.10649  1.0000
  C   C455      1.0  0.69614  0.21525  0.07221  1.0000
  C   C456      1.0  0.71399  0.25326  0.04690  1.0000
  C   C457      1.0  0.68325  0.27037  0.06780  1.0000
  H   H454      1.0  0.65316  0.45683  0.04159  1.0000
  S   S146      1.0  0.87894  0.34089  0.01717  1.0000
  S   S147      1.0  0.78742  0.26365  0.01633  1.0000
  S   S148      1.0  0.70725  0.45178  0.14316  1.0000
  H   H455      1.0  0.59318  0.48488  0.03088  1.0000
  Fe  Fe70      1.0  0.75695  0.28679  0.11914  1.0000
  S   S149      1.0  0.81383  0.29978  0.11859  1.0000
  S   S150      1.0  0.73805  0.29397  0.09636  1.0000
  Fe  Fe71      1.0  0.74228  0.26735  0.15371  1.0000
  S   S151      1.0  0.79808  0.27899  0.15660  1.0000
  S   S152      1.0  0.70086  0.24903  0.17448  1.0000
  Fe  Fe72      1.0  0.81029  0.32916  0.13992  1.0000
  S   S153      1.0  0.85593  0.38134  0.14319  1.0000
  Fe  Fe73      1.0  0.79759  0.24856  0.13509  1.0000
  S   S154      1.0  0.82761  0.21260  0.12969  1.0000
  S   S155      1.0  0.75449  0.32084  0.13914  1.0000
  S   S156      1.0  0.74043  0.23240  0.13355  1.0000
  H   H456      1.0  0.52145  0.23733  0.06784  1.0000
  H   H457      1.0  0.75035  0.44393  0.03838  1.0000
  C   C458      1.0  0.50615  0.14356  0.04726  1.0000
  H   H458      1.0  0.67087  0.20293  0.08006  1.0000
  Fe  Fe74      1.0  0.93652  0.13862  0.17760  1.0000
  S   S157      1.0  0.89627  0.16245  0.18392  1.0000
  C   C459      1.0  0.77783  0.44699  0.03539  1.0000
  S   S158      1.0  0.59395  0.16964  0.00885  1.0000
  Fe  Fe75      1.0  0.58545  0.11896  0.02460  1.0000
  S   S159      1.0  0.59196  0.11765  0.05021  1.0000
  Fe  Fe76      1.0  0.53171  0.33272  0.03035  1.0000
  H   H459      1.0  0.89603  0.01283  0.15999  1.0000
  S   S160      1.0  0.53007  0.38923  0.03022  1.0000
  S   S161      1.0  0.57884  0.34772  0.04278  1.0000
  H   H460      1.0  0.96013  0.44496  0.00173  1.0000
  Fe  Fe77      1.0  0.54405  0.13391  0.00041  1.0000
  Fe  Fe78      1.0  0.83423  0.40250  0.00135  1.0000
  S   S162      1.0  0.80708  0.43886  0.99445  1.0000
  H   H461      1.0  0.54372  0.25776  0.02974  1.0000
  H   H462      1.0  0.53474  0.18307  0.06236  1.0000
  C   C460      1.0  0.77593  0.32354  0.08439  1.0000
  C   C461      1.0  0.78442  0.31380  0.06958  1.0000
  C   C462      1.0  0.81590  0.33608  0.06041  1.0000
  C   C463      1.0  0.83853  0.36871  0.06584  1.0000
  C   C464      1.0  0.83039  0.37819  0.08081  1.0000
  C   C465      1.0  0.79912  0.35549  0.09012  1.0000
  H   H463      1.0  0.76747  0.28828  0.06542  1.0000
  H   H464      1.0  0.82295  0.32735  0.04929  1.0000
  H   H465      1.0  0.84804  0.40299  0.08526  1.0000
  H   H466      1.0  0.79295  0.36267  0.10174  1.0000
  C   C466      1.0  0.84656  0.19886  0.14487  1.0000
  C   C467      1.0  0.86916  0.18088  0.14124  1.0000
  C   C468      1.0  0.88481  0.16982  0.15310  1.0000
  C   C469      1.0  0.87778  0.17659  0.16866  1.0000
  C   C470      1.0  0.85524  0.19465  0.17227  1.0000
  C   C471      1.0  0.83974  0.20585  0.16041  1.0000
  H   H467      1.0  0.87444  0.17526  0.12925  1.0000
  H   H468      1.0  0.90194  0.15570  0.15021  1.0000
  H   H469      1.0  0.84959  0.19983  0.18430  1.0000
  H   H470      1.0  0.82210  0.21930  0.16337  1.0000
  H   H471      1.0  0.88903  0.26227  0.11154  1.0000
  H   H472      1.0  0.55342  0.40496  0.09273  1.0000
  S   S163      1.0  0.52249  0.20575  0.11454  1.0000
  C   C472      1.0  0.83230  0.45897  0.12004  1.0000
  C   C473      1.0  0.83007  0.42474  0.12684  1.0000
  C   C474      1.0  0.85879  0.42244  0.13306  1.0000
  C   C475      1.0  0.88998  0.45399  0.13199  1.0000
  Fe  Fe79      1.0  0.89586  0.38122  0.99561  1.0000
  C   C476      1.0  0.87506  0.11309  0.22060  1.0000
  H   H473      1.0  0.80592  0.40043  0.12761  1.0000
  H   H474      1.0  0.91221  0.45233  0.13682  1.0000
  C   C477      1.0  0.52588  0.21188  0.01530  1.0000
  C   C478      1.0  0.59748  0.22451  0.07061  1.0000
  H   H475      1.0  0.72374  0.39693  0.11471  1.0000
  C   C479      1.0  0.59678  0.15934  0.05826  1.0000
  C   C480      1.0  0.58670  0.15918  0.07433  1.0000
  C   C481      1.0  0.58702  0.19184  0.08053  1.0000
  H   H476      1.0  0.57770  0.13355  0.08188  1.0000
  H   H477      1.0  0.57861  0.19152  0.09289  1.0000
  C   C482      1.0  0.59819  0.39346  0.12939  1.0000
  C   C483      1.0  0.61615  0.43184  0.12575  1.0000
  C   C484      1.0  0.64934  0.45023  0.13034  1.0000
  C   C485      1.0  0.66438  0.43028  0.13872  1.0000
  C   C486      1.0  0.64590  0.39210  0.14276  1.0000
  C   C487      1.0  0.61291  0.37370  0.13805  1.0000
  H   H478      1.0  0.60475  0.44726  0.11912  1.0000
  C   C488      1.0  0.69952  0.30646  0.04268  1.0000
  H   H479      1.0  0.65733  0.37644  0.14919  1.0000
  H   H480      1.0  0.59876  0.34427  0.14125  1.0000
  C   C489      1.0  0.59095  0.21807  0.16134  1.0000
  C   C490      1.0  0.59607  0.21032  0.17670  1.0000
  C   C491      1.0  0.62990  0.21981  0.18060  1.0000
  C   C492      1.0  0.65879  0.23644  0.16910  1.0000
  C   C493      1.0  0.65382  0.24402  0.15367  1.0000
  C   C494      1.0  0.61986  0.23500  0.14981  1.0000
  H   H481      1.0  0.57383  0.19716  0.18564  1.0000
  H   H482      1.0  0.63366  0.21394  0.19253  1.0000
  H   H483      1.0  0.67608  0.25680  0.14472  1.0000
  H   H484      1.0  0.61607  0.24039  0.13786  1.0000
  C   C495      1.0  0.60894  0.22499  0.05471  1.0000
  Fe  Fe80      1.0  0.56387  0.40133  0.00700  1.0000
  S   S164      1.0  0.97987  0.06573  0.21483  1.0000
  C   C496      1.0  0.76218  0.41137  0.99803  1.0000
  H   H485      1.0  0.68396  0.41781  0.00794  1.0000
  C   C497      1.0  0.82281  0.45137  0.05234  1.0000
  N   N38       1.0  0.89735  0.31745  0.11701  1.0000
  C   C498      1.0  0.89162  0.28972  0.10716  1.0000
  C   C499      1.0  0.90125  0.35225  0.11140  1.0000
  H   H486      1.0  0.66332  0.47974  0.12730  1.0000
  H   H487      1.0  0.88193  0.27345  0.08384  1.0000
  S   S165      1.0  0.61489  0.09708  0.00743  1.0000
  C   C500      1.0  0.90010  0.30997  0.13357  1.0000
  Fe  Fe81      1.0  0.97092  0.09319  0.19320  1.0000
  H   H488      1.0  0.90606  0.37434  0.11917  1.0000
  C   C501      1.0  0.93666  0.00558  0.14478  1.0000
  S   S166      1.0  0.98067  0.15357  0.19223  1.0000
  H   H489      1.0  0.80993  0.46065  0.11549  1.0000
  C   C502      1.0  0.52698  0.40545  0.09455  1.0000
  C   C503      1.0  0.84362  0.46834  0.06382  1.0000
  H   H490      1.0  0.51013  0.43695  0.01038  1.0000
  H   H491      1.0  0.83805  0.05749  0.22776  1.0000
  C   C504      1.0  0.65835  0.47007  0.05232  1.0000
  H   H492      1.0  0.70641  0.32037  0.00356  1.0000
  S   S167      1.0  0.96005  0.05302  0.13902  1.0000
  H   H493      1.0  0.89184  0.32827  0.14109  1.0000
  C   C505      1.0  0.89786  0.35952  0.09570  1.0000
  H   H494      1.0  0.74691  0.45765  0.00029  1.0000
  H   H495      1.0  0.65025  0.42775  0.09302  1.0000
  C   C506      1.0  0.75063  0.37268  0.99889  1.0000
  S   S168      1.0  0.50164  0.15379  0.99654  1.0000
  C   C507      1.0  0.90863  0.13928  0.22141  1.0000
  C   C508      1.0  0.68571  0.35387  0.10363  1.0000
  S   S169      1.0  0.59514  0.26475  0.07750  1.0000
  C   C509      1.0  0.65709  0.34530  0.09524  1.0000
  C   C510      1.0  0.71518  0.28312  0.03702  1.0000
  S   S170      1.0  0.81184  0.36484  0.02336  1.0000
  S   S171      1.0  0.55005  0.00638  0.99543  1.0000
  S   S172      1.0  0.92365  0.07713  0.18057  1.0000
  C   C511      1.0  0.70246  0.40521  0.00533  1.0000
  H   H496      1.0  0.52604  0.42673  0.08587  1.0000
  N   N39       1.0  0.50065  0.36861  0.09266  1.0000
  H   H497      1.0  0.70994  0.09298  0.00262  1.0000
  C   C512      1.0  0.50471  0.44689  0.99949  1.0000
  C   C513      1.0  0.69111  0.36648  0.00640  1.0000
  H   H498      1.0  0.61430  0.38701  0.07612  1.0000
  N   N40       1.0  0.72055  0.35393  0.17531  1.0000
  C   C514      1.0  0.74730  0.34395  0.17839  1.0000
  C   C515      1.0  0.72745  0.38725  0.16714  1.0000
  C   C516      1.0  0.78203  0.36783  0.17338  1.0000
  C   C517      1.0  0.76184  0.41182  0.16197  1.0000
  C   C518      1.0  0.78926  0.40205  0.16521  1.0000
  C   C519      1.0  0.68414  0.32823  0.17997  1.0000
  H   H499      1.0  0.74195  0.31722  0.18458  1.0000
  H   H500      1.0  0.70625  0.39494  0.16455  1.0000
  H   H501      1.0  0.80321  0.35957  0.17551  1.0000
  H   H502      1.0  0.76705  0.43807  0.15535  1.0000
  H   H503      1.0  0.81608  0.42069  0.16121  1.0000
  H   H504      1.0  0.66813  0.34321  0.18474  1.0000
  H   H505      1.0  0.67309  0.31425  0.16962  1.0000
  H   H506      1.0  0.68186  0.30626  0.18916  1.0000
  Fe  Fe82      1.0  0.60864  0.36250  0.01858  1.0000
  H   H507      1.0  0.88255  0.28090  0.13800  1.0000
  C   C520      1.0  0.91832  0.00536  0.21407  1.0000
  H   H508      1.0  0.85761  0.12044  0.21396  1.0000
  N   N41       1.0  0.88670  0.06816  0.23633  1.0000
  S   S173      1.0  0.53322  0.08478  0.01755  1.0000
  H   H509      1.0  0.55006  0.20802  0.01448  1.0000
  S   S174      1.0  0.55812  0.37023  0.12247  1.0000
  H   H510      1.0  0.61725  0.25032  0.04701  1.0000
  C   C521      1.0  0.51123  0.17262  0.05687  1.0000
  H   H511      1.0  0.72670  0.23561  0.04249  1.0000
  H   H512      1.0  0.78897  0.46462  0.02411  1.0000
  C   C522      1.0  0.61424  0.36233  0.08300  1.0000
  Fe  Fe83      1.0  0.96214  0.08899  0.15879  1.0000
  C   C523      1.0  0.70025  0.19038  0.00179  1.0000
  C   C524      1.0  0.66065  0.40710  0.09553  1.0000
  C   C525      1.0  0.68941  0.41668  0.10376  1.0000
  C   C526      1.0  0.70199  0.38992  0.10790  1.0000
  C   C527      1.0  0.71514  0.35032  0.00290  1.0000
  H   H513      1.0  0.64418  0.31706  0.09230  1.0000
  H   H514      1.0  0.61829  0.19328  0.03640  1.0000
  S   S175      1.0  0.64746  0.33711  0.01264  1.0000
  H   H515      1.0  0.51420  0.37449  0.06780  1.0000
  S   S176      1.0  0.87631  0.39802  0.05362  1.0000
  H   H516      1.0  0.71776  0.22479  0.07957  1.0000
  C   C528      1.0  0.95512  0.00074  0.23326  1.0000
  C   C529      1.0  0.88778  0.29594  0.09144  1.0000
  S   S177      1.0  0.97138  0.14922  0.15472  1.0000
  N   N42       1.0  0.69740  0.24671  0.06197  1.0000
  H   H517      1.0  0.67935  0.16451  0.00661  1.0000
  H   H518      1.0  0.69481  0.33256  0.10701  1.0000
  C   C530      1.0  0.60887  0.19252  0.04860  1.0000
  H   H519      1.0  0.72722  0.19585  0.02208  1.0000
  H   H520      1.0  0.86276  0.45834  0.06737  1.0000
  S   S178      1.0  0.58738  0.43922  0.06125  1.0000
  H   H521      1.0  0.88739  0.33616  0.07360  1.0000
  Fe  Fe84      1.0  0.82505  0.32314  0.01011  1.0000
  Fe  Fe85      1.0  0.54562  0.30941  0.12164  1.0000
  Fe  Fe86      1.0  0.58063  0.40556  0.04038  1.0000
  C   C531      1.0  0.94913  0.02079  0.22088  1.0000
  S   S179      1.0  0.56105  0.34322  0.00629  1.0000
  N   N43       1.0  0.64517  0.37194  0.09115  1.0000
  C   C532      1.0  0.75441  0.24216  0.00465  1.0000
  H   H522      1.0  0.61326  0.34142  0.07456  1.0000
  Fe  Fe87      1.0  0.56331  0.06686  0.99889  1.0000
  H   H523      1.0  0.92734  0.31424  0.13501  1.0000
  H   H524      1.0  0.52585  0.13207  0.04529  1.0000
  H   H525      1.0  0.67094  0.26570  0.07987  1.0000
  H   H526      1.0  0.90004  0.38683  0.09136  1.0000
  C   C533      1.0  0.52232  0.24021  0.02390  1.0000
  Fe  Fe88      1.0  0.54327  0.23627  0.13528  1.0000
  H   H527      1.0  0.72819  0.28802  0.02505  1.0000
  H   H528      1.0  0.91723  0.16699  0.21549  1.0000
  H   H529      1.0  0.59040  0.35119  0.09173  1.0000
  S   S180      1.0  0.61475  0.42204  0.01711  1.0000
  H   H530      1.0  0.69832  0.19275  0.06530  1.0000
  Fe  Fe89      1.0  0.86676  0.38502  0.02890  1.0000
  S   S181      1.0  0.88816  0.42725  0.00806  1.0000
  H   H531      1.0  0.67116  0.31804  0.06266  1.0000
  C   C534      1.0  0.72731  0.20834  0.01060  1.0000
  H   H532      1.0  0.82608  0.42806  0.04710  1.0000
  H   H533      1.0  0.91360  0.02063  0.20448  1.0000
  N   N44       1.0  0.79880  0.46408  0.04776  1.0000
  Fe  Fe90      1.0  0.56178  0.25708  0.10049  1.0000
  H   H534      1.0  0.97909  0.01249  0.23839  1.0000
  C   C535      1.0  0.93119  0.12954  0.22967  1.0000
  H   H535      1.0  0.95708  0.00005  0.17810  1.0000
  H   H536      1.0  0.66394  0.02863  0.00701  1.0000
  H   H537      1.0  0.76900  0.35983  0.99643  1.0000
  C   C536      1.0  0.90612  0.99314  0.15551  1.0000
  C   C537      1.0  0.63086  0.46581  0.06394  1.0000
  S   S182      1.0  0.50506  0.26359  0.13791  1.0000
  H   H538      1.0  0.77726  0.41884  0.03361  1.0000
  C   C538      1.0  0.86435  0.07753  0.22829  1.0000
  C   C539      1.0  0.69115  0.08280  0.99437  1.0000
  H   H539      1.0  0.85884  0.00945  0.23775  1.0000
  C   C540      1.0  0.91983  0.09358  0.23702  1.0000
  C   C541      1.0  0.86353  0.49062  0.11905  1.0000
  C   C542      1.0  0.89249  0.48785  0.12481  1.0000
  C   C543      1.0  0.66542  0.04673  0.99681  1.0000
  C   C544      1.0  0.63805  0.48299  0.07788  1.0000
  H   H540      1.0  0.61688  0.47974  0.08695  1.0000
  H   H541      1.0  0.53313  0.27201  0.99193  1.0000
  C   C545      1.0  0.98120  0.45434  0.99217  1.0000
  C   C546      1.0  0.49834  0.18923  0.00765  1.0000
  C   C547      1.0  0.69280  0.49234  0.05441  1.0000
  C   C548      1.0  0.52164  0.00970  0.47402  1.0000
  H   H542      1.0  0.61356  0.27714  0.47465  1.0000
  H   H543      1.0  0.58683  0.49150  0.44775  1.0000
  C   C549      1.0  0.92450  0.08736  0.31655  1.0000
  H   H544      1.0  0.73100  0.34175  0.44950  1.0000
  H   H545      1.0  0.88497  0.03163  0.31996  1.0000
  Fe  Fe91      1.0  0.82305  0.42232  0.47113  1.0000
  S   S183      1.0  0.79248  0.41121  0.45069  1.0000
  H   H546      1.0  0.97667  0.10662  0.27380  1.0000
  C   C550      1.0  0.50311  0.10328  0.46740  1.0000
  C   C551      1.0  0.66075  0.30725  0.45872  1.0000
  C   C552      1.0  0.93659  0.03277  0.32142  1.0000
  H   H547      1.0  0.68782  0.41414  0.48068  1.0000
  C   C553      1.0  0.75658  0.45367  0.44369  1.0000
  H   H548      1.0  0.58884  0.32453  0.47017  1.0000
  H   H549      1.0  0.72163  0.31496  0.47865  1.0000
  Fe  Fe92      1.0  0.63037  0.44084  0.48311  1.0000
  C   C554      1.0  0.91257  0.04888  0.31955  1.0000
  S   S184      1.0  0.57680  0.43112  0.47746  1.0000
  C   C555      1.0  0.66634  0.36510  0.44650  1.0000
  H   H550      1.0  0.62355  0.38193  0.45254  1.0000
  C   C556      1.0  0.62801  0.30180  0.46661  1.0000
  S   S185      1.0  0.52295  0.32442  0.48272  1.0000
  C   C557      1.0  0.71362  0.34316  0.44077  1.0000
  C   C558      1.0  0.70554  0.45304  0.46007  1.0000
  C   C559      1.0  0.98962  0.45902  0.43937  1.0000
  H   H551      1.0  0.96977  0.13903  0.31253  1.0000
  H   H552      1.0  0.85753  0.03057  0.25598  1.0000
  C   C560      1.0  0.51054  0.47524  0.47998  1.0000
  H   H553      1.0  0.72915  0.48844  0.43863  1.0000
  H   H554      1.0  0.90621  0.10006  0.31461  1.0000
  H   H555      1.0  0.67123  0.28633  0.46057  1.0000
  N   N45       1.0  0.67946  0.33859  0.44885  1.0000
  C   C561      1.0  0.61428  0.32849  0.46418  1.0000
  H   H556      1.0  0.77573  0.46471  0.43335  1.0000
  H   H557      1.0  0.68136  0.39029  0.43889  1.0000
  C   C562      1.0  0.63363  0.36054  0.45417  1.0000
  H   H558      1.0  0.71065  0.32095  0.43277  1.0000
  C   C563      1.0  0.75885  0.42696  0.45430  1.0000
  S   S186      1.0  0.87675  0.46679  0.46995  1.0000
  H   H559      1.0  0.98455  0.01115  0.33020  1.0000
  S   S187      1.0  0.57077  0.06972  0.48460  1.0000
  C   C564      1.0  0.70702  0.42536  0.47042  1.0000
  C   C565      1.0  0.73394  0.41265  0.46763  1.0000
  H   H560      1.0  0.89623  0.02442  0.24803  1.0000
  S   S188      1.0  0.85089  0.03349  0.29016  1.0000
  S   S189      1.0  0.67369  0.47126  0.46374  1.0000
  C   C566      1.0  0.98348  0.09216  0.31726  1.0000
  C   C567      1.0  0.94539  0.13765  0.26940  1.0000
  C   C568      1.0  0.95052  0.10599  0.27457  1.0000
  C   C569      1.0  0.92159  0.07328  0.28051  1.0000
  C   C570      1.0  0.88775  0.07274  0.28183  1.0000
  C   C571      1.0  0.88293  0.10453  0.27676  1.0000
  C   C572      1.0  0.91155  0.13662  0.27034  1.0000
  H   H561      1.0  0.52884  0.12381  0.46861  1.0000
  H   H562      1.0  0.92568  0.04909  0.28461  1.0000
  H   H563      1.0  0.85691  0.10434  0.27772  1.0000
  H   H564      1.0  0.52306  0.07833  0.44895  1.0000
  H   H565      1.0  0.90747  0.16094  0.26626  1.0000
  C   C573      1.0  0.52793  0.03724  0.48452  1.0000
  H   H566      1.0  0.72709  0.37052  0.43376  1.0000
  H   H567      1.0  0.73523  0.39149  0.47572  1.0000
  H   H568      1.0  0.92719  0.00278  0.32348  1.0000
  H   H569      1.0  0.76820  0.49151  0.47926  1.0000
  H   H570      1.0  0.93766  0.08627  0.24335  1.0000
  S   S190      1.0  0.83498  0.38025  0.48516  1.0000
  H   H571      1.0  0.98322  0.02134  0.26837  1.0000
  C   C574      1.0  0.97328  0.46388  0.47988  1.0000
  S   S191      1.0  0.98031  0.17813  0.26080  1.0000
  C   C575      1.0  0.99632  0.03697  0.32209  1.0000
  Fe  Fe93      1.0  0.88681  0.42698  0.48622  1.0000
  C   C576      1.0  0.87422  0.03134  0.24495  1.0000
  H   H572      1.0  0.96782  0.43458  0.44510  1.0000
  C   C577      1.0  0.73025  0.46706  0.44669  1.0000
  S   S192      1.0  0.93791  0.42046  0.48213  1.0000
  H   H573      1.0  0.54303  0.00892  0.46604  1.0000
  C   C578      1.0  0.96018  0.10919  0.31530  1.0000
  H   H574      1.0  0.49863  0.15558  0.48504  1.0000
  H   H575      1.0  0.51723  0.45129  0.48014  1.0000
  S   S193      1.0  0.66449  0.24705  0.48929  1.0000
  N   N46       1.0  0.97149  0.05446  0.32051  1.0000
  C   C579      1.0  0.50001  0.07761  0.45623  1.0000
  C   C580      1.0  0.71885  0.31222  0.49134  1.0000
  Fe  Fe94      1.0  0.56105  0.37590  0.49114  1.0000
  C   C581      1.0  0.71006  0.35256  0.56286  1.0000
  S   S194      1.0  0.86931  0.44646  0.50851  1.0000
  Fe  Fe95      1.0  0.50604  0.18069  0.61608  1.0000
  C   C582      1.0  0.74085  0.33515  0.51550  1.0000
  H   H576      1.0  0.70372  0.15550  0.51878  1.0000
  C   C583      1.0  0.91657  0.16219  0.61855  1.0000
  S   S195      1.0  0.77450  0.36595  0.52487  1.0000
  H   H577      1.0  0.76782  0.33450  0.55746  1.0000
  C   C584      1.0  0.65668  0.32324  0.58072  1.0000
  N   N47       1.0  0.53832  0.17913  0.56710  1.0000
  S   S196      1.0  0.59652  0.19755  0.52702  1.0000
  C   C585      1.0  0.95572  0.26338  0.64003  1.0000
  Fe  Fe96      1.0  0.81615  0.40351  0.50593  1.0000
  S   S197      1.0  0.54822  0.10852  0.52443  1.0000
  H   H578      1.0  0.93285  0.16443  0.60722  1.0000
  S   S198      1.0  0.49868  0.17418  0.52165  1.0000
  Fe  Fe97      1.0  0.60014  0.14266  0.53176  1.0000
  S   S199      1.0  0.61485  0.12680  0.55431  1.0000
  H   H579      1.0  0.72386  0.36903  0.55193  1.0000
  H   H580      1.0  0.95107  0.99276  0.61001  1.0000
  S   S200      1.0  0.59102  0.30514  0.62447  1.0000
  S   S201      1.0  0.54240  0.22986  0.60021  1.0000
  C   C586      1.0  0.95629  0.20348  0.63510  1.0000
  S   S202      1.0  0.78513  0.44799  0.58275  1.0000
  Fe  Fe98      1.0  0.70774  0.18815  0.62591  1.0000
  S   S203      1.0  0.70519  0.23655  0.61240  1.0000
  S   S204      1.0  0.65931  0.13640  0.63303  1.0000
  Fe  Fe99      1.0  0.78578  0.22637  0.62654  1.0000
  S   S205      1.0  0.78957  0.27781  0.61245  1.0000
  S   S206      1.0  0.83523  0.22994  0.63593  1.0000
  Fe  Fe100     1.0  0.74125  0.27131  0.62817  1.0000
  S   S207      1.0  0.72836  0.31794  0.63709  1.0000
  Fe  Fe101     1.0  0.75321  0.23861  0.59786  1.0000
  S   S208      1.0  0.75224  0.25050  0.57217  1.0000
  S   S209      1.0  0.73952  0.22268  0.64335  1.0000
  S   S210      1.0  0.75389  0.18728  0.61027  1.0000
  H   H581      1.0  0.56484  0.33661  0.52610  1.0000
  Fe  Fe102     1.0  0.57849  0.11544  0.50064  1.0000
  Fe  Fe103     1.0  0.91727  0.10299  0.66518  1.0000
  S   S211      1.0  0.92116  0.06376  0.68410  1.0000
  S   S212      1.0  0.86816  0.09071  0.65396  1.0000
  C   C587      1.0  0.58903  0.18190  0.57856  1.0000
  S   S213      1.0  0.95602  0.12023  0.71961  1.0000
  C   C588      1.0  0.75501  0.24791  0.51326  1.0000
  C   C589      1.0  0.54379  0.27977  0.50115  1.0000
  S   S214      1.0  0.94755  0.15513  0.67611  1.0000
  S   S215      1.0  0.63093  0.14489  0.50859  1.0000
  C   C590      1.0  0.83870  0.18899  0.64307  1.0000
  C   C591      1.0  0.86263  0.19162  0.65366  1.0000
  C   C592      1.0  0.87075  0.16111  0.65755  1.0000
  C   C593      1.0  0.85480  0.12763  0.65095  1.0000
  C   C594      1.0  0.82950  0.12435  0.64097  1.0000
  C   C595      1.0  0.82150  0.15504  0.63698  1.0000
  H   H582      1.0  0.87572  0.21771  0.65854  1.0000
  H   H583      1.0  0.88963  0.16373  0.66550  1.0000
  H   H584      1.0  0.81685  0.09839  0.63592  1.0000
  H   H585      1.0  0.80297  0.15280  0.62880  1.0000
  C   C596      1.0  0.91743  0.22387  0.62315  1.0000
  H   H586      1.0  0.89643  0.21886  0.61600  1.0000
  Fe  Fe104     1.0  0.56948  0.45239  0.50074  1.0000
  H   H587      1.0  0.66752  0.25516  0.52291  1.0000
  S   S216      1.0  0.96364  0.10352  0.64942  1.0000
  C   C597      1.0  0.76980  0.41321  0.59843  1.0000
  C   C598      1.0  0.73803  0.40548  0.60778  1.0000
  C   C599      1.0  0.72593  0.37707  0.62008  1.0000
  C   C600      1.0  0.74527  0.35584  0.62281  1.0000
  C   C601      1.0  0.77719  0.36385  0.61358  1.0000
  C   C602      1.0  0.78943  0.39245  0.60140  1.0000
  H   H588      1.0  0.72242  0.42076  0.60535  1.0000
  H   H589      1.0  0.70122  0.37089  0.62721  1.0000
  H   H590      1.0  0.79296  0.34868  0.61607  1.0000
  H   H591      1.0  0.81425  0.39860  0.59434  1.0000
  S   S217      1.0  0.61891  0.39314  0.53975  1.0000
  C   C603      1.0  0.58257  0.16516  0.61910  1.0000
  C   C604      1.0  0.61540  0.16723  0.62238  1.0000
  C   C605      1.0  0.62016  0.13480  0.62669  1.0000
  H   H592      1.0  0.57882  0.19034  0.61629  1.0000
  H   H593      1.0  0.63628  0.19400  0.62244  1.0000
  C   C606      1.0  0.60125  0.34809  0.61389  1.0000
  C   C607      1.0  0.63616  0.37049  0.60847  1.0000
  C   C608      1.0  0.64508  0.40563  0.60061  1.0000
  C   C609      1.0  0.57522  0.36090  0.61137  1.0000
  H   H594      1.0  0.65635  0.36073  0.61038  1.0000
  H   H595      1.0  0.67200  0.42263  0.59631  1.0000
  H   H596      1.0  0.54830  0.34411  0.61580  1.0000
  C   C610      1.0  0.65241  0.16183  0.55934  1.0000
  C   C611      1.0  0.66988  0.19474  0.54954  1.0000
  C   C612      1.0  0.70005  0.22249  0.55370  1.0000
  C   C613      1.0  0.71301  0.21716  0.56754  1.0000
  C   C614      1.0  0.69500  0.18462  0.57749  1.0000
  C   C615      1.0  0.66479  0.15698  0.57339  1.0000
  H   H597      1.0  0.66049  0.19852  0.53864  1.0000
  H   H598      1.0  0.71383  0.24759  0.54603  1.0000
  H   H599      1.0  0.70458  0.18019  0.58825  1.0000
  H   H600      1.0  0.65115  0.13171  0.58110  1.0000
  C   C616      1.0  0.58523  0.35129  0.54798  1.0000
  C   C617      1.0  0.58093  0.34082  0.56410  1.0000
  C   C618      1.0  0.55177  0.30940  0.57088  1.0000
  H   H601      1.0  0.59933  0.35774  0.57144  1.0000
  H   H602      1.0  0.54807  0.30205  0.58339  1.0000
  C   C619      1.0  0.55970  0.09817  0.62356  1.0000
  C   C620      1.0  0.55467  0.13055  0.61971  1.0000
  C   C621      1.0  0.65212  0.43122  0.63835  1.0000
  C   C622      1.0  0.72410  0.18205  0.52039  1.0000
  C   C623      1.0  0.61926  0.41903  0.59866  1.0000
  C   C624      1.0  0.93353  0.99355  0.65091  1.0000
  H   H603      1.0  0.59558  0.07515  0.63061  1.0000
  C   C625      1.0  0.58424  0.39648  0.60385  1.0000
  C   C626      1.0  0.61075  0.48104  0.55390  1.0000
  C   C627      1.0  0.71292  0.30547  0.52411  1.0000
  H   H604      1.0  0.56416  0.40683  0.60244  1.0000
  H   H605      1.0  0.71069  0.30282  0.53678  1.0000
  H   H606      1.0  0.66081  0.35495  0.55890  1.0000
  H   H607      1.0  0.62915  0.31709  0.58398  1.0000
  N   N48       1.0  0.62933  0.24765  0.65341  1.0000
  C   C628      1.0  0.65244  0.23208  0.65634  1.0000
  C   C629      1.0  0.64102  0.19357  0.65943  1.0000
  C   C630      1.0  0.60584  0.17101  0.65936  1.0000
  C   C631      1.0  0.64187  0.28798  0.64999  1.0000
  H   H608      1.0  0.67996  0.24941  0.65612  1.0000
  H   H609      1.0  0.65951  0.18109  0.66132  1.0000
  H   H610      1.0  0.65163  0.29556  0.63728  1.0000
  H   H611      1.0  0.62078  0.29797  0.65303  1.0000
  H   H612      1.0  0.66347  0.30282  0.65684  1.0000
  H   H613      1.0  0.78561  0.29727  0.53856  1.0000
  H   H614      1.0  0.80673  0.30807  0.51859  1.0000
  C   C632      1.0  0.69186  0.28163  0.49982  1.0000
  C   C633      1.0  0.79856  0.28718  0.52895  1.0000
  C   C634      1.0  0.70451  0.44965  0.51932  1.0000
  Fe  Fe105     1.0  0.53901  0.26250  0.62050  1.0000
  C   C635      1.0  0.97591  0.00932  0.61386  1.0000
  C   C636      1.0  0.58263  0.18706  0.65595  1.0000
  C   C637      1.0  0.67445  0.34452  0.56670  1.0000
  H   H615      1.0  0.82252  0.28563  0.53276  1.0000
  C   C638      1.0  0.52693  0.28851  0.56153  1.0000
  C   C639      1.0  0.56115  0.32948  0.53861  1.0000
  N   N49       1.0  0.77436  0.25065  0.52538  1.0000
  C   C640      1.0  0.59498  0.22567  0.65283  1.0000
  S   S218      1.0  0.72161  0.48617  0.56656  1.0000
  H   H616      1.0  0.92787  0.01771  0.65311  1.0000
  H   H617      1.0  0.57708  0.23796  0.64975  1.0000
  C   C641      1.0  0.53195  0.29831  0.54538  1.0000
  Fe  Fe106     1.0  0.99415  0.15207  0.66190  1.0000
  C   C642      1.0  0.96937  0.23655  0.64235  1.0000
  N   N50       1.0  0.72743  0.33985  0.57272  1.0000
  Fe  Fe107     1.0  0.85581  0.48324  0.49206  1.0000
  H   H618      1.0  0.55556  0.16955  0.65512  1.0000
  Fe  Fe108     1.0  0.54745  0.16384  0.51745  1.0000
  C   C643      1.0  0.74417  0.18503  0.53264  1.0000
  N   N51       1.0  0.93016  0.19720  0.62590  1.0000
  H   H619      1.0  0.63420  0.40304  0.63708  1.0000
  H   H620      1.0  0.54036  0.13443  0.58151  1.0000
  C   C644      1.0  0.51642  0.28362  0.49423  1.0000
  C   C645      1.0  0.68845  0.27855  0.51626  1.0000
  C   C646      1.0  0.59219  0.10032  0.62723  1.0000
  S   S219      1.0  0.80121  0.44271  0.49176  1.0000
  C   C647      1.0  0.76451  0.34815  0.56819  1.0000
  Fe  Fe109     1.0  0.95511  0.11599  0.69378  1.0000
  C   C648      1.0  0.55433  0.16267  0.57613  1.0000
  H   H621      1.0  0.50481  0.05943  0.50285  1.0000
  H   H622      1.0  0.58367  0.00865  0.50287  1.0000
  H   H623      1.0  0.91804  0.27722  0.62874  1.0000
  C   C649      1.0  0.74310  0.33889  0.49915  1.0000
  Fe  Fe110     1.0  0.60447  0.40793  0.51669  1.0000
  C   C650      1.0  0.50549  0.21679  0.51157  1.0000
  S   S220      1.0  0.50646  0.21246  0.63721  1.0000
  H   H624      1.0  0.77593  0.33785  0.57751  1.0000
  H   H625      1.0  0.77947  0.37868  0.56585  1.0000
  C   C651      1.0  0.50793  0.40241  0.55165  1.0000
  C   C652      1.0  0.55431  0.46257  0.54387  1.0000
  H   H626      1.0  0.57937  0.41409  0.56959  1.0000
  S   S221      1.0  0.54861  0.39614  0.51403  1.0000
  H   H627      1.0  0.96196  0.05554  0.61881  1.0000
  C   C653      1.0  0.76925  0.21980  0.53502  1.0000
  N   N52       1.0  0.57525  0.45393  0.55313  1.0000
  H   H628      1.0  0.78344  0.22226  0.54507  1.0000
  H   H629      1.0  0.76387  0.36205  0.49239  1.0000
  H   H630      1.0  0.73332  0.44339  0.49843  1.0000
  C   C654      1.0  0.55631  0.21439  0.56003  1.0000
  H   H631      1.0  0.51998  0.36730  0.56804  1.0000
  S   S222      1.0  0.51310  0.12702  0.61608  1.0000
  H   H632      1.0  0.63472  0.23267  0.57311  1.0000
  C   C655      1.0  0.71026  0.31913  0.58652  1.0000
  C   C656      1.0  0.67467  0.31051  0.59073  1.0000
  S   S223      1.0  0.62457  0.46636  0.50549  1.0000
  H   H633      1.0  0.88904  0.15496  0.61646  1.0000
  H   H634      1.0  0.69504  0.42055  0.52365  1.0000
  H   H635      1.0  0.72416  0.30938  0.59439  1.0000
  C   C657      1.0  0.56282  0.42069  0.56212  1.0000
  H   H636      1.0  0.66126  0.29452  0.60180  1.0000
  C   C658      1.0  0.72609  0.46277  0.50500  1.0000
  C   C659      1.0  0.68223  0.43755  0.64536  1.0000
  C   C660      1.0  0.59108  0.23451  0.56225  1.0000
  H   H637      1.0  0.59703  0.14099  0.66112  1.0000
  H   H638      1.0  0.53821  0.07134  0.62405  1.0000
  H   H639      1.0  0.91627  0.13874  0.62640  1.0000
  C   C661      1.0  0.53849  0.24611  0.50957  1.0000
  S   S224      1.0  0.63091  0.46501  0.59101  1.0000
  C   C662      1.0  0.92967  0.25713  0.63032  1.0000
  H   H640      1.0  0.55980  0.24312  0.51472  1.0000
  C   C663      1.0  0.72953  0.21365  0.51060  1.0000
  H   H641      1.0  0.67866  0.46442  0.53920  1.0000
  C   C664      1.0  0.60754  0.21798  0.57154  1.0000
  C   C665      1.0  0.98203  0.04452  0.61881  1.0000
  Fe  Fe111     1.0  0.62284  0.19707  0.50310  1.0000
  H   H642      1.0  0.60162  0.16838  0.58557  1.0000
  H   H643      1.0  0.62813  0.46673  0.55652  1.0000
  C   C666      1.0  0.50226  0.15802  0.56431  1.0000
  S   S225      1.0  0.57319  0.16804  0.49290  1.0000
  H   H644      1.0  0.62251  0.45640  0.62687  1.0000
  H   H645      1.0  0.56393  0.48914  0.53690  1.0000
  Fe  Fe112     1.0  0.75854  0.48775  0.58381  1.0000
  C   C667      1.0  0.64558  0.46152  0.63263  1.0000
  H   H646      1.0  0.72837  0.47930  0.65245  1.0000
  H   H647      1.0  0.75862  0.27243  0.50577  1.0000
  H   H648      1.0  0.73920  0.16094  0.54071  1.0000
  H   H649      1.0  0.68815  0.41433  0.64942  1.0000
  H   H650      1.0  0.50434  0.44363  0.53520  1.0000
  H   H651      1.0  0.54387  0.22695  0.55247  1.0000
  H   H652      1.0  0.60519  0.26236  0.55654  1.0000
  Fe  Fe113     1.0  0.97050  0.06962  0.66936  1.0000
  C   C668      1.0  0.50015  0.03831  0.49470  1.0000
  C   C669      1.0  0.69512  0.47427  0.52802  1.0000
  C   C670      1.0  0.70478  0.47394  0.64706  1.0000
  H   H653      1.0  0.71353  0.21189  0.50125  1.0000
  H   H654      1.0  0.98979  0.24107  0.64981  1.0000
  H   H655      1.0  0.96693  0.18272  0.63706  1.0000
  S   S226      1.0  0.99057  0.02497  0.66615  1.0000
  H   H656      1.0  0.84087  0.47652  0.55106  1.0000
  H   H657      1.0  0.96509  0.28881  0.64585  1.0000
  H   H658      1.0  0.56917  0.30242  0.49982  1.0000
  S   S227      1.0  0.61549  0.38351  0.49470  1.0000
  H   H659      1.0  0.50197  0.13941  0.55489  1.0000
  C   C671      1.0  0.52917  0.39422  0.56137  1.0000
  C   C672      1.0  0.52038  0.43697  0.54297  1.0000
  H   H660      1.0  0.51317  0.28188  0.53805  1.0000
  H   H661      1.0  0.52862  0.99441  0.51658  1.0000
  S   S228      1.0  0.72389  0.49191  0.60459  1.0000
  C   C673      1.0  0.51973  0.00838  0.96864  1.0000
  H   H662      1.0  0.59558  0.05682  0.96577  1.0000
  C   C674      1.0  0.87906  0.44952  0.96476  1.0000
  H   H663      1.0  0.93124  0.03537  0.77453  1.0000
  N   N53       1.0  0.64198  0.05753  0.97361  1.0000
  C   C675      1.0  0.60653  0.22409  0.97255  1.0000
  C   C676      1.0  0.96548  0.14221  0.76826  1.0000
  H   H664      1.0  0.55138  0.20492  0.97182  1.0000
  H   H665      1.0  0.60075  0.31465  0.98544  1.0000
  C   C677      1.0  0.52331  0.44525  0.98527  1.0000
  H   H666      1.0  0.97708  0.07416  0.78976  1.0000
  C   C678      1.0  0.97908  0.12583  0.77909  1.0000
  S   S229      1.0  0.66781  0.18151  0.97534  1.0000
  H   H667      1.0  0.72873  0.25061  0.96886  1.0000
  C   C679      1.0  0.72813  0.23897  0.98057  1.0000
  H   H668      1.0  0.91899  0.05179  0.74189  1.0000
  C   C680      1.0  0.98024  0.43274  0.97957  1.0000
  H   H669      1.0  0.62020  0.00684  0.98854  1.0000
  C   C681      1.0  0.69192  0.10615  0.98151  1.0000
  S   S230      1.0  0.56966  0.11302  0.98092  1.0000
  C   C682      1.0  0.93977  0.11955  0.75974  1.0000
  H   H670      1.0  0.71116  0.13463  0.97973  1.0000
  H   H671      1.0  0.85078  0.43554  0.96662  1.0000
  C   C683      1.0  0.70083  0.20533  0.98668  1.0000
  C   C684      1.0  0.97628  0.00999  0.75627  1.0000
  N   N54       1.0  0.57269  0.26024  0.97871  1.0000
  C   C685      1.0  0.51616  0.45856  0.97119  1.0000
  H   H672      1.0  0.52713  0.03776  0.96968  1.0000
  N   N55       1.0  0.92789  0.08165  0.76200  1.0000
  C   C686      1.0  0.89609  0.47937  0.97335  1.0000
  C   C687      1.0  0.64078  0.03453  0.98629  1.0000
  H   H673      1.0  0.65750  0.30889  0.98286  1.0000
  C   C688      1.0  0.66685  0.09307  0.97124  1.0000
  C   C689      1.0  0.63435  0.28606  0.98030  1.0000
  C   C690      1.0  0.96639  0.08718  0.78150  1.0000
  H   H674      1.0  0.77557  0.28378  0.98499  1.0000
  C   C691      1.0  0.89874  0.43712  0.95414  1.0000
  C   C692      1.0  0.57460  0.22797  0.97416  1.0000
  H   H675      1.0  0.66145  0.25071  0.97462  1.0000
  C   C693      1.0  0.63653  0.25334  0.97569  1.0000
  H   H676      1.0  0.66703  0.11186  0.96156  1.0000
  C   C694      1.0  0.61540  0.04500  0.96293  1.0000
  C   C695      1.0  0.60205  0.28907  0.98177  1.0000
  C   C696      1.0  0.94057  0.06540  0.77283  1.0000
  H   H677      1.0  0.53049  0.45738  0.96015  1.0000
  H   H678      1.0  0.62733  0.05383  0.95052  1.0000
  H   H679      1.0  0.51730  0.23856  0.97811  1.0000
  Fe  Fe114     1.0  0.61897  0.14477  0.99098  1.0000
  H   H680      1.0  0.88592  0.41314  0.94783  1.0000
  H   H681      1.0  0.60159  0.01418  0.96406  1.0000
  S   S231      1.0  0.55788  0.43019  0.98488  1.0000
  S   S232      1.0  0.94408  0.39108  0.97856  1.0000
  H   H682      1.0  0.97570  0.17222  0.76601  1.0000
  C   C697      1.0  0.97421  0.99542  0.77163  1.0000
  C   C698      1.0  0.90379  0.05829  0.75187  1.0000
  H   H683      1.0  0.93055  0.13249  0.75080  1.0000
  H   H684      1.0  0.99655  0.11247  0.74349  1.0000
  H   H685      1.0  0.54084  0.28701  0.97122  1.0000
  S   S233      1.0  0.84286  0.35923  0.98726  1.0000
  H   H686      1.0  0.95066  0.44515  0.94404  1.0000
  C   C699      1.0  0.53937  0.26464  0.97999  1.0000
  H   H687      1.0  0.88833  0.07259  0.74692  1.0000
  C   C700      1.0  0.93504  0.45520  0.95195  1.0000
  H   H688      1.0  0.60803  0.19848  0.96899  1.0000
  H   H689      1.0  0.88529  0.03171  0.75841  1.0000
  C   C701      1.0  0.95122  0.48518  0.96063  1.0000
  C   C702      1.0  0.75464  0.25775  0.98967  1.0000
  H   H690      1.0  0.88055  0.48805  0.98194  1.0000
  H   H691      1.0  0.99791  0.00235  0.79288  1.0000
  Fe  Fe115     1.0  0.94922  0.80053  0.15054  1.0000
  S   S234      1.0  0.92090  0.80933  0.17262  1.0000
  S   S235      1.0  0.93929  0.74679  0.13954  1.0000
  Fe  Fe116     1.0  0.97435  0.84489  0.17807  1.0000
  H   H692      1.0  0.92575  0.86352  0.20836  1.0000
  Fe  Fe117     1.0  0.92486  0.86144  0.15929  1.0000
  S   S236      1.0  0.88235  0.88269  0.16195  1.0000
  H   H693      1.0  0.77587  0.76283  0.14579  1.0000
  C   C703      1.0  0.88716  0.59910  0.14215  1.0000
  H   H694      1.0  0.91074  0.93811  0.18704  1.0000
  S   S237      1.0  0.78358  0.63998  0.13444  1.0000
  S   S238      1.0  0.80791  0.58656  0.09999  1.0000
  C   C704      1.0  0.96237  0.98066  0.18575  1.0000
  C   C705      1.0  0.89290  0.97042  0.22008  1.0000
  Fe  Fe118     1.0  0.75734  0.54289  0.09491  1.0000
  H   H695      1.0  0.89053  0.80969  0.11272  1.0000
  H   H696      1.0  0.84809  0.75489  0.09426  1.0000
  H   H697      1.0  0.97352  0.64527  0.12896  1.0000
  H   H698      1.0  0.54710  0.50699  0.04011  1.0000
  C   C706      1.0  0.91962  0.60695  0.13338  1.0000
  Fe  Fe119     1.0  0.77725  0.58746  0.12287  1.0000
  Fe  Fe120     1.0  0.74041  0.50340  0.12749  1.0000
  H   H699      1.0  0.78890  0.72476  0.12582  1.0000
  C   C707      1.0  0.99502  0.99075  0.19089  1.0000
  H   H700      1.0  0.89824  0.87392  0.19608  1.0000
  S   S239      1.0  0.94803  0.84945  0.13659  1.0000
  C   C708      1.0  0.89820  0.95140  0.23303  1.0000
  H   H701      1.0  0.89837  0.88653  0.21610  1.0000
  C   C709      1.0  0.91177  0.65249  0.15597  1.0000
  C   C710      1.0  0.54488  0.52893  0.01689  1.0000
  H   H702      1.0  0.61570  0.49362  0.00235  1.0000
  H   H703      1.0  0.92224  0.58893  0.12452  1.0000
  C   C711      1.0  0.91489  0.88445  0.20552  1.0000
  S   S240      1.0  0.86698  0.53407  0.11097  1.0000
  C   C712      1.0  0.88819  0.95500  0.16016  1.0000
  C   C713      1.0  0.90163  0.92959  0.15457  1.0000
  C   C714      1.0  0.93210  0.94213  0.14384  1.0000
  H   H704      1.0  0.67806  0.51770  0.09093  1.0000
  H   H705      1.0  0.84754  0.63863  0.16712  1.0000
  H   H706      1.0  0.86456  0.94540  0.16843  1.0000
  H   H707      1.0  0.94257  0.92273  0.13939  1.0000
  H   H708      1.0  0.82836  0.60460  0.15411  1.0000
  C   C715      1.0  0.89584  0.71849  0.13782  1.0000
  C   C716      1.0  0.88900  0.69015  0.12767  1.0000
  C   C717      1.0  0.85461  0.66558  0.12675  1.0000
  C   C718      1.0  0.82687  0.66947  0.13589  1.0000
  C   C719      1.0  0.83368  0.69777  0.14607  1.0000
  C   C720      1.0  0.86814  0.72245  0.14696  1.0000
  H   H709      1.0  0.91042  0.68702  0.12058  1.0000
  H   H710      1.0  0.84961  0.64384  0.11889  1.0000
  H   H711      1.0  0.81226  0.70058  0.15329  1.0000
  H   H712      1.0  0.87327  0.74409  0.15491  1.0000
  C   C721      1.0  0.94839  0.63841  0.13592  1.0000
  H   H713      1.0  0.87416  0.74197  0.10702  1.0000
  Fe  Fe121     1.0  0.81549  0.53930  0.11233  1.0000
  H   H714      1.0  0.86851  0.95909  0.21519  1.0000
  H   H715      1.0  0.84330  0.59131  0.17149  1.0000
  S   S241      1.0  0.78894  0.54349  0.13563  1.0000
  C   C722      1.0  0.84906  0.61367  0.16196  1.0000
  H   H716      1.0  0.52453  0.53826  0.02097  1.0000
  H   H717      1.0  0.91672  0.51210  0.12405  1.0000
  H   H718      1.0  0.86491  0.57475  0.13995  1.0000
  H   H719      1.0  0.87779  0.84902  0.13221  1.0000
  C   C723      1.0  0.58301  0.52165  0.99609  1.0000
  N   N56       1.0  0.88345  0.62213  0.15309  1.0000
  C   C724      1.0  0.93629  0.94557  0.19078  1.0000
  H   H720      1.0  0.82084  0.82541  0.14911  1.0000
  N   N57       1.0  0.94276  0.92095  0.20037  1.0000
  H   H721      1.0  0.82870  0.71347  0.10771  1.0000
  S   S242      1.0  0.97614  0.89783  0.16650  1.0000
  H   H722      1.0  0.81258  0.53517  0.07075  1.0000
  C   C725      1.0  0.94454  0.66129  0.14733  1.0000
  S   S243      1.0  0.72558  0.54750  0.11679  1.0000
  N   N58       1.0  0.84045  0.76506  0.11811  1.0000
  C   C726      1.0  0.80848  0.75214  0.12710  1.0000
  C   C727      1.0  0.86517  0.79940  0.11984  1.0000
  C   C728      1.0  0.80095  0.77346  0.13845  1.0000
  C   C729      1.0  0.85827  0.82167  0.13089  1.0000
  C   C730      1.0  0.82609  0.80845  0.14034  1.0000
  C   C731      1.0  0.84817  0.74277  0.10616  1.0000
  C   C732      1.0  0.97456  0.93075  0.20564  1.0000
  H   H723      1.0  0.90892  0.67114  0.16447  1.0000
  N   N59       1.0  0.55753  0.53366  0.00126  1.0000
  H   H724      1.0  0.96646  0.68646  0.14912  1.0000
  C   C733      1.0  0.55747  0.51127  0.02776  1.0000
  H   H725      1.0  0.97945  0.91139  0.21346  1.0000
  C   C734      1.0  0.67268  0.50434  0.08019  1.0000
  C   C735      1.0  0.70006  0.50949  0.06834  1.0000
  C   C736      1.0  0.59623  0.50401  0.00664  1.0000
  S   S244      1.0  0.98514  0.84150  0.20291  1.0000
  H   H726      1.0  0.85552  0.51157  0.07963  1.0000
  H   H727      1.0  0.97252  0.98930  0.13029  1.0000
  C   C737      1.0  0.83973  0.49839  0.07062  1.0000
  S   S245      1.0  0.74343  0.53808  0.07032  1.0000
  H   H728      1.0  0.94725  0.51343  0.99334  1.0000
  S   S246      1.0  0.76823  0.49576  0.10510  1.0000
  C   C738      1.0  0.92972  0.96605  0.23932  1.0000
  H   H729      1.0  0.77704  0.50478  0.05016  1.0000
  C   C739      1.0  0.58335  0.49881  0.02257  1.0000
  C   C740      1.0  0.81565  0.51157  0.06566  1.0000
  C   C741      1.0  0.79544  0.49412  0.05408  1.0000
  C   C742      1.0  0.94921  0.97994  0.13873  1.0000
  H   H730      1.0  0.51759  0.54971  0.99411  1.0000
  H   H731      1.0  0.71382  0.49638  0.04516  1.0000
  H   H732      1.0  0.66807  0.79242  0.27609  1.0000
  N   N60       1.0  0.56336  0.56480  0.45018  1.0000
  H   H733      1.0  0.60633  0.57158  0.48191  1.0000
  H   H734      1.0  0.72161  0.78202  0.27966  1.0000
  C   C743      1.0  0.56661  0.53403  0.44452  1.0000
  H   H735      1.0  0.52809  0.56581  0.43397  1.0000
  Fe  Fe122     1.0  0.50950  0.71923  0.30942  1.0000
  S   S247      1.0  0.51980  0.70001  0.42352  1.0000
  Fe  Fe123     1.0  0.57771  0.78381  0.31226  1.0000
  S   S248      1.0  0.56713  0.77966  0.33854  1.0000
  S   S249      1.0  0.62528  0.83061  0.29944  1.0000
  Fe  Fe124     1.0  0.54932  0.71830  0.33660  1.0000
  S   S250      1.0  0.90166  0.97413  0.27636  1.0000
  S   S251      1.0  0.56402  0.72280  0.31050  1.0000
  Fe  Fe125     1.0  0.86326  0.92251  0.26819  1.0000
  Fe  Fe126     1.0  0.82131  0.89563  0.30018  1.0000
  S   S252      1.0  0.86591  0.88467  0.28779  1.0000
  S   S253      1.0  0.77560  0.84623  0.31279  1.0000
  Fe  Fe127     1.0  0.90004  0.93728  0.29726  1.0000
  S   S254      1.0  0.95093  0.95305  0.30705  1.0000
  C   C744      1.0  0.53704  0.72210  0.39232  1.0000
  C   C745      1.0  0.72380  0.80670  0.27266  1.0000
  C   C746      1.0  0.54456  0.71700  0.37658  1.0000
  C   C747      1.0  0.51096  0.53090  0.49124  1.0000
  H   H736      1.0  0.62684  0.75080  0.34433  1.0000
  H   H737      1.0  0.70197  0.77331  0.35707  1.0000
  H   H738      1.0  0.97254  0.85266  0.28199  1.0000
  C   C748      1.0  0.69347  0.81240  0.27070  1.0000
  C   C749      1.0  0.72816  0.83160  0.34984  1.0000
  S   S255      1.0  0.55993  0.67908  0.35298  1.0000
  H   H739      1.0  0.50162  0.76399  0.46082  1.0000
  H   H740      1.0  0.78442  0.53720  0.48576  1.0000
  H   H741      1.0  0.55458  0.52264  0.43430  1.0000
  H   H742      1.0  0.81086  0.84580  0.26122  1.0000
  C   C750      1.0  0.69615  0.84498  0.26244  1.0000
  C   C751      1.0  0.98376  0.87846  0.28735  1.0000
  H   H743      1.0  0.54250  0.91829  0.48529  1.0000
  H   H744      1.0  0.93416  0.95098  0.24913  1.0000
  C   C752      1.0  0.54757  0.68412  0.37255  1.0000
  Fe  Fe128     1.0  0.85537  0.97843  0.28983  1.0000
  S   S256      1.0  0.85577  0.94497  0.31152  1.0000
  H   H745      1.0  0.61335  0.76659  0.36231  1.0000
  C   C753      1.0  0.53211  0.65992  0.39998  1.0000
  C   C754      1.0  0.54138  0.65554  0.38425  1.0000
  H   H746      1.0  0.67281  0.85025  0.26143  1.0000
  H   H747      1.0  0.61316  0.51628  0.47160  1.0000
  H   H748      1.0  0.52732  0.63787  0.40902  1.0000
  H   H749      1.0  0.54370  0.63006  0.38116  1.0000
  C   C755      1.0  0.66642  0.83480  0.30396  1.0000
  C   C756      1.0  0.67142  0.80451  0.31076  1.0000
  C   C757      1.0  0.70515  0.80809  0.31323  1.0000
  C   C758      1.0  0.73385  0.84199  0.30904  1.0000
  C   C759      1.0  0.72869  0.87228  0.30240  1.0000
  C   C760      1.0  0.69509  0.86863  0.29981  1.0000
  H   H750      1.0  0.64941  0.77819  0.31380  1.0000
  H   H751      1.0  0.70904  0.78455  0.31837  1.0000
  H   H752      1.0  0.75043  0.89873  0.29948  1.0000
  H   H753      1.0  0.69127  0.89210  0.29453  1.0000
  C   C761      1.0  0.53040  0.69344  0.40400  1.0000
  C   C762      1.0  0.78717  0.82589  0.26877  1.0000
  H   H754      1.0  0.75410  0.83205  0.35029  1.0000
  C   C763      1.0  0.63530  0.76235  0.35551  1.0000
  C   C764      1.0  0.58475  0.51626  0.45207  1.0000
  S   S257      1.0  0.52431  0.78063  0.30867  1.0000
  C   C765      1.0  0.59601  0.56145  0.47117  1.0000
  C   C766      1.0  0.59954  0.53015  0.46547  1.0000
  H   H755      1.0  0.68775  0.88707  0.33868  1.0000
  H   H756      1.0  0.57474  0.60262  0.46794  1.0000
  C   C767      1.0  0.96253  0.89678  0.29280  1.0000
  C   C768      1.0  0.75873  0.86415  0.25787  1.0000
  S   S258      1.0  0.81652  0.93003  0.27978  1.0000
  H   H757      1.0  0.74584  0.52131  0.47573  1.0000
  H   H758      1.0  0.54865  0.73887  0.36765  1.0000
  H   H759      1.0  0.93504  0.88510  0.29163  1.0000
  H   H760      1.0  0.79171  0.82911  0.28123  1.0000
  C   C769      1.0  0.76016  0.51300  0.48432  1.0000
  N   N61       1.0  0.66600  0.79752  0.35223  1.0000
  C   C770      1.0  0.66198  0.82895  0.34708  1.0000
  C   C771      1.0  0.69859  0.79843  0.35351  1.0000
  C   C772      1.0  0.69098  0.86254  0.34325  1.0000
  H   H761      1.0  0.74713  0.88928  0.34117  1.0000
  C   C773      1.0  0.72425  0.86381  0.34470  1.0000
  Fe  Fe129     1.0  0.51244  0.77100  0.33488  1.0000
  H   H762      1.0  0.63634  0.82803  0.34551  1.0000
  C   C774      1.0  0.72895  0.87105  0.25594  1.0000
  H   H763      1.0  0.52770  0.59127  0.45056  1.0000
  H   H764      1.0  0.78407  0.79743  0.26602  1.0000
  H   H765      1.0  0.78417  0.88460  0.25280  1.0000
  H   H766      1.0  0.64046  0.74111  0.36259  1.0000
  C   C775      1.0  0.99533  0.53112  0.47880  1.0000
  C   C776      1.0  0.57790  0.57866  0.46329  1.0000
  N   N62       1.0  0.75585  0.83230  0.26619  1.0000
  H   H767      1.0  0.99062  0.55613  0.48025  1.0000
  H   H768      1.0  0.73134  0.89662  0.24960  1.0000
  H   H769      1.0  0.53595  0.74812  0.39542  1.0000
  H   H770      1.0  0.58235  0.99165  0.48392  1.0000
  C   C777      1.0  0.54516  0.58390  0.44198  1.0000
  C   C778      1.0  0.97679  0.92951  0.30015  1.0000
  H   H771      1.0  0.56427  0.60960  0.43508  1.0000
  C   C779      1.0  0.52078  0.50051  0.49132  1.0000
  H   H772      1.0  0.96659  0.49665  0.44702  1.0000
  C   C780      1.0  0.96752  0.49629  0.48197  1.0000
  H   H773      1.0  0.94156  0.49459  0.48587  1.0000
  C   C781      1.0  0.98915  0.49431  0.44050  1.0000
  S   S259      1.0  0.86399  0.91215  0.24277  1.0000
  H   H774      1.0  0.81410  0.62382  0.51518  1.0000
  C   C782      1.0  0.57638  0.98280  0.49671  1.0000
  Fe  Fe130     1.0  0.75187  0.55355  0.59918  1.0000
  S   S260      1.0  0.71402  0.55750  0.58328  1.0000
  S   S261      1.0  0.76204  0.58684  0.62022  1.0000
  H   H775      1.0  0.88260  0.95319  0.67882  1.0000
  C   C783      1.0  0.82550  0.84984  0.69144  1.0000
  Fe  Fe131     1.0  0.74982  0.54802  0.56432  1.0000
  S   S262      1.0  0.76442  0.58141  0.54105  1.0000
  H   H776      1.0  0.95803  0.97315  0.71416  1.0000
  S   S263      1.0  0.79003  0.54926  0.57982  1.0000
  H   H777      1.0  0.84127  0.86105  0.71446  1.0000
  C   C784      1.0  0.52592  0.92618  0.49366  1.0000
  C   C785      1.0  0.94744  0.93050  0.64557  1.0000
  Fe  Fe132     1.0  0.86668  0.78218  0.66593  1.0000
  S   S264      1.0  0.85456  0.78784  0.64141  1.0000
  S   S265      1.0  0.82646  0.76152  0.68711  1.0000
  Fe  Fe133     1.0  0.89994  0.77217  0.63472  1.0000
  S   S266      1.0  0.89974  0.73384  0.61592  1.0000
  Fe  Fe134     1.0  0.89559  0.84556  0.64031  1.0000
  S   S267      1.0  0.88843  0.89661  0.63196  1.0000
  S   S268      1.0  0.90893  0.76176  0.65949  1.0000
  H   H778      1.0  0.59287  0.96796  0.49997  1.0000
  C   C786      1.0  0.84856  0.77447  0.70351  1.0000
  C   C787      1.0  0.83123  0.77944  0.71751  1.0000
  C   C788      1.0  0.88413  0.78159  0.70239  1.0000
  H   H779      1.0  0.80368  0.77378  0.71844  1.0000
  H   H780      1.0  0.89764  0.77773  0.69167  1.0000
  C   C789      1.0  0.83828  0.55262  0.50667  1.0000
  N   N63       1.0  0.82883  0.86372  0.67622  1.0000
  C   C790      1.0  0.66155  0.52840  0.62738  1.0000
  H   H781      1.0  0.80883  0.82103  0.69511  1.0000
  H   H782      1.0  0.89549  0.62427  0.53090  1.0000
  C   C791      1.0  0.80036  0.62775  0.61873  1.0000
  C   C792      1.0  0.82558  0.63764  0.60550  1.0000
  C   C793      1.0  0.85607  0.67024  0.60473  1.0000
  C   C794      1.0  0.86123  0.69330  0.61708  1.0000
  C   C795      1.0  0.83603  0.68343  0.63030  1.0000
  C   C796      1.0  0.80575  0.65065  0.63114  1.0000
  H   H783      1.0  0.82161  0.62023  0.59587  1.0000
  H   H784      1.0  0.87547  0.67781  0.59447  1.0000
  H   H785      1.0  0.83984  0.70098  0.63990  1.0000
  H   H786      1.0  0.78633  0.64315  0.64140  1.0000
  H   H787      1.0  0.81608  0.49800  0.51911  1.0000
  H   H788      1.0  0.82449  0.84781  0.65284  1.0000
  N   N64       1.0  0.87186  0.53380  0.54339  1.0000
  H   H789      1.0  0.85019  0.91166  0.65980  1.0000
  N   N65       1.0  0.53930  0.95857  0.50068  1.0000
  H   H790      1.0  0.78390  0.84156  0.66457  1.0000
  C   C797      1.0  0.91799  0.93355  0.64045  1.0000
  C   C798      1.0  0.72848  0.52363  0.50785  1.0000
  C   C799      1.0  0.89619  0.59689  0.53180  1.0000
  H   H791      1.0  0.93764  0.54638  0.51445  1.0000
  H   H792      1.0  0.98127  0.84820  0.72771  1.0000
  C   C800      1.0  0.79279  0.56981  0.52805  1.0000
  C   C801      1.0  0.93882  0.68875  0.63599  1.0000
  N   N66       1.0  0.96614  0.72539  0.63736  1.0000
  H   H793      1.0  0.97960  0.86233  0.70012  1.0000
  S   S269      1.0  0.99370  0.84500  0.66903  1.0000
  C   C802      1.0  0.91989  0.58880  0.52158  1.0000
  S   S270      1.0  0.90327  0.84146  0.66551  1.0000
  C   C803      1.0  0.84973  0.79231  0.73023  1.0000
  H   H794      1.0  0.71496  0.53177  0.64271  1.0000
  C   C804      1.0  0.89560  0.52587  0.53369  1.0000
  C   C805      1.0  0.84358  0.87248  0.70247  1.0000
  H   H795      1.0  0.80526  0.81016  0.66781  1.0000
  C   C806      1.0  0.99062  0.87833  0.72942  1.0000
  H   H796      1.0  0.51858  0.55040  0.50006  1.0000
  C   C807      1.0  0.86686  0.92406  0.68248  1.0000
  H   H797      1.0  0.85505  0.60899  0.49657  1.0000
  Fe  Fe135     1.0  0.68927  0.49542  0.58700  1.0000
  C   C808      1.0  0.86440  0.90985  0.69793  1.0000
  C   C809      1.0  0.81461  0.59641  0.51612  1.0000
  C   C810      1.0  0.79329  0.53426  0.52917  1.0000
  C   C811      1.0  0.80957  0.83966  0.66483  1.0000
  C   C812      1.0  0.97664  0.73429  0.65173  1.0000
  H   H798      1.0  0.93766  0.60975  0.51261  1.0000
  C   C813      1.0  0.97008  0.95905  0.65324  1.0000
  C   C814      1.0  0.88514  0.79864  0.72914  1.0000
  S   S271      1.0  0.94040  0.83089  0.63153  1.0000
  H   H799      1.0  0.95296  0.90623  0.64352  1.0000
  C   C815      1.0  0.97471  0.88652  0.70331  1.0000
  H   H800      1.0  0.93639  0.68295  0.62351  1.0000
  H   H801      1.0  0.64299  0.53440  0.63585  1.0000
  N   N67       1.0  0.97805  0.89769  0.71813  1.0000
  H   H802      1.0  0.94445  0.66638  0.64191  1.0000
  C   C816      1.0  0.83767  0.58801  0.50559  1.0000
  C   C817      1.0  0.69715  0.50357  0.64143  1.0000
  H   H803      1.0  0.95210  0.95327  0.68721  1.0000
  C   C818      1.0  0.84858  0.90048  0.67175  1.0000
  C   C819      1.0  0.90224  0.79297  0.71528  1.0000
  H   H804      1.0  0.65051  0.52207  0.61610  1.0000
  H   H805      1.0  0.92956  0.79766  0.71444  1.0000
  C   C820      1.0  0.81568  0.52544  0.51829  1.0000
  C   C821      1.0  0.96246  0.94864  0.71106  1.0000
  H   H806      1.0  0.88850  0.96773  0.63894  1.0000
  H   H807      1.0  0.85602  0.50654  0.56646  1.0000
  C   C822      1.0  0.91984  0.55316  0.52259  1.0000
  Fe  Fe136     1.0  0.94508  0.82224  0.65704  1.0000
  C   C823      1.0  0.97963  0.75111  0.62460  1.0000
  C   C824      1.0  0.95912  0.93750  0.69591  1.0000
  H   H808      1.0  0.85340  0.57517  0.55043  1.0000
  H   H809      1.0  0.70057  0.53111  0.52910  1.0000
  C   C825      1.0  0.84636  0.50482  0.55484  1.0000
  H   H810      1.0  0.96285  0.89737  0.68022  1.0000
  H   H811      1.0  0.91312  0.68774  0.64137  1.0000
  C   C826      1.0  0.96516  0.90620  0.69200  1.0000
  H   H812      1.0  0.68603  0.55390  0.62468  1.0000
  H   H813      1.0  0.97079  0.74444  0.61325  1.0000
  H   H814      1.0  0.77607  0.51343  0.53825  1.0000
  C   C827      1.0  0.87232  0.56893  0.54277  1.0000
  H   H815      1.0  0.96524  0.71432  0.66195  1.0000
  C   C828      1.0  0.91130  0.96533  0.64290  1.0000
  S   S272      1.0  0.86841  0.54368  0.49368  1.0000
  C   C829      1.0  0.97209  0.92836  0.72209  1.0000
  H   H816      1.0  0.97501  0.93752  0.73380  1.0000
  C   C830      1.0  0.96293  0.99036  0.65601  1.0000
  H   H817      1.0  0.73827  0.55279  0.50361  1.0000
  N   N68       1.0  0.73786  0.49938  0.49944  1.0000
  H   H818      1.0  0.82094  0.50777  0.55627  1.0000
  C   C831      1.0  0.51823  0.96843  0.51119  1.0000
  H   H819      1.0  0.89545  0.49813  0.53427  1.0000
  N   N69       1.0  0.66843  0.49712  0.63388  1.0000
  H   H820      1.0  0.87820  0.92780  0.70643  1.0000
  C   C832      1.0  0.70709  0.51150  0.52228  1.0000
  H   H821      1.0  0.61043  0.49929  0.56341  1.0000
  H   H822      1.0  0.99301  0.95674  0.65708  1.0000
  H   H823      1.0  0.62219  0.49824  0.54255  1.0000
  S   S273      1.0  0.54732  0.49563  0.50514  1.0000
  H   H824      1.0  0.99646  0.96706  0.61112  1.0000
  H   H825      1.0  0.83642  0.79647  0.74100  1.0000
  C   C833      1.0  0.68443  0.82920  0.76281  1.0000
  Fe  Fe137     1.0  0.90770  0.93381  0.75827  1.0000
  S   S274      1.0  0.85445  0.83732  0.78109  1.0000
  C   C834      1.0  0.96310  0.80784  0.77415  1.0000
  H   H826      1.0  0.53436  0.86805  0.87687  1.0000
  S   S275      1.0  0.87443  0.92762  0.78115  1.0000
  C   C835      1.0  0.93293  0.80281  0.78426  1.0000
  Fe  Fe138     1.0  0.89674  0.88707  0.78879  1.0000
  S   S276      1.0  0.91358  0.88582  0.81270  1.0000
  Fe  Fe139     1.0  0.83516  0.87888  0.77136  1.0000
  S   S277      1.0  0.77951  0.87412  0.77337  1.0000
  S   S278      1.0  0.93326  0.89738  0.76670  1.0000
  H   H827      1.0  0.59626  0.75441  0.78194  1.0000
  Fe  Fe140     1.0  0.54860  0.75382  0.80860  1.0000
  H   H828      1.0  0.59248  0.52452  0.98367  1.0000
  H   H829      1.0  0.51340  0.82606  0.77712  1.0000
  Fe  Fe141     1.0  0.60933  0.74969  0.82355  1.0000
  S   S279      1.0  0.58150  0.74161  0.84810  1.0000
  S   S280      1.0  0.66133  0.74527  0.81815  1.0000
  Fe  Fe142     1.0  0.53496  0.70289  0.83809  1.0000
  C   C836      1.0  0.62337  0.81097  0.77220  1.0000
  Fe  Fe143     1.0  0.56425  0.78574  0.83964  1.0000
  H   H830      1.0  0.70967  0.85030  0.75787  1.0000
  S   S281      1.0  0.56395  0.70648  0.81424  1.0000
  S   S282      1.0  0.59617  0.79762  0.81593  1.0000
  C   C837      1.0  0.68132  0.79327  0.76742  1.0000
  H   H831      1.0  0.60041  0.81745  0.77424  1.0000
  H   H832      1.0  0.63990  0.71163  0.76943  1.0000
  N   N70       1.0  0.65014  0.76710  0.77450  1.0000
  S   S283      1.0  0.94245  0.98838  0.74514  1.0000
  C   C838      1.0  0.94904  0.52598  0.98127  1.0000
  C   C839      1.0  0.97997  0.89145  0.80146  1.0000
  C   C840      1.0  0.65529  0.83813  0.76536  1.0000
  C   C841      1.0  0.99126  0.86862  0.83091  1.0000
  C   C842      1.0  0.74951  0.84050  0.78772  1.0000
  C   C843      1.0  0.71980  0.84557  0.79427  1.0000
  C   C844      1.0  0.69309  0.81698  0.80409  1.0000
  C   C845      1.0  0.69601  0.78320  0.80744  1.0000
  C   C846      1.0  0.72632  0.77864  0.80137  1.0000
  C   C847      1.0  0.75302  0.80720  0.79151  1.0000
  H   H833      1.0  0.71707  0.87138  0.79147  1.0000
  H   H834      1.0  0.67018  0.82105  0.80893  1.0000
  H   H835      1.0  0.72879  0.75260  0.80399  1.0000
  H   H836      1.0  0.77570  0.80293  0.78642  1.0000
  C   C848      1.0  0.95424  0.88391  0.81440  1.0000
  S   S284      1.0  0.51545  0.74627  0.83147  1.0000
  H   H837      1.0  0.65751  0.86610  0.76217  1.0000
  H   H838      1.0  0.95929  0.79101  0.81895  1.0000
  C   C849      1.0  0.96000  0.79532  0.80635  1.0000
  H   H839      1.0  0.96391  0.81255  0.76157  1.0000
  S   S285      1.0  0.52893  0.76366  0.78636  1.0000
  S   S286      1.0  0.56169  0.83064  0.85442  1.0000
  C   C850      1.0  0.51611  0.83934  0.87752  1.0000
  C   C851      1.0  0.89984  0.79133  0.81055  1.0000
  C   C852      1.0  0.99057  0.80018  0.79657  1.0000
  C   C853      1.0  0.64734  0.72956  0.77919  1.0000
  H   H840      1.0  0.97585  0.90045  0.79011  1.0000
  S   S287      1.0  0.86696  0.88883  0.74755  1.0000
  H   H841      1.0  0.70440  0.78695  0.76583  1.0000
  H   H842      1.0  0.52327  0.93162  0.98701  1.0000
  C   C854      1.0  0.62120  0.77531  0.77663  1.0000
  C   C855      1.0  0.96033  0.87320  0.82916  1.0000
  H   H843      1.0  0.98059  0.88023  0.74169  1.0000
  C   C856      1.0  0.51738  0.94852  0.97840  1.0000
  H   H844      1.0  0.67241  0.73019  0.78263  1.0000
  H   H845      1.0  0.94067  0.86764  0.83922  1.0000
  C   C857      1.0  0.52374  0.81463  0.86803  1.0000
  H   H846      1.0  0.88556  0.80713  0.80567  1.0000
  H   H847      1.0  0.97951  0.49841  0.95915  1.0000
  C   C858      1.0  0.54487  0.55318  0.99008  1.0000
  H   H848      1.0  0.95195  0.97096  0.77667  1.0000
  H   H849      1.0  0.54432  0.54162  0.97847  1.0000
  H   H850      1.0  0.50921  0.69392  0.88178  1.0000
  H   H851      1.0  0.50349  0.73938  0.89991  1.0000
  S   S288      1.0  0.90853  0.81394  0.74492  1.0000
  C   C859      1.0  0.50031  0.77747  0.86906  1.0000
  H   H852      1.0  0.88250  0.76134  0.81218  1.0000
  C   C860      1.0  0.99212  0.80670  0.78037  1.0000
  N   N71       1.0  0.93175  0.49662  0.97129  1.0000
  H   H853      1.0  0.91043  0.80353  0.77928  1.0000
  H   H854      1.0  0.62765  0.71703  0.78974  1.0000
  H   H855      1.0  0.53007  0.57747  0.86269  1.0000
  Fe  Fe144     1.0  0.88952  0.85151  0.75818  1.0000
  N   N72       1.0  0.93188  0.79722  0.80016  1.0000
  H   H856      1.0  0.90582  0.80179  0.82218  1.0000
  H   H857      1.0  0.56195  0.58324  0.98858  1.0000
  H   H858      1.0  0.51390  0.84723  0.83562  1.0000
  H   H859      1.0  0.50666  0.75786  0.86237  1.0000
  H   H860      1.0  0.97721  0.54153  0.97683  1.0000
  C   C861      1.0  0.50201  0.55909  0.86578  1.0000
  H   H861      1.0  0.93655  0.54632  0.98177  1.0000
  H   H862      1.0  0.51723  0.58985  0.83630  1.0000
  C   C862      1.0  0.52736  0.98667  0.97980  1.0000
  C   C863      1.0  0.50256  0.99199  0.95600  1.0000
  H   H863      1.0  0.49989  0.53786  0.87529  1.0000
  C   C864      1.0  0.49971  0.93202  0.96590  1.0000
  H   H864      1.0  0.99537  0.85954  0.84233  1.0000
