data_image0
_chemical_formula_structural       FeHSFeSFe2S2H2SFeS2FeS2FeSFeHS2FeS2C3S2C6H4C6H8CSHFeHC6HCH2CH4CH3CHCHCH2FeHCNC6H4CH2SC5HCHCH2NC3H2CHCSHCH4C6H2C2HNSHC3H2CH2C2HNCH2SFeS2FeS2FeSFeS3FeS2CH3CFeSFeNSFeCS2C2SCSC5H4C3HC8H4C6H4C2H2CSC2H2C2H5NC3H5CNH2CH2C2HNC4H2CH7C2SCH2CFeNCHNC2H2C3H5C2H2FeH3NH2SHSFeC3FeS2FeSHFeSFeS3HCHS2FeS2FeSFeSH2FeSHS2FeSC3SH2C7H2CHC3H3CH4NC7H2C6H4CHNH3FeH4SH2CHC2HC2HSC3HCHSC2HC2N2C6H8FeHNSHC2HCHC2HCHSH3FeSCFeS2FeHFeS4FeSFeCSFeCS4CHSCHCFeSCNC10HCH2CHCH7CHFeC6H4C6H3CHCH6SCHCFeHCH3C2FeHSH10SHC2HC3H5SCHNC6HNHCNC2H3SC4HSHCHCHCNSNSC2SH2C2FeSCFeSHFeSFeS3HC2S2FeHSFeSFeS2C2S2C3H2C6H4CH2C3HCHC2HC7H8CH2CNHNHCHNH2CH2CHSHCH2C3H2SHCNC6H2C5H2SH2CHSH5CH3CH2FeCH4C2NSHC2H2C3FeS2FeSCFeHFeS3H2SCHC6H4C2HC3H3CNHNHFeCH2CSCSH2C2H3NHC3H3SC2H2C2HCHC2H3CHC2HCSH2C2FeHSFeS2Fe2HS2H2FeS2FeSFeS3H2S2C7H4C2H4SHC3HC7H4CNCHC2FeHCNH2C2HCH3CHNC6H3CSCH6S2C3FeHCH3CH2C5H2CHCHCH2C2HCH3CH2C2HCSNFeSHFeS2FeCFeS3CH3C4NH2C6H6SH3CH2C3HCH3CH2C4HC2HC2FeH6CH2C4FeSHFeS2FeSFeHS2H2SCSCSC6H4CHNC5H2CH2CH4CH2FeCNH2C3HC2HC2HCH2C3H2CSH4CHCFeSFeS2FeSFeS3FeHSFeSFeS3FeSHC3S2C2HC6H4SCSH2C3H2C6H4CHC4H3SH2FeHC4NHC4H2CHC2H2CH3C2HCH2CHNH2CH2CHNCHC3NH3CH2CH2C3HCH2SCHCHSC2HSH2SFeS2FeSFe2SFeS2HCHCNCH2CHCH2CHC6H4C2H5CSH3NH5C4HC2HC2HC3H2C3H3CHCHFeS2FeHSFeHFeS2HCS2HS3FeSFeCSFeS2HFeH3C6H5SCHCH4CHC6H4CH3SC2HNC6HNHC2H2C2H3CSCHCH3C3H2CFeCSHNHCH2NC2H2C2HCNHC3HCH2CH2C5HCSHSHC4H2SHFeCSFeSFeCSHFeS2FeSFeSFeS3FeS2FeHFeSC2HNHCSH3C5H2C6H5C4H2C6H4C2H2CNCH3C3H2CN2C2NC2HC2HC2HC2SCH3C3HCHCHCSH2CHSFeH3CH3CH6SH2SC2FeHC4HC2NH2C3SHNSFeS2FeSNFeCFeS5FeS2FeSFeS2HS2FeSCH2FeSC2H2CH4C6HCH2C3H2C3H2NFeC2H3C2HCHC6H4CHCHC3NCH4CHCFeCHNC6H2CHCH3CH2CHCHC4SCHSH2C3H3C2HCSH4CHCFeS2FeSFeCS2FeS2FeS2FeSFeS3HFeSFeSFeCSFeS2C4H2NHC2HC6H4C6H4C7H3C2HC6HCNH6NH3CNC2H4C2NC5H6SCH4CHS2H2C2HSC2HCHCHC2H2C2H2CH2CHCHNHC2H2CH2C2HNSCHNH4CHFeS2FeSFeC2SFeS2HFeCS2FeSHFeS2FeSFeS3H2SH2C6H4C6H5C7H5SC3HC2HC2HCH3SC2NHNC6H10C3NHCHCHCH2CH2CS2CNH2CH2C2H5C3H2NHCFe2CH3C3H2CH3CHSH2
_chemical_formula_sum              "Fe144 H864 S288 C864 N72"
_cell_length_a       48.2439
_cell_length_b       48.025
_cell_length_c       52.693
_cell_angle_alpha    91.9746
_cell_angle_beta     89.067
_cell_angle_gamma    117.81

_space_group_name_H-M_alt    "P 1"
_space_group_IT_number       1

loop_
  _space_group_symop_operation_xyz
  'x, y, z'

loop_
  _atom_site_type_symbol
  _atom_site_label
  _atom_site_symmetry_multiplicity
  _atom_site_fract_x
  _atom_site_fract_y
  _atom_site_fract_z
  _atom_site_occupancy
  Fe  Fe1       1.0  0.17688  0.39284  0.20010  1.0000
  H   H1        1.0  0.14164  0.01006  0.01382  1.0000
  S   S1        1.0  0.21769  0.38912  0.17976  1.0000
  Fe  Fe2       1.0  0.10570  0.35813  0.21211  1.0000
  S   S2        1.0  0.05706  0.31806  0.20354  1.0000
  Fe  Fe3       1.0  0.14131  0.42929  0.21593  1.0000
  Fe  Fe4       1.0  0.37678  0.47485  0.10145  1.0000
  S   S3        1.0  0.13472  0.39480  0.18377  1.0000
  S   S4        1.0  0.14669  0.35193  0.22494  1.0000
  H   H2        1.0  0.40868  0.29017  0.06709  1.0000
  H   H3        1.0  0.26954  0.46388  0.21129  1.0000
  S   S5        1.0  0.38390  0.15117  0.18956  1.0000
  Fe  Fe5       1.0  0.22498  0.17755  0.04993  1.0000
  S   S6        1.0  0.25819  0.18236  0.01806  1.0000
  S   S7        1.0  0.18042  0.18219  0.04385  1.0000
  Fe  Fe6       1.0  0.26812  0.17038  0.09003  1.0000
  S   S8        1.0  0.30383  0.17565  0.06037  1.0000
  S   S9        1.0  0.27584  0.16689  0.13242  1.0000
  Fe  Fe7       1.0  0.29534  0.21451  0.04583  1.0000
  S   S10       1.0  0.33271  0.26268  0.03430  1.0000
  Fe  Fe8       1.0  0.26256  0.14257  0.03603  1.0000
  H   H4        1.0  0.04599  0.46192  0.04065  1.0000
  S   S11       1.0  0.26198  0.21139  0.07684  1.0000
  S   S12       1.0  0.22688  0.13555  0.06657  1.0000
  Fe  Fe9       1.0  0.40342  0.42928  0.10128  1.0000
  S   S13       1.0  0.37809  0.44094  0.07144  1.0000
  S   S14       1.0  0.38525  0.37873  0.11300  1.0000
  C   C1        1.0  0.30333  0.03894  0.16812  1.0000
  C   C2        1.0  0.04634  0.39939  0.21534  1.0000
  C   C3        1.0  0.02054  0.37076  0.20877  1.0000
  S   S15       1.0  0.45166  0.46487  0.08879  1.0000
  S   S16       1.0  0.40045  0.46195  0.13169  1.0000
  C   C4        1.0  0.34531  0.29522  0.05590  1.0000
  C   C5        1.0  0.33485  0.29161  0.08107  1.0000
  C   C6        1.0  0.34693  0.31754  0.09828  1.0000
  C   C7        1.0  0.36909  0.34740  0.09037  1.0000
  C   C8        1.0  0.37884  0.35129  0.06501  1.0000
  C   C9        1.0  0.36712  0.32520  0.04789  1.0000
  H   H5        1.0  0.31831  0.26868  0.08757  1.0000
  H   H6        1.0  0.33933  0.31439  0.11788  1.0000
  H   H7        1.0  0.39604  0.37421  0.05879  1.0000
  H   H8        1.0  0.37536  0.32817  0.02845  1.0000
  C   C10       1.0  0.35323  0.15500  0.17417  1.0000
  C   C11       1.0  0.32957  0.15815  0.18767  1.0000
  C   C12       1.0  0.30584  0.16119  0.17456  1.0000
  C   C13       1.0  0.30532  0.16104  0.14783  1.0000
  C   C14       1.0  0.32877  0.15750  0.13434  1.0000
  C   C15       1.0  0.35259  0.15465  0.14745  1.0000
  H   H9        1.0  0.32973  0.15862  0.20821  1.0000
  H   H10       1.0  0.28790  0.16398  0.18524  1.0000
  H   H11       1.0  0.32863  0.15698  0.11380  1.0000
  H   H12       1.0  0.37068  0.15210  0.13677  1.0000
  H   H13       1.0  0.13220  0.20033  0.03609  1.0000
  H   H14       1.0  0.31096  0.03412  0.14978  1.0000
  H   H15       1.0  0.12158  0.22793  0.00137  1.0000
  H   H16       1.0  0.21007  0.09123  0.99003  1.0000
  C   C16       1.0  0.39722  0.28048  0.08493  1.0000
  S   S17       1.0  0.18506  0.42938  0.23114  1.0000
  H   H17       1.0  0.06848  0.13800  0.00814  1.0000
  Fe  Fe10      1.0  0.39117  0.14594  0.23178  1.0000
  H   H18       1.0  0.26679  0.99123  0.17254  1.0000
  C   C17       1.0  0.24847  0.41433  0.15938  1.0000
  C   C18       1.0  0.25139  0.44313  0.15151  1.0000
  C   C19       1.0  0.27734  0.46307  0.13665  1.0000
  C   C20       1.0  0.30082  0.45467  0.12963  1.0000
  C   C21       1.0  0.29774  0.42575  0.13728  1.0000
  C   C22       1.0  0.27164  0.40567  0.15189  1.0000
  H   H19       1.0  0.23376  0.45010  0.15700  1.0000
  C   C23       1.0  0.19623  0.21636  0.99958  1.0000
  H   H20       1.0  0.31558  0.41896  0.13212  1.0000
  H   H21       1.0  0.26967  0.38349  0.15787  1.0000
  C   C24       1.0  0.02555  0.30726  0.22529  1.0000
  H   H22       1.0  0.26671  0.04466  0.99762  1.0000
  H   H23       1.0  0.32558  0.41597  0.20472  1.0000
  H   H24       1.0  0.18587  0.04982  0.03949  1.0000
  H   H25       1.0  0.36729  0.23463  0.06838  1.0000
  C   C25       1.0  0.10138  0.45749  0.16659  1.0000
  H   H26       1.0  0.27069  0.26133  0.03327  1.0000
  H   H27       1.0  0.10480  0.43677  0.16552  1.0000
  H   H28       1.0  0.07650  0.44673  0.13096  1.0000
  C   C26       1.0  0.08545  0.46329  0.14692  1.0000
  H   H29       1.0  0.32127  0.09819  0.21191  1.0000
  C   C27       1.0  0.14850  0.20920  0.02044  1.0000
  H   H30       1.0  0.27936  0.48529  0.13071  1.0000
  C   C28       1.0  0.17525  0.20456  0.01985  1.0000
  H   H31       1.0  0.23930  0.27732  0.08836  1.0000
  H   H32       1.0  0.25640  0.06491  0.23831  1.0000
  Fe  Fe11      1.0  0.42640  0.47910  0.06076  1.0000
  H   H33       1.0  0.99183  0.27378  0.19890  1.0000
  C   C29       1.0  0.14234  0.22473  0.00071  1.0000
  N   N1        1.0  0.26915  0.29760  0.05653  1.0000
  C   C30       1.0  0.25889  0.29805  0.08085  1.0000
  C   C31       1.0  0.29390  0.32372  0.04712  1.0000
  C   C32       1.0  0.27360  0.32524  0.09643  1.0000
  C   C33       1.0  0.30901  0.35132  0.06212  1.0000
  C   C34       1.0  0.29886  0.35199  0.08696  1.0000
  C   C35       1.0  0.25353  0.26931  0.04009  1.0000
  H   H34       1.0  0.30243  0.32308  0.02803  1.0000
  H   H35       1.0  0.26555  0.32557  0.11574  1.0000
  H   H36       1.0  0.32899  0.37181  0.05477  1.0000
  H   H37       1.0  0.31087  0.37310  0.09893  1.0000
  C   C36       1.0  0.99544  0.28428  0.21785  1.0000
  H   H38       1.0  0.33830  0.08784  0.16987  1.0000
  H   H39       1.0  0.06747  0.40834  0.20385  1.0000
  S   S18       1.0  0.33401  0.48147  0.11215  1.0000
  C   C37       1.0  0.20761  0.01997  0.04344  1.0000
  C   C38       1.0  0.37385  0.24927  0.08564  1.0000
  C   C39       1.0  0.31874  0.06902  0.17941  1.0000
  C   C40       1.0  0.27837  0.01501  0.18073  1.0000
  C   C41       1.0  0.31824  0.99517  0.21737  1.0000
  H   H40       1.0  0.24299  0.27442  0.02344  1.0000
  C   C42       1.0  0.18412  0.02675  0.03531  1.0000
  H   H41       1.0  0.25048  0.00255  0.21462  1.0000
  C   C43       1.0  0.04512  0.41623  0.23704  1.0000
  H   H42       1.0  0.39469  0.30192  0.14653  1.0000
  H   H43       1.0  0.23443  0.24942  0.05010  1.0000
  N   N2        1.0  0.36577  0.25623  0.13004  1.0000
  C   C44       1.0  0.35822  0.23747  0.10849  1.0000
  C   C45       1.0  0.38882  0.28685  0.12956  1.0000
  C   C46       1.0  0.01900  0.42987  0.01024  1.0000
  H   H44       1.0  0.42222  0.32409  0.10645  1.0000
  H   H45       1.0  0.36641  0.46149  0.18239  1.0000
  C   C47       1.0  0.34948  0.24290  0.15381  1.0000
  H   H46       1.0  0.33970  0.21334  0.10884  1.0000
  C   C48       1.0  0.24083  0.07097  0.99587  1.0000
  S   S19       1.0  0.26624  0.10047  0.01774  1.0000
  H   H47       1.0  0.27653  0.41696  0.21894  1.0000
  C   C49       1.0  0.11313  0.47866  0.18733  1.0000
  H   H48       1.0  0.35733  0.22620  0.16097  1.0000
  H   H49       1.0  0.35389  0.26134  0.16878  1.0000
  H   H50       1.0  0.32370  0.22989  0.15064  1.0000
  H   H51       1.0  0.02168  0.35710  0.19230  1.0000
  C   C50       1.0  0.30904  0.07472  0.20331  1.0000
  C   C51       1.0  0.29515  0.43726  0.20998  1.0000
  C   C52       1.0  0.26931  0.02152  0.20463  1.0000
  C   C53       1.0  0.04269  0.45813  0.02024  1.0000
  C   C54       1.0  0.40477  0.29948  0.10698  1.0000
  C   C55       1.0  0.15932  0.00425  0.02068  1.0000
  H   H52       1.0  0.43068  0.99763  0.20280  1.0000
  H   H53       1.0  0.11171  0.12550  0.01693  1.0000
  C   C56       1.0  0.32250  0.43660  0.20178  1.0000
  C   C57       1.0  0.34539  0.46233  0.18899  1.0000
  H   H54       1.0  0.21680  0.21284  0.99871  1.0000
  N   N3        1.0  0.28487  0.05098  0.21574  1.0000
  S   S20       1.0  0.13469  0.47315  0.21196  1.0000
  H   H55       1.0  0.22762  0.03782  0.05387  1.0000
  C   C58       1.0  0.06167  0.48182  0.00388  1.0000
  C   C59       1.0  0.11103  0.13590  0.99913  1.0000
  C   C60       1.0  0.08684  0.14329  0.99412  1.0000
  H   H56       1.0  0.32801  0.99885  0.19842  1.0000
  H   H57       1.0  0.48606  0.46650  0.02945  1.0000
  C   C61       1.0  0.29118  0.46365  0.20562  1.0000
  H   H58       1.0  0.00381  0.41146  0.02279  1.0000
  H   H59       1.0  0.34767  0.04323  0.23017  1.0000
  C   C62       1.0  0.99370  0.35931  0.22408  1.0000
  C   C63       1.0  0.32941  0.02036  0.23534  1.0000
  H   H60       1.0  0.37888  0.99176  0.21663  1.0000
  N   N4        1.0  0.34096  0.48782  0.18427  1.0000
  C   C64       1.0  0.20577  0.99065  0.03729  1.0000
  H   H61       1.0  0.27103  0.34835  0.31756  1.0000
  H   H62       1.0  0.26672  0.20281  0.38357  1.0000
  S   S21       1.0  0.15753  0.38212  0.29735  1.0000
  Fe  Fe12      1.0  0.18083  0.26949  0.39530  1.0000
  S   S22       1.0  0.18837  0.30677  0.42505  1.0000
  S   S23       1.0  0.17663  0.27574  0.35287  1.0000
  Fe  Fe13      1.0  0.18707  0.22631  0.43526  1.0000
  S   S24       1.0  0.19491  0.26129  0.46717  1.0000
  S   S25       1.0  0.18515  0.17881  0.44203  1.0000
  Fe  Fe14      1.0  0.15544  0.26673  0.44957  1.0000
  S   S26       1.0  0.11353  0.26947  0.46837  1.0000
  Fe  Fe15      1.0  0.22666  0.29695  0.43915  1.0000
  S   S27       1.0  0.27614  0.33418  0.44905  1.0000
  S   S28       1.0  0.14592  0.22985  0.41873  1.0000
  S   S29       1.0  0.22082  0.26150  0.40832  1.0000
  Fe  Fe16      1.0  0.43610  0.39825  0.37697  1.0000
  S   S30       1.0  0.44488  0.36837  0.40416  1.0000
  S   S31       1.0  0.38503  0.38191  0.36679  1.0000
  C   C65       1.0  0.20470  0.14161  0.46729  1.0000
  H   H63       1.0  0.98860  0.23768  0.29040  1.0000
  H   H64       1.0  0.30807  0.29390  0.46006  1.0000
  H   H65       1.0  0.29265  0.25297  0.46775  1.0000
  C   C66       1.0  0.09163  0.29990  0.26765  1.0000
  Fe  Fe17      1.0  0.36418  0.09689  0.27218  1.0000
  S   S32       1.0  0.32637  0.04803  0.28155  1.0000
  Fe  Fe18      1.0  0.39148  0.16735  0.28732  1.0000
  N   N5        1.0  0.07572  0.16035  0.46565  1.0000
  S   S33       1.0  0.38449  0.20107  0.31516  1.0000
  Fe  Fe19      1.0  0.43467  0.13941  0.27173  1.0000
  C   C67       1.0  0.45844  0.03390  0.48521  1.0000
  S   S34       1.0  0.35294  0.13509  0.26048  1.0000
  S   S35       1.0  0.39834  0.12766  0.30214  1.0000
  C   C68       1.0  0.31597  0.01615  0.25955  1.0000
  C   C69       1.0  0.01792  0.40407  0.25197  1.0000
  S   S36       1.0  0.11033  0.39270  0.24322  1.0000
  C   C70       1.0  0.02986  0.32079  0.24980  1.0000
  S   S37       1.0  0.47106  0.39880  0.34759  1.0000
  C   C71       1.0  0.46095  0.29741  0.34509  1.0000
  C   C72       1.0  0.42979  0.28577  0.35298  1.0000
  C   C73       1.0  0.40662  0.25651  0.34329  1.0000
  C   C74       1.0  0.41422  0.23869  0.32543  1.0000
  C   C75       1.0  0.44523  0.25071  0.31700  1.0000
  H   H66       1.0  0.08106  0.19548  0.43949  1.0000
  H   H67       1.0  0.42369  0.29897  0.36702  1.0000
  H   H68       1.0  0.38270  0.24747  0.34985  1.0000
  H   H69       1.0  0.45140  0.23732  0.30320  1.0000
  C   C76       1.0  0.44808  0.99136  0.42236  1.0000
  C   C77       1.0  0.31060  0.40428  0.37827  1.0000
  C   C78       1.0  0.26070  0.37594  0.39916  1.0000
  H   H70       1.0  0.12482  0.18931  0.46952  1.0000
  C   C79       1.0  0.27743  0.23338  0.41696  1.0000
  C   C80       1.0  0.24831  0.35865  0.37655  1.0000
  C   C81       1.0  0.30672  0.34464  0.42648  1.0000
  C   C82       1.0  0.33762  0.36545  0.43382  1.0000
  C   C83       1.0  0.36219  0.37581  0.41594  1.0000
  C   C84       1.0  0.35591  0.36578  0.39047  1.0000
  C   C85       1.0  0.32519  0.34420  0.38331  1.0000
  C   C86       1.0  0.30073  0.33351  0.40124  1.0000
  H   H71       1.0  0.34250  0.37409  0.45332  1.0000
  H   H72       1.0  0.38580  0.39247  0.42165  1.0000
  H   H73       1.0  0.32018  0.33624  0.36366  1.0000
  H   H74       1.0  0.27711  0.31757  0.39526  1.0000
  C   C87       1.0  0.16255  0.35207  0.31230  1.0000
  C   C88       1.0  0.16231  0.35150  0.33900  1.0000
  C   C89       1.0  0.16604  0.32808  0.35173  1.0000
  C   C90       1.0  0.17016  0.30490  0.33788  1.0000
  C   C91       1.0  0.17022  0.30535  0.31117  1.0000
  C   C92       1.0  0.16648  0.32878  0.29843  1.0000
  H   H75       1.0  0.15920  0.36934  0.34994  1.0000
  H   H76       1.0  0.16566  0.32797  0.37226  1.0000
  H   H77       1.0  0.17347  0.28760  0.30023  1.0000
  H   H78       1.0  0.16693  0.32896  0.27790  1.0000
  C   C93       1.0  0.27472  0.05739  0.24064  1.0000
  C   C94       1.0  0.33123  0.27406  0.39140  1.0000
  H   H79       1.0  0.99247  0.15080  0.47774  1.0000
  H   H80       1.0  0.39777  0.16546  0.35074  1.0000
  C   C95       1.0  0.20814  0.17215  0.46483  1.0000
  S   S38       1.0  0.47078  0.44467  0.39489  1.0000
  C   C96       1.0  0.29137  0.26936  0.45400  1.0000
  C   C97       1.0  0.28322  0.22505  0.39248  1.0000
  H   H81       1.0  0.06532  0.43843  0.24228  1.0000
  H   H82       1.0  0.03341  0.25377  0.26068  1.0000
  C   C98       1.0  0.31030  0.24556  0.37965  1.0000
  C   C99       1.0  0.00455  0.31063  0.26693  1.0000
  H   H83       1.0  0.22404  0.34052  0.37611  1.0000
  H   H84       1.0  0.05280  0.33851  0.25583  1.0000
  H   H85       1.0  0.44297  0.08599  0.30686  1.0000
  H   H86       1.0  0.08328  0.29685  0.24767  1.0000
  H   H87       1.0  0.47627  0.00896  0.38867  1.0000
  N   N6        1.0  0.26670  0.36396  0.35540  1.0000
  C   C100      1.0  0.29743  0.38661  0.35595  1.0000
  C   C101      1.0  0.03697  0.26555  0.27920  1.0000
  C   C102      1.0  0.25294  0.34550  0.33200  1.0000
  H   H88       1.0  0.31227  0.39058  0.33937  1.0000
  H   H89       1.0  0.33531  0.42125  0.37892  1.0000
  H   H90       1.0  0.23982  0.31998  0.33608  1.0000
  H   H91       1.0  0.23636  0.35285  0.32378  1.0000
  H   H92       1.0  0.45570  0.05189  0.33365  1.0000
  C   C103      1.0  0.46708  0.09307  0.31178  1.0000
  N   N7        1.0  0.06547  0.29021  0.28556  1.0000
  H   H93       1.0  0.42910  0.44734  0.47236  1.0000
  H   H94       1.0  0.18776  0.12242  0.45560  1.0000
  C   C104      1.0  0.44388  0.99826  0.44772  1.0000
  H   H95       1.0  0.01728  0.41718  0.26896  1.0000
  H   H96       1.0  0.04855  0.30892  0.34425  1.0000
  C   C105      1.0  0.32477  0.28158  0.41593  1.0000
  C   C106      1.0  0.22314  0.13562  0.48468  1.0000
  H   H97       1.0  0.35226  0.29038  0.38154  1.0000
  N   N8        1.0  0.29802  0.26143  0.42829  1.0000
  C   C107      1.0  0.29206  0.39881  0.39999  1.0000
  C   C108      1.0  0.01547  0.15279  0.47374  1.0000
  C   C109      1.0  0.47440  0.07374  0.32699  1.0000
  C   C110      1.0  0.45754  0.21598  0.36667  1.0000
  H   H98       1.0  0.39200  0.41892  0.48523  1.0000
  H   H99       1.0  0.10423  0.28588  0.27029  1.0000
  C   C111      1.0  0.05652  0.13929  0.48297  1.0000
  H   H100      1.0  0.99844  0.41480  0.47702  1.0000
  H   H101      1.0  0.44288  0.04515  0.48552  1.0000
  H   H102      1.0  0.40858  0.16476  0.38325  1.0000
  H   H103      1.0  0.30219  0.41152  0.41768  1.0000
  H   H104      1.0  0.34114  0.30386  0.42483  1.0000
  H   H105      1.0  0.98929  0.41741  0.43118  1.0000
  H   H106      1.0  0.25626  0.21733  0.42681  1.0000
  C   C112      1.0  0.01160  0.25621  0.29595  1.0000
  C   C113      1.0  0.06547  0.17782  0.45241  1.0000
  S   S39       1.0  0.42937  0.18085  0.25790  1.0000
  C   C114      1.0  0.47266  0.01387  0.40839  1.0000
  H   H107      1.0  0.24637  0.37101  0.41616  1.0000
  H   H108      1.0  0.22034  0.11203  0.48622  1.0000
  C   C115      1.0  0.10797  0.16553  0.46198  1.0000
  Fe  Fe20      1.0  0.15280  0.38843  0.25499  1.0000
  N   N9        1.0  0.99256  0.37605  0.24526  1.0000
  C   C116      1.0  0.04507  0.29654  0.32602  1.0000
  H   H109      1.0  0.41105  0.13787  0.36001  1.0000
  N   N10       1.0  0.46393  0.02663  0.45893  1.0000
  C   C117      1.0  0.06993  0.30530  0.30880  1.0000
  C   C118      1.0  0.01565  0.27202  0.31940  1.0000
  H   H110      1.0  0.45633  0.15416  0.33372  1.0000
  H   H111      1.0  0.00833  0.32061  0.28606  1.0000
  C   C119      1.0  0.46846  0.27990  0.32683  1.0000
  C   C120      1.0  0.03522  0.17426  0.45620  1.0000
  C   C121      1.0  0.41445  0.16228  0.36312  1.0000
  H   H112      1.0  0.26758  0.26763  0.45473  1.0000
  H   H113      1.0  0.02764  0.18903  0.44640  1.0000
  H   H114      1.0  0.31510  0.23941  0.36064  1.0000
  H   H115      1.0  0.11293  0.16376  0.44147  1.0000
  H   H116      1.0  0.09273  0.32454  0.31398  1.0000
  C   C122      1.0  0.23011  0.19666  0.48013  1.0000
  C   C123      1.0  0.46504  0.17789  0.34172  1.0000
  H   H117      1.0  0.05230  0.26231  0.47998  1.0000
  H   H118      1.0  0.44244  0.22265  0.37797  1.0000
  Fe  Fe21      1.0  0.48139  0.37100  0.37586  1.0000
  H   H119      1.0  0.11256  0.14793  0.47173  1.0000
  H   H120      1.0  0.23252  0.22009  0.47890  1.0000
  H   H121      1.0  0.10845  0.32527  0.27061  1.0000
  N   N11       1.0  0.44661  0.18578  0.35728  1.0000
  H   H122      1.0  0.29471  0.07610  0.25141  1.0000
  H   H123      1.0  0.26554  0.03625  0.25258  1.0000
  S   S40       1.0  0.40084  0.10600  0.24241  1.0000
  H   H124      1.0  0.99586  0.26552  0.33219  1.0000
  S   S41       1.0  0.48312  0.14596  0.28276  1.0000
  Fe  Fe22      1.0  0.48150  0.41492  0.42080  1.0000
  C   C124      1.0  0.02613  0.13517  0.48725  1.0000
  C   C125      1.0  0.41744  0.43303  0.48917  1.0000
  C   C126      1.0  0.08393  0.24403  0.48942  1.0000
  Fe  Fe23      1.0  0.27037  0.08798  0.58977  1.0000
  S   S42       1.0  0.30713  0.11525  0.56128  1.0000
  S   S43       1.0  0.27465  0.10360  0.63168  1.0000
  Fe  Fe24      1.0  0.22880  0.03873  0.54844  1.0000
  S   S44       1.0  0.26311  0.06401  0.51748  1.0000
  H   H125      1.0  0.14790  0.38040  0.60742  1.0000
  Fe  Fe25      1.0  0.29922  0.06779  0.54602  1.0000
  S   S45       1.0  0.33683  0.05395  0.53497  1.0000
  Fe  Fe26      1.0  0.26687  0.10877  0.53607  1.0000
  S   S46       1.0  0.27083  0.15466  0.52081  1.0000
  S   S47       1.0  0.26475  0.04062  0.57612  1.0000
  S   S48       1.0  0.23027  0.08331  0.56553  1.0000
  H   H126      1.0  0.48088  0.05002  0.49483  1.0000
  C   C127      1.0  0.07199  0.31761  0.56054  1.0000
  H   H127      1.0  0.37233  0.12174  0.63716  1.0000
  S   S49       1.0  0.39015  0.22177  0.68425  1.0000
  S   S50       1.0  0.20738  0.34652  0.72413  1.0000
  Fe  Fe27      1.0  0.28532  0.42370  0.71375  1.0000
  S   S51       1.0  0.25955  0.38932  0.68190  1.0000
  S   S52       1.0  0.33260  0.46790  0.70876  1.0000
  Fe  Fe28      1.0  0.21558  0.38730  0.69942  1.0000
  S   S53       1.0  0.17048  0.38310  0.68206  1.0000
  Fe  Fe29      1.0  0.25405  0.35273  0.71004  1.0000
  S   S54       1.0  0.26648  0.31397  0.69902  1.0000
  H   H128      1.0  0.00897  0.22624  0.50759  1.0000
  H   H129      1.0  0.33642  0.14881  0.61256  1.0000
  Fe  Fe30      1.0  0.09911  0.46903  0.59829  1.0000
  S   S55       1.0  0.06373  0.45801  0.62927  1.0000
  H   H130      1.0  0.33289  0.35338  0.68281  1.0000
  S   S56       1.0  0.38807  0.99489  0.61668  1.0000
  S   S57       1.0  0.01782  0.46654  0.58861  1.0000
  Fe  Fe31      1.0  0.02858  0.42771  0.59971  1.0000
  S   S58       1.0  0.06441  0.43658  0.56928  1.0000
  C   C128      1.0  0.10331  0.33603  0.56787  1.0000
  C   C129      1.0  0.31189  0.27305  0.73412  1.0000
  C   C130      1.0  0.03456  0.20327  0.52143  1.0000
  S   S59       1.0  0.05140  0.48545  0.51747  1.0000
  H   H131      1.0  0.21963  0.15750  0.62089  1.0000
  H   H132      1.0  0.35552  0.42469  0.72459  1.0000
  C   C131      1.0  0.38122  0.01060  0.56803  1.0000
  C   C132      1.0  0.16474  0.40925  0.66227  1.0000
  C   C133      1.0  0.13401  0.40433  0.65810  1.0000
  C   C134      1.0  0.12805  0.42355  0.64173  1.0000
  C   C135      1.0  0.15278  0.44761  0.62891  1.0000
  C   C136      1.0  0.18353  0.45267  0.63316  1.0000
  C   C137      1.0  0.18954  0.43375  0.64986  1.0000
  H   H133      1.0  0.11463  0.38542  0.66756  1.0000
  H   H134      1.0  0.10425  0.41937  0.63879  1.0000
  C   C138      1.0  0.34246  0.37775  0.69101  1.0000
  H   H135      1.0  0.21329  0.43773  0.65274  1.0000
  C   C139      1.0  0.36194  0.47660  0.68476  1.0000
  C   C140      1.0  0.38427  0.46190  0.64798  1.0000
  C   C141      1.0  0.35976  0.45452  0.66580  1.0000
  H   H136      1.0  0.38239  0.44446  0.63363  1.0000
  H   H137      1.0  0.33916  0.43180  0.66480  1.0000
  H   H138      1.0  0.13250  0.33854  0.72027  1.0000
  C   C142      1.0  0.29743  0.28251  0.71572  1.0000
  H   H139      1.0  0.30936  0.07657  0.68209  1.0000
  H   H140      1.0  0.26603  0.21000  0.50873  1.0000
  H   H141      1.0  0.29803  0.27595  0.69594  1.0000
  H   H142      1.0  0.06657  0.18576  0.53159  1.0000
  N   N12       1.0  0.42246  0.45300  0.51211  1.0000
  C   C143      1.0  0.28272  0.30088  0.72273  1.0000
  C   C144      1.0  0.35154  0.03843  0.55805  1.0000
  C   C145      1.0  0.37020  0.02434  0.55027  1.0000
  C   C146      1.0  0.37427  0.01153  0.59382  1.0000
  C   C147      1.0  0.35584  0.02585  0.60165  1.0000
  C   C148      1.0  0.34429  0.03903  0.58382  1.0000
  C   C149      1.0  0.35659  0.10199  0.64926  1.0000
  H   H143      1.0  0.35033  0.02655  0.62157  1.0000
  H   H144      1.0  0.33000  0.04988  0.59002  1.0000
  C   C150      1.0  0.30660  0.13732  0.64550  1.0000
  C   C151      1.0  0.30426  0.14608  0.67086  1.0000
  C   C152      1.0  0.32938  0.17212  0.68286  1.0000
  C   C153      1.0  0.35728  0.18966  0.66964  1.0000
  C   C154      1.0  0.35948  0.18111  0.64416  1.0000
  C   C155      1.0  0.33427  0.15517  0.63211  1.0000
  H   H145      1.0  0.28296  0.13251  0.68141  1.0000
  H   H146      1.0  0.32723  0.17843  0.70241  1.0000
  H   H147      1.0  0.38091  0.19455  0.63372  1.0000
  H   H148      1.0  0.32288  0.38386  0.69084  1.0000
  C   C156      1.0  0.05066  0.32932  0.56473  1.0000
  H   H149      1.0  0.20285  0.47112  0.62327  1.0000
  N   N13       1.0  0.35383  0.37999  0.71700  1.0000
  H   H150      1.0  0.37584  0.02375  0.53036  1.0000
  H   H151      1.0  0.40163  0.15211  0.67374  1.0000
  H   H152      1.0  0.16185  0.37785  0.57579  1.0000
  Fe  Fe32      1.0  0.05590  0.47746  0.55954  1.0000
  H   H153      1.0  0.10001  0.40020  0.59186  1.0000
  H   H154      1.0  0.35551  0.33636  0.71408  1.0000
  H   H155      1.0  0.33294  0.09151  0.64033  1.0000
  H   H156      1.0  0.30791  0.09378  0.72678  1.0000
  S   S60       1.0  0.14632  0.47095  0.60661  1.0000
  H   H157      1.0  0.40075  0.17014  0.71814  1.0000
  H   H158      1.0  0.36494  0.08399  0.64903  1.0000
  C   C157      1.0  0.14579  0.38420  0.58698  1.0000
  H   H159      1.0  0.42381  0.44970  0.57628  1.0000
  C   C158      1.0  0.09232  0.37699  0.58307  1.0000
  C   C159      1.0  0.06085  0.35913  0.57614  1.0000
  H   H160      1.0  0.06428  0.29438  0.55171  1.0000
  C   C160      1.0  0.38119  0.13880  0.68539  1.0000
  C   C161      1.0  0.24560  0.16027  0.49959  1.0000
  H   H161      1.0  0.04449  0.36843  0.57966  1.0000
  S   S61       1.0  0.18245  0.99408  0.54117  1.0000
  C   C162      1.0  0.06337  0.20245  0.52031  1.0000
  C   C163      1.0  0.42094  0.44076  0.53549  1.0000
  C   C164      1.0  0.32971  0.09676  0.69007  1.0000
  H   H162      1.0  0.32347  0.25917  0.72854  1.0000
  C   C165      1.0  0.32869  0.10639  0.71531  1.0000
  H   H163      1.0  0.02627  0.31532  0.55919  1.0000
  S   S62       1.0  0.24155  0.42406  0.72984  1.0000
  C   C166      1.0  0.42728  0.48328  0.51012  1.0000
  C   C167      1.0  0.08786  0.22256  0.50432  1.0000
  H   H164      1.0  0.39549  0.99972  0.56182  1.0000
  C   C168      1.0  0.03093  0.22525  0.50697  1.0000
  C   C169      1.0  0.35949  0.40597  0.73192  1.0000
  N   N14       1.0  0.35568  0.11307  0.67541  1.0000
  N   N15       1.0  0.26758  0.17063  0.61426  1.0000
  C   C170      1.0  0.28736  0.19260  0.63152  1.0000
  C   C171      1.0  0.27655  0.17090  0.58947  1.0000
  C   C172      1.0  0.31746  0.21489  0.62430  1.0000
  C   C173      1.0  0.30649  0.19276  0.58160  1.0000
  C   C174      1.0  0.32710  0.21475  0.59920  1.0000
  C   C175      1.0  0.23615  0.14749  0.62222  1.0000
  H   H165      1.0  0.28027  0.19244  0.65118  1.0000
  H   H166      1.0  0.26067  0.15399  0.57560  1.0000
  H   H167      1.0  0.33347  0.23153  0.63828  1.0000
  H   H168      1.0  0.31357  0.19238  0.56197  1.0000
  H   H169      1.0  0.35056  0.23149  0.59344  1.0000
  H   H170      1.0  0.23653  0.14028  0.64199  1.0000
  H   H171      1.0  0.15390  0.40977  0.58446  1.0000
  H   H172      1.0  0.22740  0.12554  0.61020  1.0000
  Fe  Fe33      1.0  0.39370  0.23551  0.72659  1.0000
  H   H173      1.0  0.10976  0.22149  0.50359  1.0000
  N   N16       1.0  0.11315  0.36547  0.57872  1.0000
  S   S63       1.0  0.00322  0.17498  0.53964  1.0000
  H   H174      1.0  0.11967  0.32662  0.56475  1.0000
  C   C176      1.0  0.35451  0.13273  0.72556  1.0000
  C   C177      1.0  0.38091  0.14912  0.71053  1.0000
  H   H175      1.0  0.36174  0.39410  0.67874  1.0000
  C   C178      1.0  0.24892  0.19080  0.49718  1.0000
  H   H176      1.0  0.17104  0.39040  0.73829  1.0000
  C   C179      1.0  0.42468  0.45913  0.55766  1.0000
  C   C180      1.0  0.35950  0.35673  0.72600  1.0000
  H   H177      1.0  0.41707  0.41676  0.53708  1.0000
  C   C181      1.0  0.05554  0.24561  0.49123  1.0000
  H   H178      1.0  0.06485  0.12609  0.49405  1.0000
  S   S64       1.0  0.99583  0.37779  0.61110  1.0000
  H   H179      1.0  0.44733  0.01220  0.49651  1.0000
  H   H180      1.0  0.42786  0.41687  0.49130  1.0000
  H   H181      1.0  0.01133  0.11946  0.50171  1.0000
  Fe  Fe34      1.0  0.04105  0.21889  0.93124  1.0000
  S   S65       1.0  0.06864  0.25315  0.96245  1.0000
  C   C182      1.0  0.10512  0.33214  0.78088  1.0000
  Fe  Fe35      1.0  0.08777  0.26100  0.88967  1.0000
  S   S66       1.0  0.11689  0.29772  0.91876  1.0000
  S   S67       1.0  0.10232  0.26538  0.84770  1.0000
  Fe  Fe36      1.0  0.11182  0.25700  0.94224  1.0000
  H   H182      1.0  0.14966  0.26341  0.88302  1.0000
  Fe  Fe37      1.0  0.07047  0.28951  0.93544  1.0000
  S   S68       1.0  0.05452  0.32510  0.94848  1.0000
  S   S69       1.0  0.08418  0.22046  0.91233  1.0000
  S   S70       1.0  0.04127  0.25502  0.90496  1.0000
  S   S71       1.0  0.99907  0.17211  0.94168  1.0000
  Fe  Fe38      1.0  0.36459  0.25386  0.77120  1.0000
  S   S72       1.0  0.32899  0.27000  0.78335  1.0000
  Fe  Fe39      1.0  0.39396  0.20963  0.77882  1.0000
  C   C183      1.0  0.19028  0.23221  0.98004  1.0000
  S   S73       1.0  0.38866  0.16269  0.79272  1.0000
  Fe  Fe40      1.0  0.43496  0.28039  0.77032  1.0000
  C   C184      1.0  0.47104  0.42206  0.94499  1.0000
  S   S74       1.0  0.39885  0.25349  0.79967  1.0000
  S   S75       1.0  0.35530  0.20699  0.75354  1.0000
  S   S76       1.0  0.43214  0.23630  0.75093  1.0000
  S   S77       1.0  0.21922  0.37911  0.79538  1.0000
  C   C185      1.0  0.00961  0.36700  0.91420  1.0000
  H   H183      1.0  0.29614  0.01140  0.95623  1.0000
  S   S78       1.0  0.46109  0.05686  0.84765  1.0000
  C   C186      1.0  0.45072  0.43246  0.95586  1.0000
  H   H184      1.0  0.47564  0.19711  0.85434  1.0000
  C   C187      1.0  0.18898  0.26122  0.81599  1.0000
  Fe  Fe41      1.0  0.43140  0.02258  0.87715  1.0000
  S   S79       1.0  0.44142  0.05949  0.90789  1.0000
  C   C188      1.0  0.19943  0.02061  0.96367  1.0000
  N   N17       1.0  0.18946  0.28157  0.85842  1.0000
  C   C189      1.0  0.13537  0.15880  0.95953  1.0000
  C   C190      1.0  0.15246  0.37389  0.75018  1.0000
  C   C191      1.0  0.37491  0.38448  0.76652  1.0000
  C   C192      1.0  0.46994  0.44443  0.90574  1.0000
  C   C193      1.0  0.41289  0.15730  0.81505  1.0000
  C   C194      1.0  0.43777  0.18269  0.82742  1.0000
  C   C195      1.0  0.45654  0.17728  0.84484  1.0000
  C   C196      1.0  0.45091  0.14650  0.84991  1.0000
  C   C197      1.0  0.42608  0.12109  0.83750  1.0000
  C   C198      1.0  0.40715  0.12649  0.82025  1.0000
  H   H185      1.0  0.44242  0.20650  0.82371  1.0000
  C   C199      1.0  0.16311  0.23611  0.98026  1.0000
  H   H186      1.0  0.42153  0.09728  0.84109  1.0000
  H   H187      1.0  0.38796  0.10668  0.81081  1.0000
  C   C200      1.0  0.31097  0.28122  0.75975  1.0000
  H   H188      1.0  0.48006  0.40993  0.95666  1.0000
  C   C201      1.0  0.29571  0.29905  0.76681  1.0000
  H   H189      1.0  0.07089  0.19215  0.97279  1.0000
  H   H190      1.0  0.29494  0.30541  0.78661  1.0000
  H   H191      1.0  0.99550  0.40413  0.97629  1.0000
  H   H192      1.0  0.09001  0.30080  0.74777  1.0000
  H   H193      1.0  0.34668  0.01317  0.96320  1.0000
  H   H194      1.0  0.11311  0.34862  0.82923  1.0000
  H   H195      1.0  0.44503  0.35557  0.78435  1.0000
  C   C202      1.0  0.21641  0.30834  0.85311  1.0000
  H   H196      1.0  0.14738  0.38547  0.82544  1.0000
  Fe  Fe42      1.0  0.23498  0.38323  0.75371  1.0000
  C   C203      1.0  0.13471  0.29749  0.83349  1.0000
  C   C204      1.0  0.15445  0.32489  0.84734  1.0000
  C   C205      1.0  0.18022  0.34950  0.83538  1.0000
  C   C206      1.0  0.18658  0.34715  0.80945  1.0000
  C   C207      1.0  0.16682  0.31976  0.79559  1.0000
  C   C208      1.0  0.14105  0.29515  0.80755  1.0000
  H   H197      1.0  0.14987  0.32720  0.86725  1.0000
  H   H198      1.0  0.19531  0.37057  0.84630  1.0000
  H   H199      1.0  0.17137  0.31753  0.77565  1.0000
  H   H200      1.0  0.12603  0.27405  0.79664  1.0000
  C   C209      1.0  0.04096  0.34136  0.92518  1.0000
  C   C210      1.0  0.04981  0.34192  0.89971  1.0000
  C   C211      1.0  0.03906  0.35558  0.88164  1.0000
  C   C212      1.0  0.01887  0.36811  0.88880  1.0000
  C   C213      1.0  0.05660  0.47692  0.97766  1.0000
  C   C214      1.0  0.02094  0.35404  0.93237  1.0000
  H   H201      1.0  0.06535  0.33230  0.89403  1.0000
  H   H202      1.0  0.04626  0.35628  0.86202  1.0000
  H   H203      1.0  0.01398  0.35360  0.95203  1.0000
  C   C215      1.0  0.44989  0.45550  0.91610  1.0000
  H   H204      1.0  0.18503  0.26564  0.89617  1.0000
  C   C216      1.0  0.17560  0.27760  0.88389  1.0000
  H   H205      1.0  0.15427  0.23701  0.84439  1.0000
  H   H206      1.0  0.22714  0.32707  0.86740  1.0000
  H   H207      1.0  0.00253  0.42975  0.93618  1.0000
  H   H208      1.0  0.37383  0.42897  0.76879  1.0000
  H   H209      1.0  0.37333  0.33941  0.75825  1.0000
  H   H210      1.0  0.18050  0.30064  0.89304  1.0000
  S   S80       1.0  0.47037  0.01176  0.88813  1.0000
  C   C217      1.0  0.15020  0.38154  0.77572  1.0000
  H   H211      1.0  0.16764  0.40406  0.78352  1.0000
  C   C218      1.0  0.22996  0.31243  0.82892  1.0000
  Fe  Fe43      1.0  0.47308  0.09322  0.87896  1.0000
  H   H212      1.0  0.99393  0.37632  0.91991  1.0000
  C   C219      1.0  0.48452  0.35455  0.80181  1.0000
  H   H213      1.0  0.42511  0.45827  0.94981  1.0000
  H   H214      1.0  0.03504  0.46731  0.93109  1.0000
  H   H215      1.0  0.46046  0.14307  0.78127  1.0000
  C   C220      1.0  0.47055  0.39686  0.80873  1.0000
  C   C221      1.0  0.44014  0.44931  0.94130  1.0000
  Fe  Fe44      1.0  0.48209  0.05066  0.91751  1.0000
  H   H216      1.0  0.33210  0.04962  0.86985  1.0000
  S   S81       1.0  0.00505  0.38419  0.86547  1.0000
  H   H217      1.0  0.04129  0.43300  0.93227  1.0000
  H   H218      1.0  0.45078  0.08991  0.76517  1.0000
  H   H219      1.0  0.44409  0.42845  0.97571  1.0000
  H   H220      1.0  0.20656  0.24098  0.96436  1.0000
  H   H221      1.0  0.25064  0.33418  0.82445  1.0000
  H   H222      1.0  0.11174  0.17895  0.93848  1.0000
  H   H223      1.0  0.08663  0.31555  0.79280  1.0000
  H   H224      1.0  0.36686  0.05563  0.96063  1.0000
  H   H225      1.0  0.37771  0.03084  0.94074  1.0000
  H   H226      1.0  0.10929  0.38190  0.81813  1.0000
  S   S82       1.0  0.47666  0.14107  0.87060  1.0000
  H   H227      1.0  0.17386  0.04719  0.96148  1.0000
  C   C222      1.0  0.17586  0.25804  0.84030  1.0000
  C   C223      1.0  0.11089  0.16596  0.95518  1.0000
  H   H228      1.0  0.17784  0.24278  0.80152  1.0000
  C   C224      1.0  0.21616  0.28865  0.81029  1.0000
  C   C225      1.0  0.22581  0.02016  0.97383  1.0000
  C   C226      1.0  0.19411  0.04657  0.96938  1.0000
  H   H229      1.0  0.44227  0.46905  0.90471  1.0000
  H   H230      1.0  0.27578  0.02931  0.88143  1.0000
  H   H231      1.0  0.15486  0.16612  0.94635  1.0000
  H   H232      1.0  0.23007  0.00026  0.96974  1.0000
  H   H233      1.0  0.38265  0.38591  0.78596  1.0000
  S   S83       1.0  0.15602  0.25451  0.95417  1.0000
  C   C227      1.0  0.12395  0.36965  0.81716  1.0000
  H   H234      1.0  0.22628  0.29169  0.79138  1.0000
  N   N18       1.0  0.33503  0.03100  0.93076  1.0000
  C   C228      1.0  0.30419  0.02001  0.93734  1.0000
  C   C229      1.0  0.34513  0.04185  0.90693  1.0000
  C   C230      1.0  0.28246  0.01927  0.91972  1.0000
  C   C231      1.0  0.32400  0.04131  0.88880  1.0000
  C   C232      1.0  0.29247  0.02991  0.89529  1.0000
  C   C233      1.0  0.35769  0.03282  0.94981  1.0000
  H   H235      1.0  0.47748  0.44944  0.88616  1.0000
  N   N19       1.0  0.12680  0.36069  0.79073  1.0000
  H   H236      1.0  0.45541  0.40709  0.80456  1.0000
  C   C234      1.0  0.36983  0.35845  0.75094  1.0000
  N   N20       1.0  0.03292  0.44937  0.96805  1.0000
  C   C235      1.0  0.36992  0.40854  0.75694  1.0000
  C   C236      1.0  0.02783  0.44462  0.94055  1.0000
  H   H237      1.0  0.25800  0.01046  0.92498  1.0000
  H   H238      1.0  0.36959  0.05062  0.90168  1.0000
  H   H239      1.0  0.48408  0.06692  0.78060  1.0000
  S   S84       1.0  0.40093  0.28269  0.74274  1.0000
  C   C237      1.0  0.10691  0.32362  0.75546  1.0000
  C   C238      1.0  0.06224  0.16682  0.96770  1.0000
  C   C239      1.0  0.46451  0.36756  0.79733  1.0000
  C   C240      1.0  0.46961  0.10311  0.77854  1.0000
  H   H240      1.0  0.27037  0.32298  0.75398  1.0000
  S   S85       1.0  0.28153  0.38708  0.74112  1.0000
  H   H241      1.0  0.15493  0.13926  0.98587  1.0000
  C   C241      1.0  0.28189  0.30911  0.74836  1.0000
  H   H242      1.0  0.99176  0.28552  0.88690  1.0000
  C   C242      1.0  0.01446  0.42583  0.98393  1.0000
  H   H243      1.0  0.05505  0.16274  0.94741  1.0000
  C   C243      1.0  0.21461  0.07159  0.98550  1.0000
  N   N21       1.0  0.48009  0.42780  0.92016  1.0000
  S   S86       1.0  0.17193  0.98874  0.94469  1.0000
  N   N22       1.0  0.08686  0.15784  0.97223  1.0000
  S   S87       1.0  0.48162  0.32120  0.78392  1.0000
  C   C244      1.0  0.47511  0.13295  0.78745  1.0000
  C   C245      1.0  0.13538  0.14368  0.98167  1.0000
  S   S88       1.0  0.38062  0.98960  0.86662  1.0000
  H   H244      1.0  0.04071  0.15283  0.97893  1.0000
  H   H245      1.0  0.35396  0.14068  0.74503  1.0000
  C   C246      1.0  0.13074  0.34472  0.74005  1.0000
  C   C247      1.0  0.24651  0.04534  0.98965  1.0000
  Fe  Fe45      1.0  0.03327  0.58646  0.10302  1.0000
  S   S89       1.0  0.06860  0.61510  0.07398  1.0000
  C   C248      1.0  0.38118  0.87151  0.09570  1.0000
  Fe  Fe46      1.0  0.06275  0.54226  0.10913  1.0000
  S   S90       1.0  0.09940  0.56844  0.07993  1.0000
  H   H246      1.0  0.45028  0.59594  0.05061  1.0000
  Fe  Fe47      1.0  0.10349  0.61246  0.10023  1.0000
  S   S91       1.0  0.15141  0.65230  0.11182  1.0000
  Fe  Fe48      1.0  0.06003  0.56784  0.05719  1.0000
  S   S92       1.0  0.05209  0.55663  0.01458  1.0000
  S   S93       1.0  0.06865  0.58616  0.13052  1.0000
  S   S94       1.0  0.02305  0.53946  0.08511  1.0000
  H   H247      1.0  0.17503  0.75922  0.22754  1.0000
  C   C249      1.0  0.17955  0.57390  0.16898  1.0000
  C   C250      1.0  0.17392  0.62157  0.16229  1.0000
  S   S95       1.0  0.45022  0.93834  0.13640  1.0000
  S   S96       1.0  0.06217  0.49693  0.12161  1.0000
  Fe  Fe49      1.0  0.21897  0.81446  0.19660  1.0000
  H   H248      1.0  0.04438  0.86740  0.02188  1.0000
  S   S97       1.0  0.17471  0.77647  0.17694  1.0000
  Fe  Fe50      1.0  0.25874  0.88542  0.20998  1.0000
  S   S98       1.0  0.27652  0.93631  0.19936  1.0000
  Fe  Fe51      1.0  0.28862  0.84282  0.21102  1.0000
  S   S99       1.0  0.33464  0.84141  0.20210  1.0000
  S   S100      1.0  0.26333  0.85292  0.18028  1.0000
  C   C251      1.0  0.13158  0.95234  0.99930  1.0000
  C   C252      1.0  0.02117  0.52221  0.00042  1.0000
  S   S101      1.0  0.42222  0.51465  0.08766  1.0000
  S   S102      1.0  0.24445  0.80188  0.22570  1.0000
  C   C253      1.0  0.46958  0.57535  0.16085  1.0000
  C   C254      1.0  0.47639  0.49403  0.00300  1.0000
  C   C255      1.0  0.18049  0.96859  0.02281  1.0000
  H   H249      1.0  0.01241  0.76780  0.01504  1.0000
  H   H250      1.0  0.04992  0.74579  0.03736  1.0000
  C   C256      1.0  0.41710  0.90949  0.15269  1.0000
  C   C257      1.0  0.39164  0.91545  0.15819  1.0000
  C   C258      1.0  0.36554  0.89411  0.17214  1.0000
  C   C259      1.0  0.36498  0.86693  0.18154  1.0000
  C   C260      1.0  0.39029  0.86083  0.17580  1.0000
  C   C261      1.0  0.41601  0.88174  0.16123  1.0000
  H   H251      1.0  0.39220  0.93690  0.15186  1.0000
  H   H252      1.0  0.34634  0.89925  0.17642  1.0000
  H   H253      1.0  0.39018  0.83991  0.18296  1.0000
  H   H254      1.0  0.43539  0.87679  0.15726  1.0000
  C   C262      1.0  0.02525  0.81686  0.02068  1.0000
  H   H255      1.0  0.00176  0.49892  0.03540  1.0000
  H   H256      1.0  0.13627  0.77816  0.22111  1.0000
  C   C263      1.0  0.02950  0.79165  0.01093  1.0000
  C   C264      1.0  0.46800  0.59381  0.06158  1.0000
  C   C265      1.0  0.07368  0.85330  0.99906  1.0000
  H   H257      1.0  0.40396  0.84157  0.04490  1.0000
  C   C266      1.0  0.09306  0.51166  0.16830  1.0000
  H   H258      1.0  0.08993  0.53256  0.16911  1.0000
  C   C267      1.0  0.29365  0.96565  0.22349  1.0000
  C   C268      1.0  0.39774  0.90339  0.08995  1.0000
  H   H259      1.0  0.22407  0.98526  0.04333  1.0000
  C   C269      1.0  0.37088  0.92069  0.23329  1.0000
  C   C270      1.0  0.15747  0.68624  0.13062  1.0000
  C   C271      1.0  0.13255  0.69182  0.13824  1.0000
  C   C272      1.0  0.13829  0.71945  0.15246  1.0000
  C   C273      1.0  0.16895  0.74164  0.15960  1.0000
  C   C274      1.0  0.19382  0.73571  0.15247  1.0000
  C   C275      1.0  0.18810  0.70825  0.13794  1.0000
  H   H260      1.0  0.10891  0.67493  0.13303  1.0000
  H   H261      1.0  0.11886  0.72372  0.15791  1.0000
  H   H262      1.0  0.21754  0.75257  0.15769  1.0000
  H   H263      1.0  0.20760  0.70428  0.13212  1.0000
  H   H264      1.0  0.01463  0.68146  0.12618  1.0000
  H   H265      1.0  0.18330  0.62822  0.18190  1.0000
  H   H266      1.0  0.44608  0.55830  0.15531  1.0000
  H   H267      1.0  0.44379  0.96033  0.08207  1.0000
  C   C276      1.0  0.99584  0.62459  0.06726  1.0000
  H   H268      1.0  0.05977  0.67093  0.11885  1.0000
  H   H269      1.0  0.01006  0.71467  0.03955  1.0000
  C   C277      1.0  0.38349  0.84910  0.07949  1.0000
  N   N23       1.0  0.42116  0.95181  0.21418  1.0000
  H   H270      1.0  0.18228  0.53057  0.17329  1.0000
  N   N24       1.0  0.41669  0.91275  0.06903  1.0000
  H   H271      1.0  0.43274  0.89820  0.03565  1.0000
  C   C278      1.0  0.15544  0.57773  0.13125  1.0000
  H   H272      1.0  0.37119  0.82434  0.08398  1.0000
  N   N25       1.0  0.16954  0.59028  0.15410  1.0000
  H   H273      1.0  0.15117  0.62221  0.16175  1.0000
  H   H274      1.0  0.17922  0.94586  0.01808  1.0000
  C   C279      1.0  0.10854  0.50557  0.18821  1.0000
  H   H275      1.0  0.39614  0.92074  0.10277  1.0000
  H   H276      1.0  0.36715  0.86437  0.11289  1.0000
  C   C280      1.0  0.05607  0.79728  0.99594  1.0000
  H   H277      1.0  0.41978  0.95463  0.05424  1.0000
  S   S103      1.0  0.47998  0.89580  0.08539  1.0000
  H   H278      1.0  0.09228  0.69027  0.07996  1.0000
  C   C281      1.0  0.43470  0.94641  0.06402  1.0000
  H   H279      1.0  0.37878  0.50704  0.15775  1.0000
  H   H280      1.0  0.00138  0.71003  0.09431  1.0000
  C   C282      1.0  0.99983  0.49739  0.01493  1.0000
  C   C283      1.0  0.41819  0.89086  0.05252  1.0000
  C   C284      1.0  0.40186  0.85875  0.05761  1.0000
  H   H281      1.0  0.45551  0.95131  0.05197  1.0000
  H   H282      1.0  0.02374  0.74966  0.05986  1.0000
  S   S104      1.0  0.21135  0.84850  0.22304  1.0000
  H   H283      1.0  0.19042  0.58358  0.18724  1.0000
  C   C285      1.0  0.48006  0.57371  0.05302  1.0000
  N   N26       1.0  0.03946  0.71668  0.06980  1.0000
  C   C286      1.0  0.06446  0.71097  0.06557  1.0000
  C   C287      1.0  0.02176  0.70640  0.09132  1.0000
  C   C288      1.0  0.07249  0.69487  0.08332  1.0000
  C   C289      1.0  0.02916  0.69030  0.10945  1.0000
  C   C290      1.0  0.05453  0.68433  0.10529  1.0000
  C   C291      1.0  0.03041  0.73242  0.05069  1.0000
  H   H284      1.0  0.31087  0.50901  0.18883  1.0000
  H   H285      1.0  0.19038  0.63963  0.14922  1.0000
  C   C292      1.0  0.47472  0.60284  0.17501  1.0000
  C   C293      1.0  0.36519  0.51465  0.17093  1.0000
  C   C294      1.0  0.15056  0.54782  0.12290  1.0000
  C   C295      1.0  0.38473  0.97276  0.21907  1.0000
  C   C296      1.0  0.04742  0.84770  0.01451  1.0000
  H   H286      1.0  0.11738  0.52202  0.20423  1.0000
  H   H287      1.0  0.45501  0.60671  0.18036  1.0000
  S   S105      1.0  0.44466  0.49496  0.02036  1.0000
  H   H288      1.0  0.14760  0.59082  0.11952  1.0000
  H   H289      1.0  0.35446  0.52561  0.15884  1.0000
  C   C297      1.0  0.17536  0.54405  0.16108  1.0000
  H   H290      1.0  0.99497  0.64300  0.03070  1.0000
  S   S106      1.0  0.99301  0.81101  0.04094  1.0000
  H   H291      1.0  0.38150  0.53251  0.18478  1.0000
  H   H292      1.0  0.07827  0.71868  0.04836  1.0000
  H   H293      1.0  0.47136  0.56025  0.03535  1.0000
  H   H294      1.0  0.01396  0.61844  0.06182  1.0000
  H   H295      1.0  0.45131  0.93259  0.20171  1.0000
  C   C298      1.0  0.16067  0.53095  0.13792  1.0000
  H   H296      1.0  0.40584  0.90542  0.22763  1.0000
  H   H297      1.0  0.45969  0.96920  0.18835  1.0000
  H   H298      1.0  0.09056  0.87708  0.99463  1.0000
  C   C299      1.0  0.45198  0.95573  0.20611  1.0000
  H   H299      1.0  0.11208  0.93732  0.01200  1.0000
  H   H300      1.0  0.13823  0.53741  0.10524  1.0000
  Fe  Fe52      1.0  0.44587  0.49921  0.11607  1.0000
  C   C300      1.0  0.08152  0.49055  0.14746  1.0000
  H   H301      1.0  0.00128  0.57154  0.99584  1.0000
  H   H302      1.0  0.15616  0.50731  0.13206  1.0000
  H   H303      1.0  0.46907  0.62594  0.09170  1.0000
  H   H304      1.0  0.46956  0.96831  0.22127  1.0000
  C   C301      1.0  0.47846  0.61056  0.08462  1.0000
  C   C302      1.0  0.40030  0.92467  0.22543  1.0000
  N   N27       1.0  0.15800  0.97578  0.01432  1.0000
  S   S107      1.0  0.99516  0.59969  0.11399  1.0000
  H   H305      1.0  0.07957  0.50425  0.01148  1.0000
  C   C303      1.0  0.41392  0.97590  0.21130  1.0000
  C   C304      1.0  0.36302  0.94487  0.22997  1.0000
  H   H306      1.0  0.98822  0.54681  0.03760  1.0000
  H   H307      1.0  0.34013  0.94200  0.23571  1.0000
  C   C305      1.0  0.31450  0.48893  0.19272  1.0000
  C   C306      1.0  0.07840  0.82810  0.98990  1.0000
  C   C307      1.0  0.14769  0.75292  0.28722  1.0000
  Fe  Fe53      1.0  0.08985  0.81279  0.39519  1.0000
  S   S108      1.0  0.11763  0.80187  0.42320  1.0000
  S   S109      1.0  0.10569  0.82508  0.35377  1.0000
  Fe  Fe54      1.0  0.04110  0.80852  0.43677  1.0000
  S   S110      1.0  0.06734  0.79879  0.46704  1.0000
  C   C308      1.0  0.12092  0.77225  0.26023  1.0000
  Fe  Fe55      1.0  0.11129  0.83655  0.44977  1.0000
  H   H308      1.0  0.19619  0.87823  0.42524  1.0000
  Fe  Fe56      1.0  0.07067  0.76556  0.43740  1.0000
  S   S111      1.0  0.05476  0.71545  0.44921  1.0000
  S   S112      1.0  0.08505  0.84879  0.42114  1.0000
  S   S113      1.0  0.04287  0.77394  0.40767  1.0000
  H   H309      1.0  0.22627  0.87364  0.38784  1.0000
  H   H310      1.0  0.11188  0.76503  0.30033  1.0000
  S   S114      1.0  0.22161  0.82429  0.29279  1.0000
  C   C309      1.0  0.20242  0.88845  0.36146  1.0000
  H   H311      1.0  0.15184  0.74724  0.30606  1.0000
  C   C310      1.0  0.13800  0.82452  0.33720  1.0000
  C   C311      1.0  0.15677  0.81287  0.34787  1.0000
  C   C312      1.0  0.18240  0.81337  0.33412  1.0000
  C   C313      1.0  0.18966  0.82542  0.30952  1.0000
  C   C314      1.0  0.17098  0.83721  0.29889  1.0000
  C   C315      1.0  0.14530  0.83664  0.31262  1.0000
  H   H312      1.0  0.15161  0.80357  0.36676  1.0000
  H   H313      1.0  0.19667  0.80424  0.34261  1.0000
  H   H314      1.0  0.17616  0.84653  0.28001  1.0000
  H   H315      1.0  0.13101  0.84573  0.30413  1.0000
  C   C316      1.0  0.03737  0.68545  0.42565  1.0000
  C   C317      1.0  0.01457  0.65544  0.43266  1.0000
  H   H316      1.0  0.00648  0.65157  0.45212  1.0000
  C   C318      1.0  0.01419  0.63468  0.38987  1.0000
  C   C319      1.0  0.03627  0.66492  0.38268  1.0000
  C   C320      1.0  0.04766  0.69031  0.40046  1.0000
  H   H317      1.0  0.46873  0.94630  0.46678  1.0000
  H   H318      1.0  0.04508  0.66862  0.36341  1.0000
  H   H319      1.0  0.06531  0.71338  0.39491  1.0000
  C   C321      1.0  0.02762  0.58043  0.44322  1.0000
  N   N28       1.0  0.16276  0.90019  0.37936  1.0000
  H   H320      1.0  0.14346  0.92600  0.36079  1.0000
  N   N29       1.0  0.16505  0.75123  0.26699  1.0000
  H   H321      1.0  0.15568  0.89508  0.41934  1.0000
  Fe  Fe57      1.0  0.23814  0.83704  0.25161  1.0000
  C   C322      1.0  0.02258  0.49518  0.47655  1.0000
  H   H322      1.0  0.10414  0.78103  0.25771  1.0000
  H   H323      1.0  0.03873  0.58000  0.40332  1.0000
  C   C323      1.0  0.04457  0.59353  0.42114  1.0000
  S   S115      1.0  0.00246  0.60289  0.36761  1.0000
  C   C324      1.0  0.17901  0.89755  0.35869  1.0000
  S   S116      1.0  0.15624  0.87472  0.46836  1.0000
  H   H324      1.0  0.09188  0.66709  0.44519  1.0000
  H   H325      1.0  0.17336  0.90169  0.33982  1.0000
  C   C325      1.0  0.20869  0.88142  0.38550  1.0000
  C   C326      1.0  0.16881  0.89339  0.40299  1.0000
  H   H326      1.0  0.13304  0.91908  0.39364  1.0000
  H   H327      1.0  0.99924  0.50038  0.44370  1.0000
  H   H328      1.0  0.00885  0.55642  0.44238  1.0000
  N   N30       1.0  0.03404  0.59788  0.46545  1.0000
  H   H329      1.0  0.18203  0.72322  0.28529  1.0000
  C   C327      1.0  0.28128  0.96102  0.24806  1.0000
  C   C328      1.0  0.07446  0.64242  0.44462  1.0000
  C   C329      1.0  0.19182  0.88391  0.40643  1.0000
  H   H330      1.0  0.11554  0.88705  0.37053  1.0000
  H   H331      1.0  0.21487  0.88584  0.34494  1.0000
  H   H332      1.0  0.04095  0.49365  0.46548  1.0000
  S   S117      1.0  0.28521  0.87631  0.24031  1.0000
  C   C330      1.0  0.13748  0.90855  0.37591  1.0000
  C   C331      1.0  0.48329  0.96754  0.47774  1.0000
  H   H333      1.0  0.43246  0.96872  0.41359  1.0000
  H   H334      1.0  0.21134  0.76240  0.27739  1.0000
  C   C332      1.0  0.12513  0.76309  0.28411  1.0000
  C   C333      1.0  0.18940  0.74165  0.27084  1.0000
  H   H335      1.0  0.26232  0.93834  0.25296  1.0000
  C   C334      1.0  0.00280  0.63019  0.41479  1.0000
  H   H336      1.0  0.35410  0.89865  0.24139  1.0000
  C   C335      1.0  0.06806  0.62477  0.42189  1.0000
  C   C336      1.0  0.16259  0.90866  0.48732  1.0000
  H   H337      1.0  0.08043  0.63558  0.40463  1.0000
  H   H338      1.0  0.21265  0.93073  0.48178  1.0000
  H   H339      1.0  0.42481  0.98060  0.45853  1.0000
  C   C337      1.0  0.99901  0.49913  0.46415  1.0000
  H   H340      1.0  0.28190  0.98280  0.28471  1.0000
  C   C338      1.0  0.29229  0.98626  0.26597  1.0000
  C   C339      1.0  0.16100  0.76010  0.24352  1.0000
  H   H341      1.0  0.06222  0.64253  0.48390  1.0000
  C   C340      1.0  0.01642  0.58315  0.48840  1.0000
  S   S118      1.0  0.99743  0.81313  0.44860  1.0000
  H   H342      1.0  0.19455  0.73195  0.25297  1.0000
  H   H343      1.0  0.99093  0.56948  0.48413  1.0000
  C   C341      1.0  0.05726  0.62846  0.46641  1.0000
  C   C342      1.0  0.13894  0.77075  0.23977  1.0000
  Fe  Fe58      1.0  0.42579  0.93283  0.55835  1.0000
  H   H344      1.0  0.45730  0.84313  0.68965  1.0000
  S   S119      1.0  0.44230  0.93854  0.51685  1.0000
  Fe  Fe59      1.0  0.37559  0.88918  0.59685  1.0000
  S   S120      1.0  0.40008  0.92199  0.62981  1.0000
  S   S121      1.0  0.33043  0.84320  0.60273  1.0000
  Fe  Fe60      1.0  0.40442  0.95966  0.60321  1.0000
  Fe  Fe61      1.0  0.44500  0.92670  0.61222  1.0000
  H   H345      1.0  0.43604  0.52662  0.53024  1.0000
  S   S122      1.0  0.37831  0.92661  0.57094  1.0000
  S   S123      1.0  0.42034  0.89126  0.58070  1.0000
  H   H346      1.0  0.21774  0.96303  0.55984  1.0000
  H   H347      1.0  0.26989  0.98712  0.53858  1.0000
  Fe  Fe62      1.0  0.17789  0.77586  0.69432  1.0000
  S   S124      1.0  0.19048  0.74832  0.72136  1.0000
  S   S125      1.0  0.21746  0.82134  0.67852  1.0000
  Fe  Fe63      1.0  0.10689  0.73337  0.70439  1.0000
  S   S126      1.0  0.05639  0.72159  0.69599  1.0000
  Fe  Fe64      1.0  0.15136  0.70514  0.70243  1.0000
  S   S127      1.0  0.15918  0.66438  0.68674  1.0000
  S   S128      1.0  0.14276  0.77976  0.72137  1.0000
  S   S129      1.0  0.14047  0.73274  0.67425  1.0000
  H   H348      1.0  0.15124  0.59130  0.70490  1.0000
  H   H349      1.0  0.17797  0.53934  0.62631  1.0000
  S   S130      1.0  0.05249  0.53283  0.64354  1.0000
  S   S131      1.0  0.09495  0.51138  0.58545  1.0000
  C   C343      1.0  0.23582  0.95712  0.56560  1.0000
  C   C344      1.0  0.08189  0.57122  0.65267  1.0000
  C   C345      1.0  0.11275  0.58360  0.64375  1.0000
  C   C346      1.0  0.13601  0.61285  0.65352  1.0000
  C   C347      1.0  0.12861  0.63020  0.67201  1.0000
  C   C348      1.0  0.09754  0.61841  0.68013  1.0000
  C   C349      1.0  0.07438  0.58902  0.67065  1.0000
  H   H350      1.0  0.11885  0.57027  0.62985  1.0000
  H   H351      1.0  0.15995  0.62182  0.64704  1.0000
  H   H352      1.0  0.09166  0.63149  0.69438  1.0000
  H   H353      1.0  0.05059  0.57970  0.67760  1.0000
  C   C350      1.0  0.02537  0.70059  0.71736  1.0000
  C   C351      1.0  0.13807  0.91172  0.49942  1.0000
  H   H354      1.0  0.11422  0.89337  0.49687  1.0000
  H   H355      1.0  0.19160  0.58765  0.67759  1.0000
  H   H356      1.0  0.05656  0.63024  0.72962  1.0000
  H   H357      1.0  0.24274  0.74555  0.68612  1.0000
  S   S132      1.0  0.44173  0.49906  0.62594  1.0000
  H   H358      1.0  0.43330  0.53694  0.66781  1.0000
  C   C352      1.0  0.43117  0.50228  0.53189  1.0000
  C   C353      1.0  0.14569  0.56982  0.69386  1.0000
  C   C354      1.0  0.11528  0.54490  0.69392  1.0000
  H   H359      1.0  0.36305  0.84118  0.64817  1.0000
  C   C355      1.0  0.03245  0.62294  0.72436  1.0000
  C   C356      1.0  0.29790  0.83841  0.62205  1.0000
  C   C357      1.0  0.27162  0.80846  0.62324  1.0000
  C   C358      1.0  0.24655  0.80288  0.64003  1.0000
  C   C359      1.0  0.24735  0.82732  0.65576  1.0000
  C   C360      1.0  0.27315  0.85755  0.65393  1.0000
  C   C361      1.0  0.29832  0.86308  0.63727  1.0000
  H   H360      1.0  0.27085  0.78926  0.61140  1.0000
  H   H361      1.0  0.22672  0.77961  0.64094  1.0000
  H   H362      1.0  0.27394  0.87670  0.66587  1.0000
  H   H363      1.0  0.31825  0.88630  0.63653  1.0000
  C   C362      1.0  0.41103  0.49169  0.64842  1.0000
  N   N31       1.0  0.16106  0.54115  0.66339  1.0000
  C   C363      1.0  0.17543  0.96222  0.51937  1.0000
  H   H364      1.0  0.20745  0.92578  0.59456  1.0000
  C   C364      1.0  0.16837  0.56768  0.67818  1.0000
  C   C365      1.0  0.47938  0.71449  0.66267  1.0000
  Fe  Fe65      1.0  0.48388  0.54454  0.61263  1.0000
  H   H365      1.0  0.32681  0.94318  0.57579  1.0000
  C   C366      1.0  0.28808  0.96286  0.56147  1.0000
  N   N32       1.0  0.28236  0.94251  0.58077  1.0000
  H   H366      1.0  0.39068  0.52371  0.69970  1.0000
  H   H367      1.0  0.25899  0.79684  0.70919  1.0000
  C   C367      1.0  0.41292  0.51400  0.66706  1.0000
  C   C368      1.0  0.99453  0.69302  0.71058  1.0000
  H   H368      1.0  0.24937  0.91329  0.60807  1.0000
  C   C369      1.0  0.23011  0.93629  0.58520  1.0000
  H   H369      1.0  0.04468  0.64753  0.68910  1.0000
  H   H370      1.0  0.18563  0.51688  0.64929  1.0000
  H   H371      1.0  0.09705  0.54685  0.70497  1.0000
  C   C370      1.0  0.26499  0.97054  0.55364  1.0000
  H   H372      1.0  0.22368  0.97795  0.50917  1.0000
  N   N33       1.0  0.32299  0.81681  0.67200  1.0000
  C   C371      1.0  0.30375  0.81967  0.69013  1.0000
  C   C372      1.0  0.31428  0.78868  0.65920  1.0000
  C   C373      1.0  0.27477  0.79405  0.69562  1.0000
  C   C374      1.0  0.28545  0.76255  0.66424  1.0000
  C   C375      1.0  0.26559  0.76533  0.68256  1.0000
  C   C376      1.0  0.35344  0.84393  0.66689  1.0000
  H   H373      1.0  0.31029  0.84211  0.69989  1.0000
  H   H374      1.0  0.32917  0.78662  0.64439  1.0000
  H   H375      1.0  0.27816  0.74056  0.65353  1.0000
  C   C377      1.0  0.18454  0.53920  0.64644  1.0000
  S   S133      1.0  0.47504  0.57237  0.58315  1.0000
  C   C378      1.0  0.30719  0.93571  0.58961  1.0000
  H   H376      1.0  0.99008  0.69976  0.69230  1.0000
  H   H377      1.0  0.37050  0.84685  0.68193  1.0000
  H   H378      1.0  0.46743  0.72310  0.65039  1.0000
  H   H379      1.0  0.20836  0.55903  0.64979  1.0000
  H   H380      1.0  0.44707  0.87671  0.66011  1.0000
  H   H381      1.0  0.01783  0.76089  0.51036  1.0000
  S   S134      1.0  0.11593  0.70361  0.73142  1.0000
  S   S135      1.0  0.45206  0.96843  0.58913  1.0000
  C   C379      1.0  0.13139  0.51652  0.66352  1.0000
  C   C380      1.0  0.47657  0.86116  0.67940  1.0000
  C   C381      1.0  0.10801  0.51807  0.67866  1.0000
  Fe  Fe66      1.0  0.05734  0.49831  0.61511  1.0000
  H   H382      1.0  0.47335  0.88919  0.53669  1.0000
  C   C382      1.0  0.99838  0.49447  0.51719  1.0000
  H   H383      1.0  0.31699  0.94868  0.60788  1.0000
  H   H384      1.0  0.12544  0.93995  0.52522  1.0000
  H   H385      1.0  0.31062  0.97343  0.55203  1.0000
  C   C383      1.0  0.38867  0.50638  0.68519  1.0000
  H   H386      1.0  0.08168  0.77958  0.72899  1.0000
  H   H387      1.0  0.08415  0.49907  0.67798  1.0000
  C   C384      1.0  0.25385  0.92931  0.59268  1.0000
  C   C385      1.0  0.42973  0.49002  0.55577  1.0000
  C   C386      1.0  0.14452  0.93818  0.51553  1.0000
  C   C387      1.0  0.47068  0.88017  0.66265  1.0000
  C   C388      1.0  0.00522  0.79826  0.51520  1.0000
  H   H388      1.0  0.29804  0.91003  0.59228  1.0000
  H   H389      1.0  0.12564  0.49573  0.65154  1.0000
  C   C389      1.0  0.02578  0.63256  0.70158  1.0000
  H   H390      1.0  0.35103  0.86580  0.66600  1.0000
  C   C390      1.0  0.19985  0.95957  0.50668  1.0000
  H   H391      1.0  0.45988  0.66875  0.64342  1.0000
  C   C391      1.0  0.47588  0.97013  0.50338  1.0000
  H   H392      1.0  0.98946  0.63202  0.67806  1.0000
  H   H393      1.0  0.43266  0.50443  0.57282  1.0000
  C   C392      1.0  0.47475  0.68363  0.65876  1.0000
  C   C393      1.0  0.99474  0.62382  0.69537  1.0000
  H   H394      1.0  0.04147  0.76961  0.72673  1.0000
  C   C394      1.0  0.02223  0.49244  0.50309  1.0000
  H   H395      1.0  0.99785  0.49254  0.53761  1.0000
  H   H396      1.0  0.02510  0.81503  0.50448  1.0000
  H   H397      1.0  0.42902  0.49325  0.49164  1.0000
  C   C395      1.0  0.00099  0.76780  0.51835  1.0000
  H   H398      1.0  0.01921  0.60088  0.50361  1.0000
  H   H399      1.0  0.02463  0.56683  0.49578  1.0000
  C   C396      1.0  0.19348  0.93279  0.49104  1.0000
  C   C397      1.0  0.06215  0.78081  0.73956  1.0000
  H   H400      1.0  0.99316  0.49028  0.94127  1.0000
  C   C398      1.0  0.24322  0.87520  0.87417  1.0000
  S   S136      1.0  0.15756  0.75999  0.79026  1.0000
  N   N34       1.0  0.05605  0.76433  0.76354  1.0000
  Fe  Fe67      1.0  0.14916  0.87537  0.95002  1.0000
  S   S137      1.0  0.13586  0.89931  0.92012  1.0000
  H   H401      1.0  0.23136  0.90214  0.83478  1.0000
  Fe  Fe68      1.0  0.21985  0.91520  0.93759  1.0000
  S   S138      1.0  0.21027  0.94127  0.90753  1.0000
  S   S139      1.0  0.27041  0.92865  0.94718  1.0000
  Fe  Fe69      1.0  0.17621  0.94415  0.93565  1.0000
  C   C399      1.0  0.28873  0.88066  0.89669  1.0000
  Fe  Fe70      1.0  0.17160  0.89355  0.89520  1.0000
  S   S140      1.0  0.16743  0.88136  0.85249  1.0000
  S   S141      1.0  0.18773  0.92050  0.96672  1.0000
  S   S142      1.0  0.18297  0.86726  0.92413  1.0000
  C   C400      1.0  0.00574  0.67601  0.75789  1.0000
  H   H402      1.0  0.05436  0.69743  0.74654  1.0000
  H   H403      1.0  0.01030  0.66981  0.77634  1.0000
  H   H404      1.0  0.26350  0.90487  0.81563  1.0000
  C   C401      1.0  0.33197  0.95570  0.93201  1.0000
  C   C402      1.0  0.30105  0.94747  0.92502  1.0000
  C   C403      1.0  0.29518  0.95353  0.90044  1.0000
  C   C404      1.0  0.48254  0.96164  0.97768  1.0000
  N   N35       1.0  0.26110  0.88743  0.85302  1.0000
  H   H405      1.0  0.06823  0.80589  0.74330  1.0000
  H   H406      1.0  0.27153  0.94712  0.89470  1.0000
  C   C405      1.0  0.16058  0.79410  0.80717  1.0000
  C   C406      1.0  0.16225  0.82015  0.79478  1.0000
  C   C407      1.0  0.16389  0.84636  0.80897  1.0000
  C   C408      1.0  0.16400  0.84701  0.83571  1.0000
  C   C409      1.0  0.16240  0.82099  0.84812  1.0000
  C   C410      1.0  0.16070  0.79475  0.83391  1.0000
  H   H407      1.0  0.16243  0.82022  0.77425  1.0000
  H   H408      1.0  0.16526  0.86638  0.79915  1.0000
  H   H409      1.0  0.16223  0.82094  0.86865  1.0000
  H   H410      1.0  0.15932  0.77472  0.84373  1.0000
  H   H411      1.0  0.30683  0.90618  0.83656  1.0000
  H   H412      1.0  0.38043  0.97546  0.92005  1.0000
  S   S143      1.0  0.11232  0.83365  0.97202  1.0000
  H   H413      1.0  0.47311  0.52150  0.97276  1.0000
  H   H414      1.0  0.29965  0.87909  0.91406  1.0000
  H   H415      1.0  0.10389  0.77522  0.76889  1.0000
  C   C411      1.0  0.29246  0.89609  0.85316  1.0000
  H   H416      1.0  0.21841  0.86856  0.87407  1.0000
  H   H417      1.0  0.03460  0.53863  0.96237  1.0000
  C   C412      1.0  0.02635  0.75043  0.77336  1.0000
  C   C413      1.0  0.35075  0.97503  0.88983  1.0000
  C   C414      1.0  0.04467  0.73433  0.80962  1.0000
  H   H418      1.0  0.04019  0.72229  0.82744  1.0000
  C   C415      1.0  0.30677  0.89294  0.87500  1.0000
  H   H419      1.0  0.24277  0.86285  0.91332  1.0000
  H   H420      1.0  0.31503  0.97097  0.86375  1.0000
  H   H421      1.0  0.33186  0.90099  0.87536  1.0000
  C   C416      1.0  0.31989  0.96699  0.88288  1.0000
  H   H422      1.0  0.33672  0.95093  0.95093  1.0000
  H   H423      1.0  0.23084  0.86675  0.82148  1.0000
  C   C417      1.0  0.07493  0.74891  0.79962  1.0000
  C   C418      1.0  0.24611  0.89048  0.83005  1.0000
  C   C419      1.0  0.99486  0.49211  0.96176  1.0000
  C   C420      1.0  0.01833  0.51952  0.97380  1.0000
  H   H424      1.0  0.09421  0.74842  0.80963  1.0000
  C   C421      1.0  0.35678  0.96967  0.91457  1.0000
  C   C422      1.0  0.25675  0.87167  0.89631  1.0000
  H   H425      1.0  0.01328  0.59750  0.75839  1.0000
  C   C423      1.0  0.08027  0.76402  0.77648  1.0000
  C   C424      1.0  0.02016  0.73509  0.79646  1.0000
  Fe  Fe71      1.0  0.15354  0.75014  0.74724  1.0000
  H   H426      1.0  0.00705  0.75033  0.76299  1.0000
  H   H427      1.0  0.99635  0.72313  0.80370  1.0000
  H   H428      1.0  0.47473  0.93872  0.96847  1.0000
  H   H429      1.0  0.05931  0.77759  0.98884  1.0000
  H   H430      1.0  0.07110  0.49569  0.96513  1.0000
  H   H431      1.0  0.13870  0.93711  0.98748  1.0000
  C   C425      1.0  0.48516  0.50902  0.97954  1.0000
  H   H432      1.0  0.47426  0.98227  0.94457  1.0000
  H   H433      1.0  0.12314  0.96392  0.98568  1.0000
  C   C426      1.0  0.48227  0.98632  0.96405  1.0000
  C   C427      1.0  0.03080  0.69172  0.74102  1.0000
  C   C428      1.0  0.00785  0.60447  0.74056  1.0000
  C   C429      1.0  0.77283  0.10714  0.19587  1.0000
  Fe  Fe72      1.0  0.84369  0.10762  0.03095  1.0000
  S   S144      1.0  0.85754  0.08280  0.05953  1.0000
  H   H434      1.0  0.90789  0.20966  0.14757  1.0000
  Fe  Fe73      1.0  0.77311  0.06562  0.04270  1.0000
  S   S145      1.0  0.78323  0.03881  0.07194  1.0000
  S   S146      1.0  0.72239  0.04784  0.03089  1.0000
  Fe  Fe74      1.0  0.82132  0.08651  0.08501  1.0000
  S   S147      1.0  0.83158  0.10044  0.12706  1.0000
  Fe  Fe75      1.0  0.81792  0.03798  0.04336  1.0000
  H   H435      1.0  0.86366  0.18556  0.05425  1.0000
  S   S148      1.0  0.80906  0.11353  0.05737  1.0000
  S   S149      1.0  0.80621  0.06264  0.01324  1.0000
  H   H436      1.0  0.90727  0.13271  0.10300  1.0000
  H   H437      1.0  0.58634  0.01993  0.01930  1.0000
  S   S150      1.0  0.83865  0.22282  0.18454  1.0000
  C   C430      1.0  0.76192  0.14717  0.18110  1.0000
  S   S151      1.0  0.60937  0.00621  0.10965  1.0000
  C   C431      1.0  0.90591  0.19764  0.12933  1.0000
  S   S152      1.0  0.88130  0.15167  0.01189  1.0000
  C   C432      1.0  0.83431  0.13514  0.14235  1.0000
  C   C433      1.0  0.84385  0.14162  0.16790  1.0000
  C   C434      1.0  0.84576  0.16856  0.18099  1.0000
  C   C435      1.0  0.83808  0.18936  0.16864  1.0000
  C   C436      1.0  0.82895  0.18312  0.14297  1.0000
  C   C437      1.0  0.82702  0.15615  0.12988  1.0000
  H   H438      1.0  0.84965  0.12557  0.17769  1.0000
  H   H439      1.0  0.85297  0.17310  0.20068  1.0000
  H   H440      1.0  0.82293  0.19905  0.13325  1.0000
  H   H441      1.0  0.81963  0.15148  0.11024  1.0000
  C   C438      1.0  0.63511  0.00797  0.06190  1.0000
  H   H442      1.0  0.89554  0.15371  0.06470  1.0000
  N   N36       1.0  0.77177  0.13493  0.19993  1.0000
  C   C439      1.0  0.90932  0.17034  0.12771  1.0000
  C   C440      1.0  0.66042  0.01753  0.04479  1.0000
  C   C441      1.0  0.69138  0.03636  0.05315  1.0000
  C   C442      1.0  0.69685  0.04566  0.07881  1.0000
  C   C443      1.0  0.67147  0.03659  0.09584  1.0000
  H   H443      1.0  0.51150  0.00039  0.03401  1.0000
  H   H444      1.0  0.72058  0.06024  0.08542  1.0000
  C   C444      1.0  0.78046  0.15146  0.22474  1.0000
  H   H445      1.0  0.67581  0.04418  0.11560  1.0000
  H   H446      1.0  0.96027  0.45078  0.01431  1.0000
  C   C445      1.0  0.89849  0.16619  0.08282  1.0000
  H   H447      1.0  0.74630  0.14196  0.14219  1.0000
  H   H448      1.0  0.88491  0.22593  0.06544  1.0000
  H   H449      1.0  0.52814  0.46404  0.00305  1.0000
  H   H450      1.0  0.91389  0.16094  0.14466  1.0000
  C   C446      1.0  0.50312  0.99619  0.01464  1.0000
  H   H451      1.0  0.79399  0.17731  0.22235  1.0000
  H   H452      1.0  0.61142  0.99342  0.05524  1.0000
  Fe  Fe76      1.0  0.84872  0.23623  0.22673  1.0000
  C   C447      1.0  0.64051  0.01767  0.08748  1.0000
  N   N37       1.0  0.89487  0.19279  0.08460  1.0000
  H   H453      1.0  0.74940  0.09213  0.13417  1.0000
  H   H454      1.0  0.76695  0.07003  0.16861  1.0000
  C   C448      1.0  0.90558  0.15447  0.10433  1.0000
  C   C449      1.0  0.75335  0.13180  0.15728  1.0000
  C   C450      1.0  0.97003  0.27434  0.23491  1.0000
  H   H455      1.0  0.90457  0.20833  0.04673  1.0000
  C   C451      1.0  0.97634  0.47003  0.00290  1.0000
  C   C452      1.0  0.51624  0.47672  0.99639  1.0000
  H   H456      1.0  0.76155  0.16947  0.18422  1.0000
  C   C453      1.0  0.89846  0.20852  0.10747  1.0000
  C   C454      1.0  0.50291  0.02088  0.00099  1.0000
  H   H457      1.0  0.94713  0.25604  0.22915  1.0000
  C   C455      1.0  0.88662  0.20388  0.06175  1.0000
  H   H458      1.0  0.59139  0.07155  0.00672  1.0000
  H   H459      1.0  0.89501  0.22927  0.10911  1.0000
  C   C456      1.0  0.58260  0.05172  0.99325  1.0000
  C   C457      1.0  0.57979  0.02277  0.00031  1.0000
  C   C458      1.0  0.76477  0.09133  0.17219  1.0000
  H   H460      1.0  0.78073  0.09747  0.21075  1.0000
  H   H461      1.0  0.75915  0.14631  0.23618  1.0000
  C   C459      1.0  0.75499  0.10379  0.15280  1.0000
  S   S153      1.0  0.82460  0.99510  0.03287  1.0000
  H   H462      1.0  0.51112  0.04391  0.01009  1.0000
  H   H463      1.0  0.79564  0.14451  0.23571  1.0000
  H   H464      1.0  0.65601  0.01028  0.02497  1.0000
  H   H465      1.0  0.97401  0.33664  0.21919  1.0000
  C   C460      1.0  0.49238  0.47814  0.01147  1.0000
  H   H466      1.0  0.93362  0.20726  0.99325  1.0000
  C   C461      1.0  0.91434  0.15671  0.99297  1.0000
  Fe  Fe77      1.0  0.59759  0.02707  0.38079  1.0000
  S   S154      1.0  0.62418  0.06128  0.41225  1.0000
  Fe  Fe78      1.0  0.55837  0.06109  0.37001  1.0000
  S   S155      1.0  0.58374  0.09775  0.40064  1.0000
  S   S156      1.0  0.51327  0.05625  0.35205  1.0000
  Fe  Fe79      1.0  0.62796  0.09798  0.38492  1.0000
  S   S157      1.0  0.67549  0.14191  0.37942  1.0000
  Fe  Fe80      1.0  0.57718  0.05676  0.42437  1.0000
  S   S158      1.0  0.56024  0.05257  0.46577  1.0000
  S   S159      1.0  0.60280  0.06379  0.35287  1.0000
  S   S160      1.0  0.55044  0.02013  0.39443  1.0000
  Fe  Fe81      1.0  0.82236  0.21226  0.27958  1.0000
  H   H467      1.0  0.49643  0.26300  0.36852  1.0000
  S   S161      1.0  0.77839  0.16799  0.29204  1.0000
  Fe  Fe82      1.0  0.89375  0.25426  0.27111  1.0000
  S   S162      1.0  0.94457  0.27183  0.28277  1.0000
  Fe  Fe83      1.0  0.85027  0.28307  0.26979  1.0000
  S   S163      1.0  0.84263  0.32507  0.28161  1.0000
  S   S164      1.0  0.85896  0.25600  0.29968  1.0000
  S   S165      1.0  0.85840  0.20726  0.25425  1.0000
  Fe  Fe84      1.0  0.50718  0.44186  0.36856  1.0000
  S   S166      1.0  0.51927  0.41407  0.39566  1.0000
  H   H468      1.0  0.70610  0.07668  0.35904  1.0000
  C   C462      1.0  0.76234  0.26870  0.32544  1.0000
  C   C463      1.0  0.92877  0.42638  0.45483  1.0000
  C   C464      1.0  0.59251  0.43988  0.35983  1.0000
  S   S167      1.0  0.94018  0.44265  0.34891  1.0000
  S   S168      1.0  0.49143  0.33205  0.35930  1.0000
  C   C465      1.0  0.71500  0.01270  0.42208  1.0000
  C   C466      1.0  0.97465  0.28700  0.25971  1.0000
  H   H469      1.0  0.65485  0.47163  0.32007  1.0000
  C   C467      1.0  0.86982  0.35737  0.30064  1.0000
  C   C468      1.0  0.89868  0.35976  0.30783  1.0000
  C   C469      1.0  0.91985  0.38598  0.32261  1.0000
  C   C470      1.0  0.91238  0.40998  0.33055  1.0000
  C   C471      1.0  0.88340  0.40743  0.32357  1.0000
  C   C472      1.0  0.86233  0.38133  0.30862  1.0000
  H   H470      1.0  0.90470  0.34144  0.30197  1.0000
  H   H471      1.0  0.94213  0.38764  0.32796  1.0000
  H   H472      1.0  0.87734  0.42572  0.32945  1.0000
  H   H473      1.0  0.84015  0.37979  0.30311  1.0000
  S   S169      1.0  0.88617  0.28305  0.24207  1.0000
  C   C473      1.0  0.86015  0.06013  0.48791  1.0000
  S   S170      1.0  0.89720  0.47439  0.39767  1.0000
  H   H474      1.0  0.58964  0.46414  0.27359  1.0000
  H   H475      1.0  0.54894  0.45261  0.30699  1.0000
  C   C474      1.0  0.50563  0.08222  0.33339  1.0000
  C   C475      1.0  0.52953  0.11054  0.32453  1.0000
  C   C476      1.0  0.71652  0.20976  0.30910  1.0000
  H   H476      1.0  0.55365  0.11737  0.32919  1.0000
  H   H477      1.0  0.53037  0.24891  0.34053  1.0000
  C   C477      1.0  0.70427  0.14810  0.35546  1.0000
  C   C478      1.0  0.69823  0.12750  0.33442  1.0000
  C   C479      1.0  0.72130  0.13386  0.31546  1.0000
  C   C480      1.0  0.75059  0.16109  0.31699  1.0000
  C   C481      1.0  0.75669  0.18167  0.33807  1.0000
  C   C482      1.0  0.73371  0.17514  0.35717  1.0000
  H   H478      1.0  0.67570  0.10672  0.33264  1.0000
  H   H479      1.0  0.71626  0.11766  0.29935  1.0000
  H   H480      1.0  0.77916  0.20256  0.33972  1.0000
  H   H481      1.0  0.73879  0.19121  0.37338  1.0000
  C   C483      1.0  0.49480  0.46174  0.47824  1.0000
  H   H482      1.0  0.54093  0.15134  0.30208  1.0000
  C   C484      1.0  0.58376  0.40818  0.32137  1.0000
  C   C485      1.0  0.73447  0.25263  0.33910  1.0000
  C   C486      1.0  0.82310  0.01134  0.46556  1.0000
  C   C487      1.0  0.85375  0.03228  0.47369  1.0000
  H   H483      1.0  0.69911  0.18641  0.30282  1.0000
  H   H484      1.0  0.66832  0.21932  0.34357  1.0000
  H   H485      1.0  0.68842  0.20709  0.36596  1.0000
  S   S171      1.0  0.81165  0.23960  0.25111  1.0000
  H   H486      1.0  0.77515  0.00268  0.46591  1.0000
  H   H487      1.0  0.78882  0.26690  0.29278  1.0000
  Fe  Fe85      1.0  0.93357  0.48295  0.36747  1.0000
  H   H488      1.0  0.49245  0.28874  0.32051  1.0000
  C   C488      1.0  0.49278  0.04280  0.41991  1.0000
  C   C489      1.0  0.57321  0.41326  0.34510  1.0000
  C   C490      1.0  0.48811  0.04883  0.44535  1.0000
  C   C491      1.0  0.70516  0.03343  0.43308  1.0000
  N   N38       1.0  0.94840  0.42313  0.43732  1.0000
  H   H489      1.0  0.58426  0.44482  0.37785  1.0000
  C   C492      1.0  0.69693  0.05142  0.41746  1.0000
  C   C493      1.0  0.74420  0.22508  0.29509  1.0000
  C   C494      1.0  0.96449  0.36296  0.26138  1.0000
  C   C495      1.0  0.52222  0.12977  0.30915  1.0000
  H   H490      1.0  0.94286  0.35278  0.24961  1.0000
  H   H491      1.0  0.78027  0.29178  0.33187  1.0000
  C   C496      1.0  0.93311  0.42452  0.48079  1.0000
  H   H492      1.0  0.73093  0.26350  0.35638  1.0000
  C   C497      1.0  0.50700  0.23112  0.34546  1.0000
  C   C498      1.0  0.68303  0.20736  0.34555  1.0000
  H   H493      1.0  0.72070  0.99803  0.43397  1.0000
  H   H494      1.0  0.92015  0.42186  0.40579  1.0000
  C   C499      1.0  0.62318  0.42376  0.28744  1.0000
  H   H495      1.0  0.91019  0.43145  0.44886  1.0000
  H   H496      1.0  0.70332  0.03503  0.45356  1.0000
  H   H497      1.0  0.66908  0.18226  0.33923  1.0000
  C   C500      1.0  0.49546  0.20042  0.33557  1.0000
  C   C501      1.0  0.79884  0.01852  0.47195  1.0000
  H   H498      1.0  0.96332  0.38124  0.27426  1.0000
  C   C502      1.0  0.48805  0.23896  0.36128  1.0000
  H   H499      1.0  0.51200  0.06036  0.40916  1.0000
  H   H500      1.0  0.60308  0.41157  0.27417  1.0000
  C   C503      1.0  0.49100  0.12109  0.30255  1.0000
  H   H501      1.0  0.70764  0.02513  0.36016  1.0000
  N   N39       1.0  0.71208  0.22348  0.33093  1.0000
  H   H502      1.0  0.50433  0.07118  0.45425  1.0000
  H   H503      1.0  0.56837  0.38765  0.30994  1.0000
  C   C504      1.0  0.71621  0.00995  0.39569  1.0000
  H   H504      1.0  0.63556  0.40940  0.28919  1.0000
  H   H505      1.0  0.49596  0.48458  0.44353  1.0000
  C   C505      1.0  0.52822  0.01995  0.47987  1.0000
  H   H506      1.0  0.74811  0.21366  0.27830  1.0000
  N   N40       1.0  0.69865  0.04890  0.39159  1.0000
  C   C506      1.0  0.68970  0.06755  0.37532  1.0000
  H   H507      1.0  0.54997  0.39691  0.35176  1.0000
  C   C507      1.0  0.70756  0.02808  0.38065  1.0000
  C   C508      1.0  0.76718  0.25473  0.30335  1.0000
  C   C509      1.0  0.97828  0.41717  0.47085  1.0000
  N   N41       1.0  0.61262  0.42919  0.31251  1.0000
  H   H508      1.0  0.69031  0.08834  0.38579  1.0000
  H   H509      1.0  0.96425  0.34402  0.27310  1.0000
  H   H510      1.0  0.50973  0.19405  0.32290  1.0000
  C   C510      1.0  0.57155  0.47325  0.30893  1.0000
  H   H511      1.0  0.94874  0.40912  0.39841  1.0000
  H   H512      1.0  0.66559  0.05272  0.36790  1.0000
  C   C511      1.0  0.94435  0.42627  0.41024  1.0000
  H   H513      1.0  0.87273  0.02706  0.46881  1.0000
  H   H514      1.0  0.68894  0.06720  0.42615  1.0000
  C   C512      1.0  0.59469  0.47993  0.28998  1.0000
  C   C513      1.0  0.97310  0.41888  0.44501  1.0000
  C   C514      1.0  0.95809  0.41996  0.48880  1.0000
  H   H515      1.0  0.96089  0.45041  0.40429  1.0000
  C   C515      1.0  0.80527  0.04649  0.48595  1.0000
  H   H516      1.0  0.72290  0.99320  0.38697  1.0000
  H   H517      1.0  0.61233  0.99337  0.42406  1.0000
  S   S172      1.0  0.54934  0.48674  0.35464  1.0000
  C   C516      1.0  0.49750  0.48695  0.46401  1.0000
  H   H518      1.0  0.51447  0.98988  0.44628  1.0000
  C   C517      1.0  0.50929  0.99221  0.46606  1.0000
  H   H519      1.0  0.63931  0.44648  0.27865  1.0000
  S   S173      1.0  0.61212  0.99002  0.36869  1.0000
  C   C518      1.0  0.62221  0.46069  0.35095  1.0000
  C   C519      1.0  0.63207  0.45483  0.32717  1.0000
  H   H520      1.0  0.63705  0.48180  0.36203  1.0000
  S   S174      1.0  0.48658  0.42475  0.46375  1.0000
  H   H521      1.0  0.56408  0.99468  0.52868  1.0000
  H   H522      1.0  0.95385  0.32797  0.52774  1.0000
  S   S175      1.0  0.76269  0.14085  0.68348  1.0000
  Fe  Fe86      1.0  0.92149  0.21278  0.54393  1.0000
  S   S176      1.0  0.94957  0.20678  0.57466  1.0000
  S   S177      1.0  0.92852  0.26146  0.53465  1.0000
  Fe  Fe87      1.0  0.88615  0.14124  0.53109  1.0000
  S   S178      1.0  0.91284  0.13147  0.56114  1.0000
  Fe  Fe88      1.0  0.75212  0.13671  0.72631  1.0000
  Fe  Fe89      1.0  0.90387  0.16567  0.58608  1.0000
  S   S179      1.0  0.88857  0.15776  0.62786  1.0000
  Fe  Fe90      1.0  0.95562  0.17391  0.54630  1.0000
  S   S180      1.0  0.87552  0.17371  0.55685  1.0000
  S   S181      1.0  0.92925  0.18158  0.51480  1.0000
  H   H523      1.0  0.95426  0.26709  0.58533  1.0000
  C   C520      1.0  0.80017  0.08419  0.57104  1.0000
  H   H524      1.0  0.88078  0.20829  0.60481  1.0000
  C   C521      1.0  0.52104  0.02239  0.50561  1.0000
  N   N42       1.0  0.81378  0.08044  0.62150  1.0000
  C   C522      1.0  0.95203  0.29424  0.55453  1.0000
  H   H525      1.0  0.52468  0.99695  0.57600  1.0000
  H   H526      1.0  0.56431  0.00216  0.57420  1.0000
  C   C523      1.0  0.97494  0.31640  0.59578  1.0000
  H   H527      1.0  0.84599  0.09161  0.65207  1.0000
  C   C524      1.0  0.90941  0.29476  0.62654  1.0000
  H   H528      1.0  0.73565  0.04221  0.72865  1.0000
  H   H529      1.0  0.66373  0.03112  0.72108  1.0000
  C   C525      1.0  0.77883  0.08178  0.59012  1.0000
  H   H530      1.0  0.89474  0.29984  0.56560  1.0000
  C   C526      1.0  0.79878  0.14792  0.66856  1.0000
  C   C527      1.0  0.80159  0.15064  0.64199  1.0000
  C   C528      1.0  0.82916  0.15461  0.62925  1.0000
  C   C529      1.0  0.85435  0.15584  0.64296  1.0000
  C   C530      1.0  0.85181  0.15383  0.66956  1.0000
  C   C531      1.0  0.82426  0.14987  0.68229  1.0000
  H   H531      1.0  0.78212  0.14928  0.63115  1.0000
  H   H532      1.0  0.83053  0.15588  0.60878  1.0000
  H   H533      1.0  0.87109  0.15479  0.68044  1.0000
  H   H534      1.0  0.82263  0.14799  0.70272  1.0000
  C   C532      1.0  0.91210  0.27391  0.64305  1.0000
  C   C533      1.0  0.96040  0.29034  0.57892  1.0000
  H   H535      1.0  0.98064  0.37427  0.55737  1.0000
  H   H536      1.0  0.87668  0.24586  0.57612  1.0000
  H   H537      1.0  0.91368  0.33088  0.58874  1.0000
  H   H538      1.0  0.79512  0.08590  0.55129  1.0000
  H   H539      1.0  0.84482  0.08618  0.56264  1.0000
  C   C534      1.0  0.82052  0.07725  0.64797  1.0000
  S   S182      1.0  0.84248  0.10272  0.51117  1.0000
  H   H540      1.0  0.98017  0.31296  0.61497  1.0000
  H   H541      1.0  0.90369  0.22603  0.64765  1.0000
  H   H542      1.0  0.76930  0.07793  0.63018  1.0000
  N   N43       1.0  0.89689  0.28465  0.60279  1.0000
  H   H543      1.0  0.85706  0.08380  0.60772  1.0000
  H   H544      1.0  0.80805  0.08600  0.66136  1.0000
  H   H545      1.0  0.81326  0.05220  0.65173  1.0000
  H   H546      1.0  0.53545  0.04376  0.51649  1.0000
  H   H547      1.0  0.91818  0.31927  0.63256  1.0000
  C   C535      1.0  0.78591  0.07958  0.61540  1.0000
  C   C536      1.0  0.82824  0.08451  0.57742  1.0000
  C   C537      1.0  0.83482  0.08279  0.60290  1.0000
  C   C538      1.0  0.89391  0.30672  0.58588  1.0000
  H   H548      1.0  0.87143  0.30721  0.58957  1.0000
  C   C539      1.0  0.88863  0.23248  0.61110  1.0000
  C   C540      1.0  0.49695  0.46538  0.50487  1.0000
  H   H549      1.0  0.75701  0.08171  0.58536  1.0000
  C   C541      1.0  0.88625  0.25386  0.59507  1.0000
  C   C542      1.0  0.96013  0.32474  0.54663  1.0000
  H   H550      1.0  0.92249  0.28208  0.66170  1.0000
  C   C543      1.0  0.90163  0.24256  0.63521  1.0000
  C   C544      1.0  0.71723  0.01932  0.73381  1.0000
  C   C545      1.0  0.70558  0.99422  0.71576  1.0000
  H   H551      1.0  0.88385  0.07608  0.49384  1.0000
  H   H552      1.0  0.49477  0.44598  0.51605  1.0000
  C   C546      1.0  0.83593  0.06753  0.49398  1.0000
  C   C547      1.0  0.98180  0.34665  0.58825  1.0000
  C   C548      1.0  0.97531  0.35097  0.56335  1.0000
  H   H553      1.0  0.96255  0.41980  0.50892  1.0000
  H   H554      1.0  0.71487  0.99799  0.69664  1.0000
  H   H555      1.0  0.48958  0.00018  0.53698  1.0000
  C   C549      1.0  0.64108  0.01043  0.72277  1.0000
  H   H556      1.0  0.91809  0.42812  0.49462  1.0000
  C   C550      1.0  0.49503  0.99771  0.51730  1.0000
  H   H557      1.0  0.78635  0.05192  0.49048  1.0000
  Fe  Fe91      1.0  0.89582  0.36646  0.88008  1.0000
  S   S183      1.0  0.92874  0.39055  0.84800  1.0000
  S   S184      1.0  0.85139  0.31910  0.87598  1.0000
  Fe  Fe92      1.0  0.93811  0.41786  0.91975  1.0000
  H   H558      1.0  0.53987  0.17432  0.84105  1.0000
  S   S185      1.0  0.94553  0.43093  0.96218  1.0000
  Fe  Fe93      1.0  0.93207  0.43567  0.86555  1.0000
  H   H559      1.0  0.97982  0.21622  0.96644  1.0000
  Fe  Fe94      1.0  0.96642  0.39680  0.87586  1.0000
  S   S186      1.0  0.89663  0.41122  0.89623  1.0000
  S   S187      1.0  0.93334  0.37061  0.90690  1.0000
  H   H560      1.0  0.89263  0.29014  0.90265  1.0000
  C   C551      1.0  0.54099  0.41165  0.76739  1.0000
  S   S188      1.0  0.53726  0.04511  0.83544  1.0000
  S   S189      1.0  0.51532  0.08884  0.89184  1.0000
  H   H561      1.0  0.78224  0.24092  0.77159  1.0000
  S   S190      1.0  0.57407  0.46954  0.88449  1.0000
  S   S191      1.0  0.50498  0.45182  0.83639  1.0000
  S   S192      1.0  0.49622  0.04914  0.95856  1.0000
  Fe  Fe95      1.0  0.73754  0.09399  0.77108  1.0000
  S   S193      1.0  0.72327  0.04406  0.78261  1.0000
  Fe  Fe96      1.0  0.77851  0.16581  0.77881  1.0000
  C   C552      1.0  0.95934  0.30020  0.87263  1.0000
  S   S194      1.0  0.82310  0.20923  0.79261  1.0000
  Fe  Fe97      1.0  0.70728  0.13657  0.77029  1.0000
  S   S195      1.0  0.66678  0.14484  0.78566  1.0000
  S   S196      1.0  0.73663  0.12972  0.79959  1.0000
  H   H562      1.0  0.86644  0.00145  0.97663  1.0000
  Fe  Fe98      1.0  0.54820  0.48579  0.85910  1.0000
  H   H563      1.0  0.52521  0.36059  0.82255  1.0000
  H   H564      1.0  0.76108  0.99577  0.76868  1.0000
  H   H565      1.0  0.84526  0.44641  0.78894  1.0000
  C   C553      1.0  0.57431  0.07331  0.82329  1.0000
  C   C554      1.0  0.58608  0.10578  0.82770  1.0000
  C   C555      1.0  0.61443  0.12728  0.81623  1.0000
  C   C556      1.0  0.63203  0.11668  0.80088  1.0000
  C   C557      1.0  0.62084  0.08418  0.79723  1.0000
  C   C558      1.0  0.59205  0.06272  0.80813  1.0000
  H   H566      1.0  0.57330  0.11431  0.83989  1.0000
  H   H567      1.0  0.62290  0.15231  0.81937  1.0000
  H   H568      1.0  0.63406  0.07563  0.78555  1.0000
  H   H569      1.0  0.58339  0.03770  0.80471  1.0000
  H   H570      1.0  0.82697  0.29443  0.77433  1.0000
  S   S197      1.0  0.93561  0.47979  0.84704  1.0000
  C   C559      1.0  0.56193  0.37386  0.76945  1.0000
  H   H571      1.0  0.83052  0.33067  0.81052  1.0000
  C   C560      1.0  0.51585  0.39989  0.83008  1.0000
  H   H572      1.0  0.78891  0.31267  0.84339  1.0000
  H   H573      1.0  0.97327  0.31091  0.85595  1.0000
  H   H574      1.0  0.53586  0.41228  0.84248  1.0000
  H   H575      1.0  0.72291  0.20971  0.78445  1.0000
  C   C561      1.0  0.50982  0.37060  0.81867  1.0000
  H   H576      1.0  0.56526  0.48331  0.79674  1.0000
  C   C562      1.0  0.84522  0.28788  0.85387  1.0000
  C   C563      1.0  0.81780  0.25891  0.85570  1.0000
  C   C564      1.0  0.81072  0.23439  0.83735  1.0000
  C   C565      1.0  0.83125  0.23847  0.81709  1.0000
  C   C566      1.0  0.85914  0.26709  0.81574  1.0000
  C   C567      1.0  0.86597  0.29176  0.83384  1.0000
  H   H577      1.0  0.80165  0.25558  0.87119  1.0000
  H   H578      1.0  0.78945  0.21235  0.83891  1.0000
  H   H579      1.0  0.87524  0.27046  0.80020  1.0000
  H   H580      1.0  0.88693  0.31400  0.83191  1.0000
  C   C568      1.0  0.97392  0.46703  0.97627  1.0000
  H   H581      1.0  0.52345  0.44568  0.76802  1.0000
  H   H582      1.0  0.74402  0.25909  0.83974  1.0000
  H   H583      1.0  0.52572  0.09671  0.81198  1.0000
  S   S198      1.0  0.97361  0.44433  0.89012  1.0000
  C   C569      1.0  0.96486  0.25970  0.93026  1.0000
  C   C570      1.0  0.57318  0.05469  0.96893  1.0000
  H   H584      1.0  0.52381  0.42751  0.91956  1.0000
  N   N44       1.0  0.75988  0.24731  0.80492  1.0000
  C   C571      1.0  0.76160  0.26708  0.82488  1.0000
  C   C572      1.0  0.78284  0.25703  0.78678  1.0000
  C   C573      1.0  0.78677  0.29752  0.82696  1.0000
  C   C574      1.0  0.96971  0.28596  0.89026  1.0000
  C   C575      1.0  0.91871  0.13124  0.98400  1.0000
  C   C576      1.0  0.73429  0.21496  0.80343  1.0000
  H   H585      1.0  0.53726  0.13767  0.84952  1.0000
  N   N45       1.0  0.95272  0.27341  0.91172  1.0000
  H   H586      1.0  0.98502  0.27876  0.94071  1.0000
  C   C577      1.0  0.70596  0.01444  0.75874  1.0000
  C   C578      1.0  0.54093  0.15304  0.83318  1.0000
  H   H587      1.0  0.91201  0.26527  0.93348  1.0000
  H   H588      1.0  0.83781  0.45492  0.85484  1.0000
  C   C579      1.0  0.55196  0.03292  0.92651  1.0000
  C   C580      1.0  0.58764  0.45375  0.79974  1.0000
  H   H589      1.0  0.94671  0.24533  0.94424  1.0000
  H   H590      1.0  0.58403  0.37748  0.75997  1.0000
  H   H591      1.0  0.50264  0.17221  0.81238  1.0000
  C   C581      1.0  0.94473  0.13639  0.96843  1.0000
  S   S199      1.0  0.74929  0.17484  0.75071  1.0000
  C   C582      1.0  0.88500  0.46017  0.81384  1.0000
  H   H592      1.0  0.71566  0.21063  0.81774  1.0000
  C   C583      1.0  0.91426  0.28883  0.89905  1.0000
  H   H593      1.0  0.80068  0.46690  0.83142  1.0000
  H   H594      1.0  0.50561  0.42127  0.88879  1.0000
  H   H595      1.0  0.87948  0.43627  0.81810  1.0000
  C   C584      1.0  0.56512  0.46143  0.79067  1.0000
  C   C585      1.0  0.81022  0.30762  0.80851  1.0000
  C   C586      1.0  0.49658  0.41349  0.82475  1.0000
  H   H596      1.0  0.74355  0.19806  0.80656  1.0000
  H   H597      1.0  0.94758  0.11647  0.96136  1.0000
  C   C587      1.0  0.91136  0.48534  0.82487  1.0000
  Fe  Fe99      1.0  0.50157  0.05056  0.86182  1.0000
  C   C588      1.0  0.58627  0.42486  0.79235  1.0000
  S   S200      1.0  0.78287  0.12893  0.75350  1.0000
  H   H598      1.0  0.57460  0.07702  0.96384  1.0000
  N   N46       1.0  0.56135  0.02950  0.95209  1.0000
  H   H599      1.0  0.55821  0.35985  0.78671  1.0000
  C   C589      1.0  0.96287  0.19253  0.97114  1.0000
  H   H600      1.0  0.54208  0.35940  0.75642  1.0000
  H   H601      1.0  0.52903  0.01259  0.92131  1.0000
  N   N47       1.0  0.56315  0.40426  0.77637  1.0000
  C   C590      1.0  0.96698  0.16702  0.96184  1.0000
  C   C591      1.0  0.80826  0.28732  0.78824  1.0000
  H   H602      1.0  0.92364  0.31336  0.86393  1.0000
  H   H603      1.0  0.56450  0.16018  0.82487  1.0000
  C   C592      1.0  0.93152  0.30172  0.87716  1.0000
  C   C593      1.0  0.83333  0.01862  0.96982  1.0000
  H   H604      1.0  0.97298  0.24387  0.92055  1.0000
  C   C594      1.0  0.86564  0.46601  0.79734  1.0000
  N   N48       1.0  0.51663  0.13619  0.81399  1.0000
  H   H605      1.0  0.52193  0.39486  0.75553  1.0000
  C   C595      1.0  0.49901  0.14934  0.80515  1.0000
  C   C596      1.0  0.92536  0.27483  0.91634  1.0000
  C   C597      1.0  0.62145  0.00816  0.74318  1.0000
  H   H606      1.0  0.84599  0.04002  0.98129  1.0000
  C   C598      1.0  0.56773  0.99724  0.98302  1.0000
  H   H607      1.0  0.79553  0.02860  0.96079  1.0000
  H   H608      1.0  0.60573  0.46984  0.81277  1.0000
  C   C599      1.0  0.51182  0.10722  0.80497  1.0000
  H   H609      1.0  0.54876  0.05432  0.92532  1.0000
  H   H610      1.0  0.60355  0.41883  0.79982  1.0000
  C   C600      1.0  0.54168  0.44034  0.77437  1.0000
  C   C601      1.0  0.80494  0.01209  0.95844  1.0000
  C   C602      1.0  0.50102  0.41615  0.90931  1.0000
  C   C603      1.0  0.49288  0.01626  0.97554  1.0000
  C   C604      1.0  0.93663  0.18735  0.98643  1.0000
  H   H611      1.0  0.56994  0.03446  0.91239  1.0000
  C   C605      1.0  0.55877  0.00111  0.95879  1.0000
  S   S201      1.0  0.70655  0.09945  0.74259  1.0000
  H   H612      1.0  0.49040  0.39021  0.91109  1.0000
  S   S202      1.0  0.55357  0.48685  0.95378  1.0000
  H   H613      1.0  0.62873  0.02724  0.75734  1.0000
  C   C606      1.0  0.84137  0.47894  0.85431  1.0000
  C   C607      1.0  0.82050  0.48587  0.84112  1.0000
  C   C608      1.0  0.84493  0.99698  0.96709  1.0000
  C   C609      1.0  0.48822  0.09021  0.78718  1.0000
  H   H614      1.0  0.90184  0.10755  0.98878  1.0000
  H   H615      1.0  0.76878  0.74462  0.23833  1.0000
  S   S203      1.0  0.76941  0.60189  0.18345  1.0000
  H   H616      1.0  0.68685  0.94030  0.02872  1.0000
  Fe  Fe100     1.0  0.59629  0.77264  0.20163  1.0000
  C   C610      1.0  0.89222  0.83188  0.99261  1.0000
  S   S204      1.0  0.60051  0.81975  0.18935  1.0000
  Fe  Fe101     1.0  0.62703  0.72972  0.20804  1.0000
  S   S205      1.0  0.66220  0.71337  0.19560  1.0000
  Fe  Fe102     1.0  0.55691  0.70186  0.21118  1.0000
  C   C611      1.0  0.51298  0.54801  0.05822  1.0000
  S   S206      1.0  0.59113  0.72869  0.18063  1.0000
  H   H617      1.0  0.73719  0.66830  0.14416  1.0000
  Fe  Fe103     1.0  0.90512  0.71836  0.09090  1.0000
  S   S207      1.0  0.87839  0.68175  0.06084  1.0000
  S   S208      1.0  0.89181  0.71184  0.13320  1.0000
  Fe  Fe104     1.0  0.95196  0.76319  0.05055  1.0000
  S   S209      1.0  0.92694  0.72915  0.01850  1.0000
  Fe  Fe105     1.0  0.88232  0.72244  0.03779  1.0000
  S   S210      1.0  0.83803  0.72236  0.02272  1.0000
  Fe  Fe106     1.0  0.92601  0.69282  0.04509  1.0000
  S   S211      1.0  0.94517  0.65961  0.03231  1.0000
  S   S212      1.0  0.90730  0.75868  0.06873  1.0000
  S   S213      1.0  0.95287  0.72726  0.07636  1.0000
  Fe  Fe107     1.0  0.52455  0.89625  0.09859  1.0000
  S   S214      1.0  0.53295  0.93198  0.13009  1.0000
  S   S215      1.0  0.52914  0.85133  0.10242  1.0000
  Fe  Fe108     1.0  0.51039  0.93514  0.05960  1.0000
  H   H618      1.0  0.68308  0.98209  0.08809  1.0000
  Fe  Fe109     1.0  0.56037  0.96729  0.10033  1.0000
  S   S216      1.0  0.55380  0.93143  0.06954  1.0000
  C   C612      1.0  0.79601  0.96189  0.01575  1.0000
  C   C613      1.0  0.50077  0.60706  0.09875  1.0000
  H   H619      1.0  0.77685  0.67491  0.14905  1.0000
  N   N49       1.0  0.84369  0.59841  0.21048  1.0000
  H   H620      1.0  0.82276  0.54937  0.21667  1.0000
  C   C614      1.0  0.83248  0.74430  0.99865  1.0000
  S   S217      1.0  0.48974  0.53520  0.13710  1.0000
  H   H621      1.0  0.50868  0.61957  0.11691  1.0000
  H   H622      1.0  0.49499  0.52369  0.06244  1.0000
  H   H623      1.0  0.59212  0.90944  0.10832  1.0000
  C   C615      1.0  0.75099  0.71355  0.17821  1.0000
  C   C616      1.0  0.95892  0.62605  0.09814  1.0000
  C   C617      1.0  0.94809  0.64007  0.08044  1.0000
  C   C618      1.0  0.96073  0.64579  0.05594  1.0000
  C   C619      1.0  0.76774  0.96046  0.00806  1.0000
  H   H624      1.0  0.94866  0.62115  0.11692  1.0000
  H   H625      1.0  0.92933  0.64560  0.08551  1.0000
  C   C620      1.0  0.57879  0.82713  0.16586  1.0000
  C   C621      1.0  0.57957  0.85681  0.16593  1.0000
  C   C622      1.0  0.56374  0.86426  0.14716  1.0000
  C   C623      1.0  0.54753  0.84233  0.12766  1.0000
  C   C624      1.0  0.54666  0.81261  0.12765  1.0000
  C   C625      1.0  0.56194  0.80492  0.14674  1.0000
  H   H626      1.0  0.59243  0.87416  0.18064  1.0000
  H   H627      1.0  0.56428  0.88703  0.14775  1.0000
  H   H628      1.0  0.53415  0.79542  0.11272  1.0000
  H   H629      1.0  0.56118  0.78204  0.14635  1.0000
  H   H630      1.0  0.70566  0.64726  0.22590  1.0000
  C   C626      1.0  0.75504  0.73405  0.19899  1.0000
  C   C627      1.0  0.52526  0.59235  0.16162  1.0000
  C   C628      1.0  0.53045  0.62013  0.17533  1.0000
  C   C629      1.0  0.76638  0.72950  0.22184  1.0000
  H   H631      1.0  0.54497  0.58838  0.15653  1.0000
  H   H632      1.0  0.55396  0.63743  0.18062  1.0000
  C   C630      1.0  0.80313  0.63335  0.16986  1.0000
  C   C631      1.0  0.80836  0.63228  0.14357  1.0000
  C   C632      1.0  0.83492  0.65637  0.13195  1.0000
  C   C633      1.0  0.85666  0.68201  0.14649  1.0000
  C   C634      1.0  0.85116  0.68335  0.17273  1.0000
  C   C635      1.0  0.82476  0.65909  0.18440  1.0000
  H   H633      1.0  0.79184  0.61256  0.13207  1.0000
  H   H634      1.0  0.83873  0.65491  0.11176  1.0000
  H   H635      1.0  0.86784  0.70299  0.18420  1.0000
  H   H636      1.0  0.82155  0.66015  0.20470  1.0000
  C   C636      1.0  0.67624  0.69863  0.21955  1.0000
  C   C637      1.0  0.68481  0.67515  0.21316  1.0000
  H   H637      1.0  0.70045  0.97827  0.04390  1.0000
  H   H638      1.0  0.68142  0.66545  0.19394  1.0000
  C   C638      1.0  0.96327  0.58342  0.99679  1.0000
  N   N50       1.0  0.75753  0.68888  0.18031  1.0000
  C   C639      1.0  0.49329  0.96649  0.00294  1.0000
  H   H639      1.0  0.74854  0.75275  0.19756  1.0000
  H   H640      1.0  0.92529  0.51513  0.06607  1.0000
  H   H641      1.0  0.64096  0.89641  0.04406  1.0000
  C   C640      1.0  0.80237  0.93689  0.00882  1.0000
  C   C641      1.0  0.69209  0.95287  0.04753  1.0000
  C   C642      1.0  0.94151  0.54067  0.06861  1.0000
  H   H642      1.0  0.79572  0.56428  0.20894  1.0000
  H   H643      1.0  0.83424  0.58357  0.17155  1.0000
  C   C643      1.0  0.93789  0.58208  0.01079  1.0000
  N   N51       1.0  0.89884  0.81986  0.01350  1.0000
  N   N52       1.0  0.94915  0.55564  0.04391  1.0000
  C   C644      1.0  0.84961  0.60165  0.18498  1.0000
  C   C645      1.0  0.86247  0.62159  0.22742  1.0000
  N   N53       1.0  0.66444  0.94074  0.06412  1.0000
  C   C646      1.0  0.64017  0.91112  0.05985  1.0000
  C   C647      1.0  0.66369  0.95882  0.08449  1.0000
  H   H644      1.0  0.76261  0.97959  0.01318  1.0000
  C   C648      1.0  0.63771  0.94785  0.10070  1.0000
  C   C649      1.0  0.88785  0.64908  0.21886  1.0000
  H   H645      1.0  0.88832  0.82881  0.05121  1.0000
  C   C650      1.0  0.97382  0.55649  0.03014  1.0000
  C   C651      1.0  0.51222  0.58666  0.08967  1.0000
  H   H646      1.0  0.71136  0.95022  0.05656  1.0000
  C   C652      1.0  0.61383  0.89938  0.07575  1.0000
  C   C653      1.0  0.77342  0.70457  0.22369  1.0000
  S   S218      1.0  0.55961  0.74582  0.23068  1.0000
  C   C654      1.0  0.69841  0.66465  0.23135  1.0000
  H   H647      1.0  0.87097  0.83429  0.99183  1.0000
  H   H648      1.0  0.51717  0.54937  0.03738  1.0000
  H   H649      1.0  0.77320  0.66437  0.20445  1.0000
  C   C655      1.0  0.87775  0.81106  0.03549  1.0000
  C   C656      1.0  0.78095  0.91090  0.99402  1.0000
  C   C657      1.0  0.61262  0.91803  0.09616  1.0000
  H   H650      1.0  0.57310  0.62490  0.22782  1.0000
  C   C658      1.0  0.50513  0.62533  0.18245  1.0000
  H   H651      1.0  0.82413  0.93776  0.01478  1.0000
  C   C659      1.0  0.60546  0.58092  0.23015  1.0000
  H   H652      1.0  0.53520  0.55257  0.06765  1.0000
  C   C660      1.0  0.74620  0.93434  0.99348  1.0000
  S   S219      1.0  0.51875  0.97331  0.08871  1.0000
  H   H653      1.0  0.63677  0.96259  0.11644  1.0000
  H   H654      1.0  0.59273  0.56660  0.21378  1.0000
  C   C661      1.0  0.80623  0.74970  0.00017  1.0000
  H   H655      1.0  0.64814  0.84713  0.23196  1.0000
  S   S220      1.0  0.63639  0.77651  0.22578  1.0000
  Fe  Fe110     1.0  0.49012  0.93383  0.11526  1.0000
  H   H656      1.0  0.87903  0.63167  0.15550  1.0000
  H   H657      1.0  0.90240  0.66762  0.23230  1.0000
  H   H658      1.0  0.93119  0.80774  0.03100  1.0000
  C   C662      1.0  0.87493  0.62870  0.17579  1.0000
  H   H659      1.0  0.52883  0.58336  0.10120  1.0000
  H   H660      1.0  0.96678  0.82139  0.99417  1.0000
  H   H661      1.0  0.74425  0.64302  0.16429  1.0000
  C   C663      1.0  0.92551  0.81659  0.01428  1.0000
  H   H662      1.0  0.92427  0.59297  0.00385  1.0000
  H   H663      1.0  0.91317  0.67409  0.18583  1.0000
  H   H664      1.0  0.91168  0.56757  0.04539  1.0000
  H   H665      1.0  0.74190  0.71714  0.16061  1.0000
  H   H666      1.0  0.79028  0.74083  0.01606  1.0000
  H   H667      1.0  0.93067  0.55170  0.08150  1.0000
  S   S221      1.0  0.49516  0.93514  0.01862  1.0000
  H   H668      1.0  0.59429  0.87605  0.07235  1.0000
  H   H669      1.0  0.87330  0.78762  0.04214  1.0000
  S   S222      1.0  0.51020  0.65897  0.20112  1.0000
  C   C664      1.0  0.75375  0.66783  0.15834  1.0000
  C   C665      1.0  0.98134  0.57049  0.00646  1.0000
  Fe  Fe111     1.0  0.75256  0.59580  0.22478  1.0000
  H   H670      1.0  0.58208  0.60680  0.20071  1.0000
  C   C666      1.0  0.76868  0.68429  0.20264  1.0000
  C   C667      1.0  0.98267  0.61801  0.09155  1.0000
  C   C668      1.0  0.89407  0.65259  0.19286  1.0000
  C   C669      1.0  0.93099  0.56782  0.03439  1.0000
  H   H671      1.0  0.63105  0.87287  0.22773  1.0000
  C   C670      1.0  0.59231  0.62241  0.21776  1.0000
  C   C671      1.0  0.49482  0.56975  0.15438  1.0000
  N   N54       1.0  0.50196  0.57044  0.06700  1.0000
  H   H672      1.0  0.85444  0.80886  0.03067  1.0000
  H   H673      1.0  0.96303  0.54378  0.07846  1.0000
  C   C672      1.0  0.81746  0.56942  0.21948  1.0000
  C   C673      1.0  0.98497  0.63848  0.04958  1.0000
  C   C674      1.0  0.94584  0.82442  0.99347  1.0000
  S   S223      1.0  0.59265  0.70104  0.23763  1.0000
  H   H674      1.0  0.60973  0.64593  0.21102  1.0000
  N   N55       1.0  0.60734  0.61000  0.23485  1.0000
  S   S224      1.0  0.70621  0.59233  0.23736  1.0000
  Fe  Fe112     1.0  0.69792  0.91422  0.43817  1.0000
  S   S225      1.0  0.73358  0.94158  0.40879  1.0000
  S   S226      1.0  0.66405  0.93229  0.45100  1.0000
  Fe  Fe113     1.0  0.72482  0.86798  0.44469  1.0000
  S   S227      1.0  0.76207  0.89309  0.41575  1.0000
  N   N56       1.0  0.89472  0.61580  0.40347  1.0000
  Fe  Fe114     1.0  0.76776  0.93804  0.43542  1.0000
  C   C675      1.0  0.91306  0.77040  0.48512  1.0000
  Fe  Fe115     1.0  0.72352  0.89360  0.39255  1.0000
  S   S228      1.0  0.71854  0.87969  0.35019  1.0000
  S   S229      1.0  0.73258  0.91268  0.46571  1.0000
  S   S230      1.0  0.68583  0.86655  0.42052  1.0000
  S   S231      1.0  0.97390  0.51650  0.39242  1.0000
  S   S232      1.0  0.78027  0.63207  0.25442  1.0000
  Fe  Fe116     1.0  0.70177  0.55550  0.26463  1.0000
  S   S233      1.0  0.72809  0.58954  0.29657  1.0000
  S   S234      1.0  0.65360  0.51227  0.26894  1.0000
  Fe  Fe117     1.0  0.73380  0.62637  0.26855  1.0000
  S   S235      1.0  0.72338  0.66682  0.27863  1.0000
  Fe  Fe118     1.0  0.77177  0.59092  0.27871  1.0000
  S   S236      1.0  0.81765  0.59354  0.29266  1.0000
  S   S237      1.0  0.84811  0.51809  0.37624  1.0000
  H   H675      1.0  0.81357  0.86490  0.44352  1.0000
  S   S238      1.0  0.72182  0.82158  0.45724  1.0000
  S   S239      1.0  0.60490  0.76095  0.29628  1.0000
  Fe  Fe119     1.0  0.89405  0.51589  0.38131  1.0000
  S   S240      1.0  0.92814  0.52229  0.34970  1.0000
  C   C676      1.0  0.59517  0.82654  0.26101  1.0000
  H   H676      1.0  0.58728  0.81570  0.24233  1.0000
  H   H677      1.0  0.84826  0.58619  0.39080  1.0000
  Fe  Fe120     1.0  0.96438  0.55466  0.37799  1.0000
  S   S241      1.0  0.93007  0.55024  0.40861  1.0000
  C   C677      1.0  0.63795  0.61678  0.27229  1.0000
  C   C678      1.0  0.68057  0.71102  0.24445  1.0000
  H   H678      1.0  0.81513  0.91686  0.45049  1.0000
  H   H679      1.0  0.81211  0.81877  0.46545  1.0000
  C   C679      1.0  0.96272  0.78391  0.46290  1.0000
  H   H680      1.0  0.63239  0.97011  0.45584  1.0000
  H   H681      1.0  0.73151  0.76900  0.46910  1.0000
  H   H682      1.0  0.71360  0.78680  0.30618  1.0000
  H   H683      1.0  0.66135  0.73933  0.30545  1.0000
  C   C680      1.0  0.82475  0.57072  0.31513  1.0000
  C   C681      1.0  0.80200  0.55185  0.33248  1.0000
  C   C682      1.0  0.80939  0.53552  0.35078  1.0000
  C   C683      1.0  0.83939  0.53744  0.35173  1.0000
  C   C684      1.0  0.86192  0.55580  0.33403  1.0000
  C   C685      1.0  0.85472  0.57256  0.31605  1.0000
  H   H684      1.0  0.77891  0.55029  0.33212  1.0000
  C   C686      1.0  0.91210  0.60943  0.38567  1.0000
  H   H685      1.0  0.88498  0.55727  0.33426  1.0000
  H   H686      1.0  0.87251  0.58702  0.30273  1.0000
  C   C687      1.0  0.70404  0.67786  0.25598  1.0000
  C   C688      1.0  0.69472  0.70084  0.26257  1.0000
  C   C689      1.0  0.94029  0.79243  0.47269  1.0000
  H   H687      1.0  0.69888  0.71110  0.28162  1.0000
  H   H688      1.0  0.85095  0.59932  0.42351  1.0000
  C   C690      1.0  0.62436  0.50655  0.29226  1.0000
  C   C691      1.0  0.60694  0.52061  0.33208  1.0000
  C   C692      1.0  0.63033  0.52688  0.31346  1.0000
  H   H689      1.0  0.61182  0.53657  0.34835  1.0000
  H   H690      1.0  0.65306  0.54727  0.31572  1.0000
  N   N57       1.0  0.83442  0.86635  0.47929  1.0000
  Fe  Fe121     1.0  0.93733  0.50988  0.42154  1.0000
  C   C693      1.0  0.62327  0.97915  0.41782  1.0000
  C   C694      1.0  0.64883  0.94735  0.42795  1.0000
  H   H691      1.0  0.66625  0.88607  0.24636  1.0000
  H   H692      1.0  0.90228  0.58672  0.37570  1.0000
  H   H693      1.0  0.65642  0.88676  0.29001  1.0000
  C   C695      1.0  0.63974  0.95478  0.38402  1.0000
  C   C696      1.0  0.65141  0.94186  0.40198  1.0000
  H   H694      1.0  0.65113  0.63125  0.28848  1.0000
  C   C697      1.0  0.62580  0.97360  0.39185  1.0000
  H   H695      1.0  0.66226  0.92752  0.39576  1.0000
  C   C698      1.0  0.68568  0.84790  0.33524  1.0000
  C   C699      1.0  0.68705  0.84167  0.30907  1.0000
  C   C700      1.0  0.66231  0.81555  0.29673  1.0000
  C   C701      1.0  0.63586  0.79529  0.31047  1.0000
  C   C702      1.0  0.63424  0.80187  0.33652  1.0000
  C   C703      1.0  0.65892  0.82804  0.34884  1.0000
  H   H696      1.0  0.70763  0.85686  0.29836  1.0000
  H   H697      1.0  0.66398  0.81084  0.27671  1.0000
  H   H698      1.0  0.61386  0.78644  0.34732  1.0000
  H   H699      1.0  0.65739  0.83257  0.36892  1.0000
  C   C704      1.0  0.92984  0.73068  0.47739  1.0000
  H   H700      1.0  0.85776  0.61903  0.24768  1.0000
  C   C705      1.0  0.94279  0.63190  0.38026  1.0000
  H   H701      1.0  0.67400  0.72920  0.24946  1.0000
  C   C706      1.0  0.62310  0.62777  0.25571  1.0000
  C   C707      1.0  0.82327  0.87818  0.46108  1.0000
  C   C708      1.0  0.61489  0.85387  0.30892  1.0000
  N   N58       1.0  0.62368  0.85260  0.26395  1.0000
  C   C709      1.0  0.50191  0.51526  0.47628  1.0000
  H   H702      1.0  0.78128  0.70023  0.24163  1.0000
  H   H703      1.0  0.94418  0.81635  0.47086  1.0000
  H   H704      1.0  0.89352  0.64946  0.43051  1.0000
  H   H705      1.0  0.86240  0.56967  0.41443  1.0000
  C   C710      1.0  0.63364  0.86637  0.28751  1.0000
  H   H706      1.0  0.97430  0.74591  0.45791  1.0000
  C   C711      1.0  0.82381  0.90739  0.46494  1.0000
  Fe  Fe122     1.0  0.59951  0.74799  0.25379  1.0000
  C   C712      1.0  0.90723  0.64428  0.41639  1.0000
  H   H707      1.0  0.62316  0.86439  0.32765  1.0000
  N   N59       1.0  0.69361  0.78786  0.36794  1.0000
  C   C713      1.0  0.71121  0.79667  0.34625  1.0000
  C   C714      1.0  0.66523  0.76128  0.36788  1.0000
  C   C715      1.0  0.70012  0.77911  0.32354  1.0000
  C   C716      1.0  0.65331  0.74332  0.34545  1.0000
  C   C717      1.0  0.67087  0.75240  0.32315  1.0000
  C   C718      1.0  0.70571  0.80674  0.39143  1.0000
  H   H708      1.0  0.73347  0.81807  0.34624  1.0000
  H   H709      1.0  0.65127  0.75430  0.38507  1.0000
  C   C719      1.0  0.63452  0.96584  0.43579  1.0000
  H   H710      1.0  0.63020  0.72306  0.34513  1.0000
  C   C720      1.0  0.58596  0.82701  0.30611  1.0000
  H   H711      1.0  0.68659  0.80312  0.40511  1.0000
  H   H712      1.0  0.72238  0.80044  0.40081  1.0000
  H   H713      1.0  0.71785  0.83227  0.38740  1.0000
  C   C721      1.0  0.74345  0.81637  0.48193  1.0000
  H   H714      1.0  0.92591  0.70674  0.47913  1.0000
  H   H715      1.0  0.79178  0.52141  0.36437  1.0000
  C   C722      1.0  0.97500  0.50087  0.47825  1.0000
  H   H716      1.0  0.64165  0.95029  0.36398  1.0000
  C   C723      1.0  0.95729  0.75283  0.46530  1.0000
  H   H717      1.0  0.94803  0.68972  0.42199  1.0000
  C   C724      1.0  0.93802  0.66721  0.41164  1.0000
  C   C725      1.0  0.62008  0.56923  0.24636  1.0000
  C   C726      1.0  0.74420  0.78751  0.48310  1.0000
  C   C727      1.0  0.63654  0.58742  0.26745  1.0000
  S   S242      1.0  0.94408  0.50481  0.46365  1.0000
  C   C728      1.0  0.95585  0.66091  0.39343  1.0000
  H   H718      1.0  0.64842  0.57888  0.27989  1.0000
  S   S243      1.0  0.81628  0.97678  0.44727  1.0000
  H   H719      1.0  0.55384  0.79195  0.27966  1.0000
  H   H720      1.0  0.57161  0.81647  0.32263  1.0000
  C   C729      1.0  0.86252  0.59172  0.40841  1.0000
  C   C730      1.0  0.83453  0.83615  0.47441  1.0000
  C   C731      1.0  0.57756  0.49356  0.33018  1.0000
  H   H721      1.0  0.81275  0.57134  0.24002  1.0000
  H   H722      1.0  0.95647  0.62666  0.36613  1.0000
  H   H723      1.0  0.62500  0.59024  0.47767  1.0000
  C   C732      1.0  0.57596  0.81324  0.28202  1.0000
  C   C733      1.0  0.90765  0.73934  0.48754  1.0000
  H   H724      1.0  0.98586  0.60708  0.42061  1.0000
  C   C734      1.0  0.83559  0.92444  0.48761  1.0000
  S   S244      1.0  0.74503  0.55446  0.24828  1.0000
  H   H725      1.0  0.85435  0.83944  0.46171  1.0000
  H   H726      1.0  0.97984  0.67837  0.38968  1.0000
  H   H727      1.0  0.62468  0.65085  0.25936  1.0000
  H   H728      1.0  0.50373  0.53448  0.46504  1.0000
  C   C735      1.0  0.64340  0.86549  0.24152  1.0000
  H   H729      1.0  0.61888  0.54629  0.24261  1.0000
  C   C736      1.0  0.77752  0.65411  0.68974  1.0000
  Fe  Fe123     1.0  0.55582  0.58308  0.60443  1.0000
  S   S245      1.0  0.55036  0.61221  0.57471  1.0000
  S   S246      1.0  0.60545  0.59325  0.61434  1.0000
  Fe  Fe124     1.0  0.51517  0.61512  0.60149  1.0000
  S   S247      1.0  0.51474  0.66209  0.60808  1.0000
  Fe  Fe125     1.0  0.51148  0.56637  0.55976  1.0000
  C   C737      1.0  0.51138  0.69249  0.69250  1.0000
  S   S248      1.0  0.52209  0.58781  0.63242  1.0000
  S   S249      1.0  0.51891  0.53691  0.58803  1.0000
  Fe  Fe126     1.0  0.80673  0.75689  0.54703  1.0000
  S   S250      1.0  0.79547  0.72158  0.51487  1.0000
  S   S251      1.0  0.80343  0.80243  0.54248  1.0000
  Fe  Fe127     1.0  0.81917  0.71484  0.58408  1.0000
  S   S252      1.0  0.80749  0.67675  0.55401  1.0000
  S   S253      1.0  0.83619  0.71337  0.62418  1.0000
  Fe  Fe128     1.0  0.83712  0.71640  0.52787  1.0000
  S   S254      1.0  0.56568  0.80521  0.73208  1.0000
  Fe  Fe129     1.0  0.76733  0.68624  0.54429  1.0000
  S   S255      1.0  0.71640  0.65305  0.53444  1.0000
  S   S256      1.0  0.85043  0.75419  0.55844  1.0000
  S   S257      1.0  0.77706  0.72188  0.57597  1.0000
  H   H730      1.0  0.53247  0.73889  0.70975  1.0000
  Fe  Fe130     1.0  0.84154  0.59379  0.72474  1.0000
  S   S258      1.0  0.82269  0.59479  0.68541  1.0000
  Fe  Fe131     1.0  0.63159  0.88463  0.71024  1.0000
  S   S259      1.0  0.66906  0.93304  0.69947  1.0000
  Fe  Fe132     1.0  0.60191  0.81272  0.70202  1.0000
  C   C738      1.0  0.70866  0.73115  0.54999  1.0000
  S   S260      1.0  0.60499  0.76946  0.68605  1.0000
  Fe  Fe133     1.0  0.56139  0.84492  0.71370  1.0000
  S   S261      1.0  0.51363  0.84160  0.70504  1.0000
  S   S262      1.0  0.59561  0.85043  0.68249  1.0000
  C   C739      1.0  0.63170  0.98571  0.70479  1.0000
  C   C740      1.0  0.77681  0.83480  0.51941  1.0000
  C   C741      1.0  0.68233  0.96422  0.72243  1.0000
  C   C742      1.0  0.50935  0.92077  0.51174  1.0000
  H   H731      1.0  0.75357  0.60376  0.68488  1.0000
  H   H732      1.0  0.57122  0.56739  0.49604  1.0000
  N   N60       1.0  0.77022  0.61803  0.72279  1.0000
  H   H733      1.0  0.65646  0.56224  0.54311  1.0000
  C   C743      1.0  0.76566  0.62336  0.69824  1.0000
  C   C744      1.0  0.53918  0.98453  0.57534  1.0000
  H   H734      1.0  0.90548  0.73751  0.55382  1.0000
  C   C745      1.0  0.83420  0.68017  0.63984  1.0000
  C   C746      1.0  0.81629  0.64933  0.63037  1.0000
  C   C747      1.0  0.81364  0.62359  0.64431  1.0000
  C   C748      1.0  0.82888  0.62826  0.66782  1.0000
  C   C749      1.0  0.84724  0.65913  0.67710  1.0000
  C   C750      1.0  0.84982  0.68487  0.66319  1.0000
  H   H735      1.0  0.80412  0.64527  0.61247  1.0000
  H   H736      1.0  0.79944  0.59986  0.63688  1.0000
  H   H737      1.0  0.85912  0.66317  0.69513  1.0000
  H   H738      1.0  0.86378  0.70860  0.67070  1.0000
  C   C751      1.0  0.63670  0.61257  0.59274  1.0000
  C   C752      1.0  0.63153  0.62024  0.56851  1.0000
  C   C753      1.0  0.65649  0.63402  0.55127  1.0000
  C   C754      1.0  0.68690  0.64022  0.55798  1.0000
  C   C755      1.0  0.69240  0.63359  0.58249  1.0000
  C   C756      1.0  0.66733  0.61965  0.59974  1.0000
  H   H739      1.0  0.60820  0.61481  0.56270  1.0000
  H   H740      1.0  0.65205  0.63917  0.53239  1.0000
  H   H741      1.0  0.71574  0.63811  0.58783  1.0000
  H   H742      1.0  0.67161  0.61383  0.61844  1.0000
  C   C757      1.0  0.54244  0.69288  0.62780  1.0000
  C   C758      1.0  0.54278  0.72236  0.62879  1.0000
  C   C759      1.0  0.56221  0.74635  0.64614  1.0000
  C   C760      1.0  0.58164  0.74109  0.66260  1.0000
  C   C761      1.0  0.58218  0.71204  0.66091  1.0000
  C   C762      1.0  0.56259  0.68799  0.64371  1.0000
  C   C763      1.0  0.50365  0.51876  0.50288  1.0000
  H   H743      1.0  0.56208  0.76881  0.64685  1.0000
  H   H744      1.0  0.59731  0.70785  0.67344  1.0000
  H   H745      1.0  0.56251  0.66541  0.64323  1.0000
  C   C764      1.0  0.60150  0.53554  0.56736  1.0000
  C   C765      1.0  0.95682  0.78446  0.53779  1.0000
  H   H746      1.0  0.94672  0.59943  0.70736  1.0000
  C   C766      1.0  0.50716  0.86541  0.68308  1.0000
  C   C767      1.0  0.75712  0.58551  0.73110  1.0000
  C   C768      1.0  0.64412  0.57725  0.50914  1.0000
  C   C769      1.0  0.97442  0.74610  0.53120  1.0000
  C   C770      1.0  0.79466  0.67944  0.70639  1.0000
  C   C771      1.0  0.53504  0.95055  0.50959  1.0000
  H   H747      1.0  0.85486  0.87349  0.51613  1.0000
  C   C772      1.0  0.77847  0.80635  0.52002  1.0000
  N   N61       1.0  0.49951  0.73381  0.68111  1.0000
  H   H748      1.0  0.59419  0.51006  0.56448  1.0000
  H   H749      1.0  0.91576  0.70769  0.54444  1.0000
  H   H750      1.0  0.70424  0.74532  0.53590  1.0000
  H   H751      1.0  0.55537  0.89203  0.67194  1.0000
  H   H752      1.0  0.71313  0.71309  0.53959  1.0000
  H   H753      1.0  0.54536  0.92641  0.64326  1.0000
  N   N62       1.0  0.95257  0.75447  0.54042  1.0000
  H   H754      1.0  0.76271  0.76053  0.50211  1.0000
  H   H755      1.0  0.93113  0.73007  0.57395  1.0000
  H   H756      1.0  0.50230  0.49589  0.53766  1.0000
  C   C773      1.0  0.49545  0.90398  0.64961  1.0000
  N   N63       1.0  0.60805  0.55084  0.54281  1.0000
  C   C774      1.0  0.84641  0.88308  0.50152  1.0000
  C   C775      1.0  0.84694  0.91223  0.50611  1.0000
  H   H757      1.0  0.58268  0.53841  0.57771  1.0000
  H   H758      1.0  0.76672  0.57244  0.71916  1.0000
  H   H759      1.0  0.50155  0.77166  0.70463  1.0000
  H   H760      1.0  0.77459  0.65826  0.67007  1.0000
  C   C776      1.0  0.96941  0.67711  0.72741  1.0000
  C   C777      1.0  0.50527  0.76652  0.68450  1.0000
  N   N64       1.0  0.68223  0.71581  0.56753  1.0000
  C   C778      1.0  0.68661  0.70426  0.58964  1.0000
  C   C779      1.0  0.65312  0.71181  0.56127  1.0000
  C   C780      1.0  0.66163  0.68884  0.60643  1.0000
  C   C781      1.0  0.62760  0.69642  0.57762  1.0000
  C   C782      1.0  0.63196  0.68489  0.60032  1.0000
  H   H761      1.0  0.73032  0.74761  0.56047  1.0000
  H   H762      1.0  0.70942  0.70647  0.59420  1.0000
  H   H763      1.0  0.64945  0.72044  0.54355  1.0000
  H   H764      1.0  0.66502  0.67921  0.62375  1.0000
  H   H765      1.0  0.60449  0.69322  0.57269  1.0000
  H   H766      1.0  0.61227  0.67244  0.61297  1.0000
  S   S263      1.0  0.50790  0.55451  0.51729  1.0000
  C   C783      1.0  0.53183  0.88884  0.66970  1.0000
  H   H767      1.0  0.52750  0.72645  0.61636  1.0000
  H   H768      1.0  0.56096  0.54256  0.53772  1.0000
  H   H769      1.0  0.62243  0.54648  0.57995  1.0000
  H   H770      1.0  0.64707  0.98694  0.68910  1.0000
  C   C784      1.0  0.52603  0.90819  0.65331  1.0000
  H   H771      1.0  0.59607  0.93955  0.69377  1.0000
  S   S264      1.0  0.87398  0.71054  0.50328  1.0000
  S   S265      1.0  0.64207  0.84779  0.72626  1.0000
  H   H772      1.0  0.75898  0.86213  0.49988  1.0000
  H   H773      1.0  0.83675  0.82569  0.49231  1.0000
  C   C785      1.0  0.92504  0.73137  0.55395  1.0000
  C   C786      1.0  0.49395  0.91189  0.53500  1.0000
  H   H774      1.0  0.78922  0.85316  0.53358  1.0000
  S   S266      1.0  0.88181  0.58390  0.73348  1.0000
  C   C787      1.0  0.58437  0.55210  0.52977  1.0000
  C   C788      1.0  0.59007  0.56620  0.50615  1.0000
  H   H775      1.0  0.93940  0.79104  0.54491  1.0000
  C   C789      1.0  0.60286  0.95884  0.70763  1.0000
  H   H776      1.0  0.85592  0.92517  0.52391  1.0000
  C   C790      1.0  0.97071  0.60543  0.71204  1.0000
  H   H777      1.0  0.94587  0.67199  0.72217  1.0000
  C   C791      1.0  0.76176  0.78257  0.50191  1.0000
  C   C792      1.0  0.50131  0.49370  0.51716  1.0000
  H   H778      1.0  0.70819  0.90405  0.73336  1.0000
  H   H779      1.0  0.48941  0.77174  0.67276  1.0000
  C   C793      1.0  0.55294  0.92896  0.72958  1.0000
  C   C794      1.0  0.75972  0.83998  0.50030  1.0000
  H   H780      1.0  0.52978  0.78292  0.67907  1.0000
  H   H781      1.0  0.53586  0.97211  0.59348  1.0000
  C   C795      1.0  0.63754  0.56282  0.53267  1.0000
  H   H782      1.0  0.53589  0.93115  0.71692  1.0000
  H   H783      1.0  0.97106  0.72235  0.53329  1.0000
  C   C796      1.0  0.50447  0.93304  0.55585  1.0000
  H   H784      1.0  0.80489  0.70333  0.69967  1.0000
  C   C797      1.0  0.51549  0.72321  0.69589  1.0000
  H   H785      1.0  0.83580  0.94704  0.49072  1.0000
  N   N65       1.0  0.52972  0.96216  0.55360  1.0000
  H   H786      1.0  0.52504  0.68462  0.70357  1.0000
  C   C798      1.0  0.54483  0.97117  0.53080  1.0000
  C   C799      1.0  0.97500  0.49878  0.50482  1.0000
  H   H787      1.0  0.54663  0.95802  0.49139  1.0000
  H   H788      1.0  0.50086  0.90492  0.49525  1.0000
  C   C800      1.0  0.49089  0.67263  0.67379  1.0000
  H   H789      1.0  0.75001  0.95937  0.73102  1.0000
  H   H790      1.0  0.49206  0.92618  0.57376  1.0000
  C   C801      1.0  0.62018  0.57890  0.49584  1.0000
  C   C802      1.0  0.78674  0.64274  0.73935  1.0000
  H   H791      1.0  0.66787  0.58785  0.50168  1.0000
  N   N66       1.0  0.97742  0.59562  0.73412  1.0000
  S   S267      1.0  0.48987  0.92982  0.62921  1.0000
  C   C803      1.0  0.79937  0.67379  0.73137  1.0000
  H   H792      1.0  0.95658  0.50013  0.51594  1.0000
  N   N67       1.0  0.58371  0.95677  0.72771  1.0000
  H   H793      1.0  0.73121  0.57358  0.72932  1.0000
  H   H794      1.0  0.89618  0.77739  0.49267  1.0000
  H   H795      1.0  0.55434  0.90718  0.72378  1.0000
  H   H796      1.0  0.48852  0.64922  0.67013  1.0000
  C   C804      1.0  0.98312  0.80675  0.52507  1.0000
  H   H797      1.0  0.98589  0.83015  0.52209  1.0000
  Fe  Fe134     1.0  0.82420  0.59569  0.78046  1.0000
  S   S268      1.0  0.65789  0.50195  0.85227  1.0000
  S   S269      1.0  0.78827  0.60309  0.80479  1.0000
  Fe  Fe135     1.0  0.89377  0.62159  0.76395  1.0000
  S   S270      1.0  0.94501  0.65270  0.77433  1.0000
  Fe  Fe136     1.0  0.85086  0.55135  0.76339  1.0000
  C   C805      1.0  0.78839  0.98375  0.94460  1.0000
  C   C806      1.0  0.97502  0.66901  0.75132  1.0000
  S   S271      1.0  0.86428  0.58848  0.79426  1.0000
  Fe  Fe137     1.0  0.59089  0.55531  0.87511  1.0000
  S   S272      1.0  0.61875  0.54274  0.90194  1.0000
  S   S273      1.0  0.60722  0.60623  0.86542  1.0000
  H   H798      1.0  0.75797  0.73237  0.93638  1.0000
  Fe  Fe138     1.0  0.61836  0.51014  0.86984  1.0000
  C   C807      1.0  0.80315  0.52272  0.82585  1.0000
  S   S274      1.0  0.54360  0.51870  0.88850  1.0000
  S   S275      1.0  0.59222  0.52420  0.84273  1.0000
  Fe  Fe139     1.0  0.73122  0.83793  0.94717  1.0000
  S   S276      1.0  0.76705  0.84627  0.91645  1.0000
  H   H799      1.0  0.78063  0.77128  0.98332  1.0000
  Fe  Fe140     1.0  0.69944  0.76633  0.93656  1.0000
  S   S277      1.0  0.73300  0.77046  0.90542  1.0000
  S   S278      1.0  0.66163  0.71820  0.94758  1.0000
  Fe  Fe141     1.0  0.76984  0.80437  0.93238  1.0000
  S   S279      1.0  0.81497  0.80047  0.93711  1.0000
  Fe  Fe142     1.0  0.72614  0.81126  0.89287  1.0000
  S   S280      1.0  0.71773  0.81475  0.85073  1.0000
  S   S281      1.0  0.73646  0.79827  0.96447  1.0000
  S   S282      1.0  0.69026  0.80493  0.92261  1.0000
  H   H800      1.0  0.95857  0.56316  0.76439  1.0000
  H   H801      1.0  0.79102  0.93624  0.90740  1.0000
  S   S283      1.0  0.61408  0.84124  0.79772  1.0000
  H   H802      1.0  0.96917  0.59484  0.97865  1.0000
  H   H803      1.0  0.75091  0.70675  0.96244  1.0000
  C   C808      1.0  0.68875  0.82234  0.83652  1.0000
  C   C809      1.0  0.68656  0.82128  0.80986  1.0000
  C   C810      1.0  0.66364  0.82655  0.79769  1.0000
  C   C811      1.0  0.64262  0.83310  0.81207  1.0000
  C   C812      1.0  0.64479  0.83416  0.83874  1.0000
  C   C813      1.0  0.66766  0.82878  0.85092  1.0000
  H   H804      1.0  0.70266  0.81622  0.79850  1.0000
  H   H805      1.0  0.66222  0.82541  0.77719  1.0000
  H   H806      1.0  0.62870  0.83926  0.85008  1.0000
  H   H807      1.0  0.66903  0.82979  0.87143  1.0000
  C   C814      1.0  0.62425  0.63603  0.88915  1.0000
  C   C815      1.0  0.64791  0.66572  0.88237  1.0000
  C   C816      1.0  0.65994  0.69091  0.90025  1.0000
  C   C817      1.0  0.64833  0.68662  0.92506  1.0000
  C   C818      1.0  0.62513  0.65673  0.93202  1.0000
  C   C819      1.0  0.61320  0.63143  0.91415  1.0000
  H   H808      1.0  0.65662  0.66938  0.86307  1.0000
  H   H809      1.0  0.67760  0.71377  0.89456  1.0000
  H   H810      1.0  0.61604  0.65322  0.95121  1.0000
  H   H811      1.0  0.59483  0.60863  0.91951  1.0000
  H   H812      1.0  0.65824  0.90685  0.81113  1.0000
  C   C820      1.0  0.52459  0.49116  0.97268  1.0000
  C   C821      1.0  0.75150  0.57448  0.81694  1.0000
  C   C822      1.0  0.73268  0.58472  0.83101  1.0000
  C   C823      1.0  0.70374  0.56294  0.84147  1.0000
  C   C824      1.0  0.69339  0.53052  0.83830  1.0000
  C   C825      1.0  0.71210  0.52029  0.82404  1.0000
  C   C826      1.0  0.74077  0.54207  0.81319  1.0000
  H   H813      1.0  0.74062  0.60969  0.83396  1.0000
  H   H814      1.0  0.68968  0.57123  0.85232  1.0000
  H   H815      1.0  0.68990  0.65896  0.95871  1.0000
  H   H816      1.0  0.75455  0.53375  0.80202  1.0000
  H   H817      1.0  0.80682  0.54716  0.82955  1.0000
  S   S284      1.0  0.85535  0.63350  0.75356  1.0000
  C   C827      1.0  0.50902  0.50759  0.96446  1.0000
  C   C828      1.0  0.69650  0.90957  0.77237  1.0000
  C   C829      1.0  0.95195  0.57706  0.75163  1.0000
  H   H818      1.0  0.95429  0.84171  0.95546  1.0000
  C   C830      1.0  0.86781  0.50338  0.86571  1.0000
  C   C831      1.0  0.74358  0.97123  0.76975  1.0000
  H   H819      1.0  0.51512  0.51892  0.94635  1.0000
  C   C832      1.0  0.82073  0.77809  0.96073  1.0000
  C   C833      1.0  0.84668  0.77220  0.95892  1.0000
  H   H820      1.0  0.72459  0.65688  0.87021  1.0000
  C   C834      1.0  0.68220  0.98468  0.76526  1.0000
  H   H821      1.0  0.86229  0.78058  0.94280  1.0000
  H   H822      1.0  0.80575  0.51943  0.80512  1.0000
  H   H823      1.0  0.65262  0.93676  0.75262  1.0000
  S   S285      1.0  0.72545  0.87813  0.96676  1.0000
  C   C835      1.0  0.89873  0.52214  0.80273  1.0000
  C   C836      1.0  0.91198  0.83985  0.97140  1.0000
  N   N68       1.0  0.70249  0.92980  0.79287  1.0000
  H   H824      1.0  0.90404  0.54607  0.79880  1.0000
  N   N69       1.0  0.61619  0.72030  0.87943  1.0000
  C   C837      1.0  0.59872  0.69062  0.86919  1.0000
  C   C838      1.0  0.63955  0.74302  0.86557  1.0000
  C   C839      1.0  0.60507  0.68279  0.84472  1.0000
  C   C840      1.0  0.64646  0.73604  0.84103  1.0000
  C   C841      1.0  0.62913  0.70570  0.83060  1.0000
  C   C842      1.0  0.60911  0.72814  0.90504  1.0000
  H   H825      1.0  0.58046  0.67245  0.88023  1.0000
  H   H826      1.0  0.65327  0.76666  0.87352  1.0000
  H   H827      1.0  0.59199  0.65884  0.83712  1.0000
  H   H828      1.0  0.66531  0.75406  0.83028  1.0000
  H   H829      1.0  0.63453  0.69989  0.81170  1.0000
  H   H830      1.0  0.59890  0.70707  0.91708  1.0000
  H   H831      1.0  0.63081  0.74548  0.91491  1.0000
  H   H832      1.0  0.59254  0.73812  0.90402  1.0000
  H   H833      1.0  0.81301  0.69329  0.74439  1.0000
  H   H834      1.0  0.88483  0.49836  0.87508  1.0000
  C   C843      1.0  0.59251  0.98111  0.74525  1.0000
  C   C844      1.0  0.72587  0.96023  0.79189  1.0000
  C   C845      1.0  0.80058  0.76681  0.98153  1.0000
  N   N70       1.0  0.72290  0.68433  0.93000  1.0000
  H   H835      1.0  0.68892  0.90076  0.82489  1.0000
  C   C846      1.0  0.69794  0.65840  0.93943  1.0000
  H   H836      1.0  0.75240  0.70453  0.89799  1.0000
  C   C847      1.0  0.91829  0.51629  0.81895  1.0000
  H   H837      1.0  0.66180  0.61079  0.93158  1.0000
  C   C848      1.0  0.73947  0.71227  0.94664  1.0000
  H   H838      1.0  0.67337  0.98080  0.78452  1.0000
  H   H839      1.0  0.72447  0.93352  0.98750  1.0000
  C   C849      1.0  0.85146  0.54043  0.85082  1.0000
  H   H840      1.0  0.79055  0.63854  0.75881  1.0000
  H   H841      1.0  0.57724  0.97972  0.76104  1.0000
  C   C850      1.0  0.71374  0.91979  0.74993  1.0000
  S   S286      1.0  0.84604  0.50316  0.77233  1.0000
  S   S287      1.0  0.80892  0.55653  0.75126  1.0000
  C   C851      1.0  0.68199  0.63111  0.92421  1.0000
  N   N71       1.0  0.82545  0.51625  0.83986  1.0000
  H   H842      1.0  0.72278  0.72019  0.95470  1.0000
  H   H843      1.0  0.54890  0.98101  0.94562  1.0000
  C   C852      1.0  0.71709  0.65709  0.88970  1.0000
  H   H844      1.0  0.75687  0.92550  0.92748  1.0000
  H   H845      1.0  0.68804  0.93775  0.83000  1.0000
  C   C853      1.0  0.82786  0.96894  0.95301  1.0000
  C   C854      1.0  0.69159  0.63055  0.89917  1.0000
  H   H846      1.0  0.54381  0.92567  0.74934  1.0000
  H   H847      1.0  0.85586  0.56461  0.84928  1.0000
  H   H848      1.0  0.67889  0.60976  0.88700  1.0000
  H   H849      1.0  0.73026  0.97662  0.80786  1.0000
  H   H850      1.0  0.76609  0.97860  0.93617  1.0000
  C   C855      1.0  0.93889  0.83594  0.97184  1.0000
  C   C856      1.0  0.87301  0.53436  0.86389  1.0000
  C   C857      1.0  0.73263  0.68395  0.90550  1.0000
  H   H851      1.0  0.93863  0.53591  0.82739  1.0000
  H   H852      1.0  0.90598  0.84830  0.95456  1.0000
  N   N72       1.0  0.79979  0.96249  0.94225  1.0000
  H   H853      1.0  0.83672  0.95194  0.95141  1.0000
  C   C858      1.0  0.78249  0.93316  0.92730  1.0000
  Fe  Fe143     1.0  0.57116  0.50389  0.91359  1.0000
  Fe  Fe144     1.0  0.60557  0.84222  0.75521  1.0000
  C   C859      1.0  0.68363  0.91838  0.81593  1.0000
  H   H854      1.0  0.89396  0.55357  0.87211  1.0000
  H   H855      1.0  0.67781  0.88554  0.77317  1.0000
  H   H856      1.0  0.78524  0.91359  0.93557  1.0000
  C   C860      1.0  0.85277  0.75571  0.97792  1.0000
  C   C861      1.0  0.87220  0.49699  0.79191  1.0000
  C   C862      1.0  0.67037  0.95967  0.74717  1.0000
  H   H857      1.0  0.87283  0.75137  0.97630  1.0000
  H   H858      1.0  0.76295  0.58434  0.75125  1.0000
  C   C863      1.0  0.73733  0.95086  0.74864  1.0000
  H   H859      1.0  0.77870  0.50651  0.83155  1.0000
  H   H860      1.0  0.94581  0.59300  0.76348  1.0000
  H   H861      1.0  0.70431  0.49531  0.82134  1.0000
  C   C864      1.0  0.75274  0.90953  0.98626  1.0000
  H   H862      1.0  0.56444  0.97435  0.98864  1.0000
  S   S288      1.0  0.59694  0.88105  0.74032  1.0000
  H   H863      1.0  0.93072  0.55991  0.74106  1.0000
  H   H864      1.0  0.78620  0.89190  0.98870  1.0000
