data_image0
_chemical_formula_structural       H2CH3FeSC2FeS2CFeS2FeS2CH2SFeCS3CHC2H2C8H4C6H5C4HCHCH2FeH4SHCNC6H8SC2HNCHCH2SH4CHCFeCH3SNCH2CS2NCH2FeC3H3C2FeCHFeS2FeSCS2HSCHCHFeS2HSCFe2HCFeSHSH3CH2C2SHCH3C6H4C6H4CHC5NC2FeH3C2H3CH2CNC6H3NHC2H4C2NHSCFeS2H2CH2FeHCHC3FeCFeS2HFeSCSFeC2H3FeS2FeS2FeS2FeSFeS3C6H4C3HC3HCHFeHC6H4CHCH5CH2CH3CH2CHCNH4CH2N2C2H3C2H2NCH2CHCSH2CHC2SC4NH2S2CH2CHCHNC2FeS2FeS2FeS2FeSFeS3CHFeS2FeH3CSHCHS2C3HC7H4C6H5CHFeHNC2HC2HNC2HCHCH3SHSH2C3H2C4H3C2NCHCHFeHCHCH3C2H2C3HNCHCSHFeHSHCH2FeSHFeSCFeSHFeSFeS2H2SHS2FeHSC2HS2CHSH2C3HC2HNCH3C7H2CHCNHCHSNSC9HSH4CSCFeH2SNC6H2FeH4CFeH2NCHCSCH3C2HCHC3FeHCH2C2SH7SCH2CNCHCHC2H2C2HCHCHFeS2HSH2FeSCS2FeSH2SNFeSFeSHFeCHSCSCHC4H4SHC4HCHSH2C6FeHCHCFeC7H4CS2CHCHC4HCHNCH2CHCH4NC2H2CHC2H4C2HCHCHCHC3HCH2FeH2CHCH2NS2CSHCHC3HC2SFeSHFeSCFeSFeSHS2FeS2H2SCFeS2CHC5H3C4HCHC5H4SC2HSCHCFeC2HC4NCH2C2HCHSNH2CHC2H2C3H2SHCHCNHCSFeH4CSH3C2H2C2H3CHCHSH2SCH3CH5C2HFeS2FeSCFeS2FeHSH2FeHS2FeHSH2SC4HCHSHCHC4H3C3SC2H2FeHC2HC6H4CFeCHCFeC2HC2HC3HC2HC3NC2SHSHCNHCH3C2H4CHSHCHSH2NC2H3CH6C4H4SH2NCNCHFeS2HSHSFeSNS2FeCSHCFeS2FeS2FeSFeCS2HCH3C6H4C6NH2C6H4CHC6H11FeNC6H3C2H3CSHC5HFeS2C2H2CHCNHCHCSH2C2HNC2H2SHCH2C2HC2H2CH5CH2CHFeS2CHCHCFeS2FeS2FeSFeCS2C2SH2FeS2C6H2CHC6H8C4FeC2H2C2HCSH2C2H4CFeNHC2H2C2HC4H4CSHCNH2CHCHCH3SCH2SHCHSNSH3FeCSC3HCHC2H2SCH2CH2S2FeHSCFeS2FeS2FeCFeS3FeS2FeS2CHCH2C7H4CHCHC6H4NC5H2C6H4FeH3CHC5HS3HCHCHC2HC2H2CH2CFeSH2CNH4CHNHCH3CHC2HCH5CNHNH4SC2H2CH3C2HFeS2FeS2FeSFeS3HC3FeSC3HFeS2H2C3SH4C8H2C6H4CSHC8H4CNC6HCH2CH6CHNC2HNC2SHSH2FeHCSHCH4CHCH4FeHSH2CHCHCFeS2HFeS2FeS2FeSFeS3FeS2HFeHSHC2HCH3CSHC6H4C6H4CH5NHC3H2C2SHN2HC3HC3H2C2H2CHC2H2C3HC3HC2H4CH2C2NHC3H3CFeNFeS2FeS2FeSFeS3CS2HFeS2HCSC2H2C4NCH3C3H2C6H4C6H3SHCH3C3H2CHCHC2H2C2HCHCH2CH2CFeNFeSHCNC2HNHCH3CH3C2HCH2CH2FeNHCH2FeHCHFeS2CFeHCSFeS2CHFeSH2SFeCS2HFeHS4HC6H3C6H6C6H4C3H6C6SH2C2FeNC3HC3NC6H9CH2NHC3HCS2C2H2C2FeHSNHCHCH2FeHNHCSCHFeS2FeSHSH3FeS2HCS2FeCFeS2HC2SHSHC6H3C7H4C6H5C2HC3H2C2H2C2HCNH2SC2HFeNCH2C2HNH2C3HNCSH2SH2CH2FeHNH2SFeHC3HCSH3CFeHCHCSC3H
_chemical_formula_sum              "H864 C864 Fe144 S288 N72"
_cell_length_a       38.9842
_cell_length_b       39.3023
_cell_length_c       78.663
_cell_angle_alpha    88.4471
_cell_angle_beta     90.6041
_cell_angle_gamma    119.816

_space_group_name_H-M_alt    "P 1"
_space_group_IT_number       1

loop_
  _space_group_symop_operation_xyz
  'x, y, z'

loop_
  _atom_site_type_symbol
  _atom_site_label
  _atom_site_symmetry_multiplicity
  _atom_site_fract_x
  _atom_site_fract_y
  _atom_site_fract_z
  _atom_site_occupancy
  H   H1        1.0  0.10294  0.06249  0.09401  1.0000
  H   H2        1.0  0.36200  0.40715  0.99623  1.0000
  C   C1        1.0  0.15151  0.35297  0.04089  1.0000
  H   H3        1.0  0.13780  0.27158  0.07631  1.0000
  H   H4        1.0  0.04364  0.09089  0.09871  1.0000
  H   H5        1.0  0.07377  0.28969  0.01699  1.0000
  Fe  Fe1       1.0  0.13654  0.47389  0.02567  1.0000
  S   S1        1.0  0.13005  0.43187  0.04728  1.0000
  C   C2        1.0  0.05111  0.32138  0.06319  1.0000
  C   C3        1.0  0.08722  0.05730  0.10634  1.0000
  Fe  Fe2       1.0  0.18627  0.07496  0.07367  1.0000
  S   S2        1.0  0.18234  0.06367  0.10186  1.0000
  S   S3        1.0  0.16186  0.10893  0.05953  1.0000
  C   C4        1.0  0.37607  0.43189  0.98734  1.0000
  Fe  Fe3       1.0  0.23993  0.06440  0.09867  1.0000
  S   S4        1.0  0.28832  0.08957  0.11845  1.0000
  S   S5        1.0  0.24645  0.08077  0.07071  1.0000
  Fe  Fe4       1.0  0.43132  0.29364  0.15075  1.0000
  S   S6        1.0  0.42035  0.26409  0.17643  1.0000
  S   S7        1.0  0.38600  0.27229  0.12975  1.0000
  C   C5        1.0  0.10961  0.26393  0.06972  1.0000
  H   H6        1.0  0.08948  0.26648  0.07883  1.0000
  H   H7        1.0  0.28440  0.50839  0.19983  1.0000
  S   S8        1.0  0.13937  0.46240  0.99807  1.0000
  Fe  Fe5       1.0  0.44748  0.32490  0.18665  1.0000
  C   C6        1.0  0.50176  0.03068  0.01253  1.0000
  S   S9        1.0  0.08474  0.18973  0.10114  1.0000
  S   S10       1.0  0.45375  0.35382  0.16108  1.0000
  S   S11       1.0  0.49171  0.30089  0.14753  1.0000
  C   C7        1.0  0.43993  0.19761  0.12319  1.0000
  H   H8        1.0  0.09631  0.23276  0.06613  1.0000
  C   C8        1.0  0.40395  0.42762  0.19775  1.0000
  C   C9        1.0  0.41488  0.39858  0.19677  1.0000
  H   H9        1.0  0.40765  0.44631  0.18676  1.0000
  H   H10       1.0  0.42674  0.39494  0.18505  1.0000
  C   C10       1.0  0.03001  0.33136  0.03537  1.0000
  C   C11       1.0  0.45572  0.19483  0.13887  1.0000
  C   C12       1.0  0.31110  0.13995  0.12259  1.0000
  C   C13       1.0  0.30737  0.16609  0.11135  1.0000
  C   C14       1.0  0.32999  0.20671  0.11384  1.0000
  C   C15       1.0  0.35651  0.22128  0.12747  1.0000
  C   C16       1.0  0.35915  0.19505  0.13903  1.0000
  C   C17       1.0  0.33626  0.15449  0.13665  1.0000
  H   H11       1.0  0.28799  0.15510  0.10047  1.0000
  H   H12       1.0  0.32762  0.22690  0.10492  1.0000
  H   H13       1.0  0.37932  0.20594  0.14963  1.0000
  H   H14       1.0  0.33894  0.13433  0.14547  1.0000
  C   C18       1.0  0.10631  0.16758  0.08945  1.0000
  C   C19       1.0  0.09354  0.15445  0.07301  1.0000
  C   C20       1.0  0.11153  0.13739  0.06384  1.0000
  C   C21       1.0  0.14135  0.13196  0.07125  1.0000
  C   C22       1.0  0.15392  0.14467  0.08777  1.0000
  C   C23       1.0  0.13673  0.16289  0.09676  1.0000
  H   H15       1.0  0.07039  0.15808  0.06719  1.0000
  H   H16       1.0  0.10231  0.12838  0.05093  1.0000
  H   H17       1.0  0.17734  0.14109  0.09348  1.0000
  H   H18       1.0  0.14689  0.17320  0.10945  1.0000
  H   H19       1.0  0.12882  0.35895  0.01660  1.0000
  C   C24       1.0  0.09506  0.30028  0.02728  1.0000
  C   C25       1.0  0.44202  0.15822  0.14682  1.0000
  C   C26       1.0  0.08763  0.38493  0.04842  1.0000
  C   C27       1.0  0.06109  0.37050  0.03486  1.0000
  H   H20       1.0  0.45043  0.22636  0.11724  1.0000
  C   C28       1.0  0.39545  0.16822  0.09906  1.0000
  H   H21       1.0  0.46976  0.45706  0.98691  1.0000
  C   C29       1.0  0.08212  0.36049  0.06269  1.0000
  H   H22       1.0  0.06532  0.38906  0.02377  1.0000
  H   H23       1.0  0.39224  0.19481  0.09841  1.0000
  Fe  Fe6       1.0  0.10164  0.49058  0.99413  1.0000
  H   H24       1.0  0.06515  0.24627  0.04178  1.0000
  H   H25       1.0  0.40165  0.09611  0.14512  1.0000
  H   H26       1.0  0.41559  0.17007  0.08876  1.0000
  H   H27       1.0  0.51240  0.45513  0.19486  1.0000
  S   S12       1.0  0.09558  0.49815  0.02198  1.0000
  H   H28       1.0  0.16526  0.33905  0.06568  1.0000
  C   C30       1.0  0.12587  0.33909  0.02707  1.0000
  N   N1        1.0  0.33287  0.28600  0.16568  1.0000
  C   C31       1.0  0.34144  0.29065  0.18265  1.0000
  C   C32       1.0  0.31514  0.24943  0.15892  1.0000
  C   C33       1.0  0.33404  0.25845  0.19318  1.0000
  C   C34       1.0  0.30739  0.21655  0.16905  1.0000
  C   C35       1.0  0.31715  0.22121  0.18628  1.0000
  C   C36       1.0  0.34115  0.32015  0.15481  1.0000
  H   H29       1.0  0.35462  0.31946  0.18813  1.0000
  H   H30       1.0  0.30780  0.24566  0.14550  1.0000
  H   H31       1.0  0.34225  0.26270  0.20652  1.0000
  H   H32       1.0  0.29451  0.18781  0.16347  1.0000
  H   H33       1.0  0.31199  0.19610  0.19424  1.0000
  H   H34       1.0  0.36550  0.14273  0.09682  1.0000
  H   H35       1.0  0.34984  0.31684  0.14178  1.0000
  H   H36       1.0  0.36626  0.34747  0.15983  1.0000
  S   S13       1.0  0.42312  0.33716  0.21027  1.0000
  C   C37       1.0  0.39773  0.12847  0.12323  1.0000
  C   C38       1.0  0.14603  0.32765  0.05475  1.0000
  H   H37       1.0  0.37444  0.10238  0.11737  1.0000
  N   N2        1.0  0.11604  0.28948  0.05475  1.0000
  C   C39       1.0  0.41281  0.12473  0.13898  1.0000
  H   H38       1.0  0.45403  0.15605  0.15908  1.0000
  C   C40       1.0  0.38490  0.46922  0.99226  1.0000
  H   H39       1.0  0.49461  0.40329  0.19404  1.0000
  H   H40       1.0  0.43853  0.02367  0.98111  1.0000
  S   S14       1.0  0.04866  0.45952  0.97687  1.0000
  H   H41       1.0  0.17425  0.38368  0.04119  1.0000
  H   H42       1.0  0.02633  0.07190  0.05473  1.0000
  H   H43       1.0  0.04758  0.30259  0.07410  1.0000
  H   H44       1.0  0.37747  0.47378  0.00495  1.0000
  C   C41       1.0  0.02538  0.30651  0.04940  1.0000
  H   H45       1.0  0.08046  0.05551  0.05355  1.0000
  C   C42       1.0  0.09034  0.27581  0.04137  1.0000
  Fe  Fe7       1.0  0.48263  0.27556  0.17410  1.0000
  C   C43       1.0  0.41032  0.37442  0.21096  1.0000
  H   H46       1.0  0.50970  0.04821  0.98599  1.0000
  H   H47       1.0  0.31454  0.32351  0.15398  1.0000
  H   H48       1.0  0.09549  0.03933  0.11478  1.0000
  S   S15       1.0  0.49596  0.22804  0.18253  1.0000
  N   N3        1.0  0.41107  0.16467  0.11564  1.0000
  C   C44       1.0  0.38816  0.43259  0.21285  1.0000
  H   H49       1.0  0.47830  0.22087  0.14494  1.0000
  H   H50       1.0  0.10250  0.37163  0.07324  1.0000
  C   C45       1.0  0.04974  0.03252  0.05300  1.0000
  S   S16       1.0  0.37486  0.46946  0.21351  1.0000
  S   S17       1.0  0.50883  0.33348  0.18691  1.0000
  N   N4        1.0  0.04449  0.03752  0.10343  1.0000
  C   C46       1.0  0.44851  0.02112  0.99377  1.0000
  H   H51       1.0  0.32023  0.49290  0.20006  1.0000
  H   H52       1.0  0.09771  0.08583  0.11259  1.0000
  Fe  Fe8       1.0  0.51350  0.35822  0.16047  1.0000
  C   C47       1.0  0.48882  0.03506  0.99645  1.0000
  C   C48       1.0  0.48675  0.47724  0.97667  1.0000
  C   C49       1.0  0.40392  0.50096  0.98076  1.0000
  H   H53       1.0  0.30905  0.50789  0.02697  1.0000
  H   H54       1.0  0.31040  0.51145  0.18039  1.0000
  H   H55       1.0  0.25183  0.50774  0.01263  1.0000
  C   C50       1.0  0.02662  0.05905  0.09930  1.0000
  C   C51       1.0  0.31335  0.51503  0.19436  1.0000
  Fe  Fe9       1.0  0.02619  0.18223  0.09222  1.0000
  C   C52       1.0  0.01945  0.04166  0.05362  1.0000
  H   H56       1.0  0.02089  0.42287  0.01644  1.0000
  Fe  Fe10      1.0  0.05943  0.24623  0.31880  1.0000
  S   S18       1.0  0.08390  0.25419  0.34519  1.0000
  S   S19       1.0  0.08178  0.29365  0.29823  1.0000
  Fe  Fe11      1.0  0.07756  0.19458  0.34241  1.0000
  S   S20       1.0  0.12500  0.18196  0.35210  1.0000
  C   C53       1.0  0.33059  0.06754  0.36123  1.0000
  S   S21       1.0  0.05834  0.18937  0.31527  1.0000
  S   S22       1.0  0.17104  0.07316  0.31154  1.0000
  H   H57       1.0  0.05029  0.47192  0.46144  1.0000
  S   S23       1.0  0.23735  0.02508  0.32583  1.0000
  C   C54       1.0  0.24875  0.29877  0.29755  1.0000
  H   H58       1.0  0.31437  0.06591  0.34975  1.0000
  C   C55       1.0  0.20416  0.25000  0.31784  1.0000
  H   H59       1.0  0.44983  0.19645  0.40213  1.0000
  Fe  Fe12      1.0  0.47970  0.13941  0.40150  1.0000
  S   S24       1.0  0.44347  0.13203  0.37773  1.0000
  S   S25       1.0  0.46018  0.14185  0.42800  1.0000
  H   H60       1.0  0.08527  0.06796  0.34545  1.0000
  S   S26       1.0  0.36019  0.47467  0.26469  1.0000
  C   C56       1.0  0.08012  0.34036  0.33634  1.0000
  Fe  Fe13      1.0  0.18088  0.02763  0.32532  1.0000
  Fe  Fe14      1.0  0.49138  0.10852  0.43552  1.0000
  H   H61       1.0  0.14331  0.21913  0.31048  1.0000
  C   C57       1.0  0.48645  0.03047  0.45839  1.0000
  Fe  Fe15      1.0  0.29429  0.44720  0.26866  1.0000
  S   S27       1.0  0.26669  0.39686  0.28797  1.0000
  H   H62       1.0  0.39080  0.36074  0.23706  1.0000
  S   S28       1.0  0.28014  0.44521  0.24069  1.0000
  H   H63       1.0  0.26679  0.28655  0.32188  1.0000
  H   H64       1.0  0.37131  0.41190  0.23868  1.0000
  H   H65       1.0  0.31669  0.02933  0.40151  1.0000
  C   C58       1.0  0.08343  0.34447  0.35397  1.0000
  H   H66       1.0  0.48537  0.35975  0.43012  1.0000
  H   H67       1.0  0.31209  0.13866  0.36689  1.0000
  C   C59       1.0  0.39283  0.09662  0.37690  1.0000
  C   C60       1.0  0.37162  0.09343  0.36191  1.0000
  S   S29       1.0  0.46529  0.06066  0.45586  1.0000
  H   H68       1.0  0.09133  0.37996  0.38449  1.0000
  C   C61       1.0  0.37299  0.07306  0.39109  1.0000
  H   H69       1.0  0.38691  0.11161  0.35089  1.0000
  H   H70       1.0  0.05846  0.32761  0.38732  1.0000
  H   H71       1.0  0.38912  0.07521  0.40267  1.0000
  C   C62       1.0  0.13653  0.15076  0.34086  1.0000
  C   C63       1.0  0.16033  0.13731  0.34861  1.0000
  C   C64       1.0  0.17033  0.11264  0.33990  1.0000
  C   C65       1.0  0.15758  0.10237  0.32318  1.0000
  C   C66       1.0  0.13392  0.11593  0.31541  1.0000
  C   C67       1.0  0.12284  0.13949  0.32432  1.0000
  H   H72       1.0  0.17091  0.14583  0.36143  1.0000
  H   H73       1.0  0.18866  0.10236  0.34596  1.0000
  H   H74       1.0  0.12379  0.10783  0.30251  1.0000
  H   H75       1.0  0.10394  0.14901  0.31832  1.0000
  C   C68       1.0  0.13314  0.32538  0.29637  1.0000
  C   C69       1.0  0.15909  0.32467  0.30858  1.0000
  C   C70       1.0  0.20007  0.34854  0.30632  1.0000
  C   C71       1.0  0.21537  0.37273  0.29172  1.0000
  C   C72       1.0  0.18941  0.37433  0.27975  1.0000
  C   C73       1.0  0.14834  0.35077  0.28212  1.0000
  H   H76       1.0  0.14771  0.30526  0.31962  1.0000
  H   H77       1.0  0.22007  0.34744  0.31567  1.0000
  H   H78       1.0  0.20098  0.39291  0.26846  1.0000
  H   H79       1.0  0.12835  0.35153  0.27267  1.0000
  C   C74       1.0  0.50640  0.02517  0.44497  1.0000
  H   H80       1.0  0.19861  0.23442  0.33003  1.0000
  C   C75       1.0  0.14594  0.25195  0.28004  1.0000
  C   C76       1.0  0.47795  0.50206  0.46247  1.0000
  C   C77       1.0  0.05394  0.04708  0.34526  1.0000
  C   C78       1.0  0.39451  0.37936  0.22604  1.0000
  C   C79       1.0  0.04930  0.34183  0.32785  1.0000
  N   N5        1.0  0.05731  0.35089  0.36287  1.0000
  C   C80       1.0  0.38341  0.40830  0.22699  1.0000
  C   C81       1.0  0.48123  0.38576  0.43034  1.0000
  Fe  Fe16      1.0  0.34609  0.47678  0.23704  1.0000
  H   H81       1.0  0.15188  0.27752  0.27161  1.0000
  H   H82       1.0  0.47103  0.47492  0.43829  1.0000
  H   H83       1.0  0.43697  0.23419  0.39764  1.0000
  C   C82       1.0  0.46861  0.40434  0.45830  1.0000
  C   C83       1.0  0.21676  0.28918  0.28667  1.0000
  H   H84       1.0  0.11879  0.24467  0.28738  1.0000
  H   H85       1.0  0.44961  0.37622  0.42799  1.0000
  H   H86       1.0  0.44675  0.20970  0.38068  1.0000
  C   C84       1.0  0.17285  0.24142  0.30670  1.0000
  H   H87       1.0  0.51107  0.26164  0.41069  1.0000
  H   H88       1.0  0.10101  0.33549  0.32932  1.0000
  C   C85       1.0  0.24232  0.27904  0.31324  1.0000
  N   N6        1.0  0.39106  0.17601  0.39326  1.0000
  C   C86       1.0  0.37339  0.15429  0.40770  1.0000
  C   C87       1.0  0.36935  0.17119  0.37883  1.0000
  C   C88       1.0  0.33312  0.12617  0.40780  1.0000
  C   C89       1.0  0.32899  0.14343  0.37850  1.0000
  C   C90       1.0  0.31089  0.12065  0.39307  1.0000
  C   C91       1.0  0.43314  0.20575  0.39347  1.0000
  H   H89       1.0  0.39060  0.15809  0.41914  1.0000
  H   H90       1.0  0.38342  0.18811  0.36733  1.0000
  H   H91       1.0  0.31945  0.10806  0.41909  1.0000
  N   N7        1.0  0.17928  0.26134  0.29147  1.0000
  H   H92       1.0  0.22197  0.30555  0.27473  1.0000
  C   C92       1.0  0.33200  0.04711  0.39040  1.0000
  C   C93       1.0  0.06175  0.35508  0.38135  1.0000
  H   H93       1.0  0.10681  0.34211  0.36053  1.0000
  H   H94       1.0  0.27806  0.32229  0.29400  1.0000
  H   H95       1.0  0.27995  0.09793  0.39277  1.0000
  H   H96       1.0  0.14007  0.22665  0.27214  1.0000
  C   C94       1.0  0.49192  0.49449  0.44746  1.0000
  C   C95       1.0  0.31061  0.04464  0.37556  1.0000
  N   N8        1.0  0.49496  0.40544  0.44661  1.0000
  H   H97       1.0  0.49866  0.40604  0.41965  1.0000
  S   S30       1.0  0.42679  0.47598  0.46695  1.0000
  C   C96       1.0  0.03115  0.48414  0.46329  1.0000
  Fe  Fe17      1.0  0.28744  0.50501  0.24453  1.0000
  S   S31       1.0  0.29589  0.50444  0.27273  1.0000
  S   S32       1.0  0.50657  0.10198  0.40878  1.0000
  H   H98       1.0  0.04602  0.33768  0.31420  1.0000
  H   H99       1.0  0.09796  0.02263  0.33162  1.0000
  C   C97       1.0  0.02737  0.35314  0.35462  1.0000
  H   H100      1.0  0.43724  0.38989  0.45554  1.0000
  H   H101      1.0  0.03815  0.08929  0.35381  1.0000
  Fe  Fe18      1.0  0.02025  0.22192  0.35355  1.0000
  H   H102      1.0  0.03898  0.36049  0.38706  1.0000
  C   C98       1.0  0.02736  0.05915  0.35018  1.0000
  H   H103      1.0  0.50929  0.04001  0.43285  1.0000
  C   C99       1.0  0.02268  0.34826  0.33702  1.0000
  C   C100      1.0  0.48191  0.42345  0.47375  1.0000
  C   C101      1.0  0.22956  0.41650  0.49831  1.0000
  Fe  Fe19      1.0  0.40318  0.49649  0.48824  1.0000
  C   C102      1.0  0.20722  0.47229  0.53005  1.0000
  Fe  Fe20      1.0  0.45045  0.13650  0.68814  1.0000
  S   S33       1.0  0.45648  0.11994  0.66177  1.0000
  S   S34       1.0  0.41679  0.09546  0.71025  1.0000
  H   H104      1.0  0.16740  0.04965  0.59850  1.0000
  Fe  Fe21      1.0  0.44399  0.16775  0.65321  1.0000
  S   S35       1.0  0.40307  0.15124  0.63059  1.0000
  C   C103      1.0  0.33558  0.27741  0.57938  1.0000
  S   S36       1.0  0.43342  0.18121  0.67961  1.0000
  Fe  Fe22      1.0  0.33777  0.51520  0.49608  1.0000
  C   C104      1.0  0.39870  0.04453  0.70954  1.0000
  C   C105      1.0  0.30901  0.11388  0.66007  1.0000
  H   H105      1.0  0.16490  0.25045  0.56647  1.0000
  H   H106      1.0  0.39012  0.33318  0.61164  1.0000
  H   H107      1.0  0.42059  0.04571  0.68439  1.0000
  Fe  Fe23      1.0  0.36227  0.47361  0.52282  1.0000
  S   S37       1.0  0.33995  0.43353  0.54628  1.0000
  S   S38       1.0  0.33938  0.45876  0.49619  1.0000
  Fe  Fe24      1.0  0.23648  0.18914  0.59943  1.0000
  S   S39       1.0  0.24479  0.17858  0.57218  1.0000
  S   S40       1.0  0.28478  0.21617  0.61908  1.0000
  Fe  Fe25      1.0  0.15069  0.16740  0.59415  1.0000
  S   S41       1.0  0.15249  0.15595  0.56664  1.0000
  S   S42       1.0  0.09635  0.16086  0.60712  1.0000
  Fe  Fe26      1.0  0.18472  0.12488  0.57536  1.0000
  S   S43       1.0  0.16381  0.06725  0.56265  1.0000
  Fe  Fe27      1.0  0.21165  0.21053  0.56597  1.0000
  S   S44       1.0  0.22368  0.25015  0.54278  1.0000
  S   S45       1.0  0.17904  0.13262  0.60316  1.0000
  S   S46       1.0  0.20747  0.22497  0.59291  1.0000
  C   C106      1.0  0.30573  0.38302  0.54500  1.0000
  C   C107      1.0  0.29050  0.36070  0.56009  1.0000
  C   C108      1.0  0.26493  0.31993  0.55961  1.0000
  C   C109      1.0  0.25414  0.30136  0.54398  1.0000
  C   C110      1.0  0.26844  0.32385  0.52887  1.0000
  C   C111      1.0  0.29440  0.36455  0.52937  1.0000
  H   H108      1.0  0.29913  0.37490  0.57223  1.0000
  H   H109      1.0  0.25401  0.30289  0.57132  1.0000
  H   H110      1.0  0.26017  0.30958  0.51674  1.0000
  H   H111      1.0  0.30620  0.38141  0.51768  1.0000
  C   C112      1.0  0.04931  0.12547  0.57944  1.0000
  C   C113      1.0  0.05188  0.14028  0.59564  1.0000
  C   C114      1.0  0.01855  0.13921  0.60278  1.0000
  H   H112      1.0  0.07421  0.12498  0.57400  1.0000
  C   C115      1.0  0.31942  0.12004  0.67720  1.0000
  C   C116      1.0  0.31874  0.09000  0.65076  1.0000
  C   C117      1.0  0.33916  0.10218  0.68480  1.0000
  H   H113      1.0  0.13356  0.23018  0.58493  1.0000
  C   C118      1.0  0.35035  0.04990  0.64801  1.0000
  H   H114      1.0  0.34101  0.31961  0.54045  1.0000
  Fe  Fe28      1.0  0.49877  0.22423  0.67962  1.0000
  H   H115      1.0  0.38107  0.37948  0.55717  1.0000
  C   C119      1.0  0.37137  0.17065  0.62733  1.0000
  C   C120      1.0  0.37185  0.19860  0.63810  1.0000
  C   C121      1.0  0.34500  0.21228  0.63547  1.0000
  C   C122      1.0  0.31741  0.19783  0.62219  1.0000
  C   C123      1.0  0.31685  0.16980  0.61147  1.0000
  C   C124      1.0  0.34391  0.15639  0.61401  1.0000
  H   H116      1.0  0.39286  0.20963  0.64842  1.0000
  H   H117      1.0  0.34553  0.23403  0.64378  1.0000
  H   H118      1.0  0.29573  0.15857  0.60119  1.0000
  H   H119      1.0  0.34345  0.13474  0.60565  1.0000
  C   C125      1.0  0.25700  0.44149  0.52638  1.0000
  H   H120      1.0  0.28081  0.46574  0.55084  1.0000
  C   C126      1.0  0.20626  0.45244  0.51539  1.0000
  H   H121      1.0  0.50715  0.51364  0.69263  1.0000
  H   H122      1.0  0.31283  0.13916  0.68447  1.0000
  H   H123      1.0  0.31195  0.08657  0.63729  1.0000
  H   H124      1.0  0.32698  0.03202  0.63874  1.0000
  H   H125      1.0  0.04257  0.43277  0.68470  1.0000
  C   C127      1.0  0.04940  0.41807  0.71065  1.0000
  H   H126      1.0  0.13411  0.21390  0.54256  1.0000
  H   H127      1.0  0.27698  0.43007  0.52498  1.0000
  C   C128      1.0  0.34639  0.31702  0.55387  1.0000
  H   H128      1.0  0.37785  0.07016  0.64088  1.0000
  H   H129      1.0  0.04379  0.48931  0.71010  1.0000
  H   H130      1.0  0.08794  0.05825  0.58654  1.0000
  C   C129      1.0  0.36378  0.30679  0.60673  1.0000
  H   H131      1.0  0.34818  0.10726  0.69804  1.0000
  H   H132      1.0  0.31055  0.25404  0.55485  1.0000
  C   C130      1.0  0.34863  0.07872  0.67506  1.0000
  H   H133      1.0  0.02024  0.15028  0.61539  1.0000
  C   C131      1.0  0.25919  0.46165  0.54110  1.0000
  N   N9        1.0  0.33827  0.07276  0.65829  1.0000
  H   H134      1.0  0.29463  0.12846  0.65386  1.0000
  H   H135      1.0  0.32195  0.24870  0.58568  1.0000
  H   H136      1.0  0.25100  0.43792  0.48890  1.0000
  H   H137      1.0  0.07478  0.17599  0.52487  1.0000
  C   C132      1.0  0.37446  0.34678  0.58066  1.0000
  H   H138      1.0  0.18668  0.45053  0.50510  1.0000
  H   H139      1.0  0.14165  0.27573  0.57512  1.0000
  N   N10       1.0  0.35841  0.31046  0.58843  1.0000
  N   N11       1.0  0.10255  0.22422  0.56194  1.0000
  C   C133      1.0  0.36896  0.35061  0.56326  1.0000
  C   C134      1.0  0.13743  0.24623  0.57261  1.0000
  H   H140      1.0  0.36483  0.06581  0.68096  1.0000
  H   H141      1.0  0.46111  0.42417  0.48261  1.0000
  H   H142      1.0  0.36804  0.28124  0.60958  1.0000
  C   C135      1.0  0.32925  0.28018  0.56197  1.0000
  C   C136      1.0  0.07232  0.18823  0.53669  1.0000
  H   H143      1.0  0.39142  0.37310  0.58791  1.0000
  H   H144      1.0  0.33707  0.30208  0.61374  1.0000
  N   N12       1.0  0.23049  0.43675  0.51385  1.0000
  C   C137      1.0  0.02755  0.41526  0.69591  1.0000
  H   H145      1.0  0.18845  0.48533  0.53111  1.0000
  H   H146      1.0  0.19969  0.40224  0.49249  1.0000
  C   C138      1.0  0.23407  0.47710  0.54293  1.0000
  H   H147      1.0  0.23747  0.39334  0.50101  1.0000
  C   C139      1.0  0.10573  0.20955  0.54681  1.0000
  S   S47       1.0  0.10064  0.45173  0.71079  1.0000
  H   H148      1.0  0.23599  0.49358  0.55409  1.0000
  H   H149      1.0  0.07101  0.02557  0.60501  1.0000
  C   C140      1.0  0.03568  0.18226  0.54209  1.0000
  H   H150      1.0  0.35609  0.02955  0.65605  1.0000
  C   C141      1.0  0.06668  0.21812  0.56741  1.0000
  C   C142      1.0  0.03282  0.19748  0.55749  1.0000
  S   S48       1.0  0.51494  0.18061  0.69033  1.0000
  C   C143      1.0  0.13682  0.02453  0.57521  1.0000
  C   C144      1.0  0.40469  0.02757  0.69531  1.0000
  C   C145      1.0  0.14478  0.02352  0.59253  1.0000
  C   C146      1.0  0.04874  0.49707  0.72338  1.0000
  N   N13       1.0  0.02579  0.02815  0.59077  1.0000
  H   H151      1.0  0.06394  0.22844  0.57970  1.0000
  H   H152      1.0  0.48178  0.02443  0.70421  1.0000
  S   S49       1.0  0.42637  0.50739  0.51503  1.0000
  S   S50       1.0  0.50796  0.21484  0.65245  1.0000
  C   C147      1.0  0.06639  0.04701  0.59726  1.0000
  H   H153      1.0  0.07320  0.07261  0.60522  1.0000
  H   H154      1.0  0.51160  0.30048  0.65931  1.0000
  C   C148      1.0  0.37833  0.02064  0.72370  1.0000
  H   H155      1.0  0.27076  0.41787  0.76076  1.0000
  C   C149      1.0  0.21940  0.13420  0.88857  1.0000
  H   H156      1.0  0.24513  0.17293  0.85911  1.0000
  N   N14       1.0  0.26419  0.41781  0.78774  1.0000
  C   C150      1.0  0.08217  0.22944  0.79301  1.0000
  C   C151      1.0  0.27058  0.43694  0.77090  1.0000
  Fe  Fe29      1.0  0.46053  0.34700  0.90234  1.0000
  S   S51       1.0  0.42195  0.32695  0.87877  1.0000
  S   S52       1.0  0.44282  0.32352  0.92909  1.0000
  Fe  Fe30      1.0  0.19724  0.21134  0.85490  1.0000
  S   S53       1.0  0.21746  0.20689  0.82886  1.0000
  S   S54       1.0  0.23405  0.22682  0.87893  1.0000
  Fe  Fe31      1.0  0.11191  0.18059  0.84317  1.0000
  S   S55       1.0  0.12571  0.17406  0.81632  1.0000
  S   S56       1.0  0.05106  0.16573  0.85209  1.0000
  Fe  Fe32      1.0  0.16115  0.14886  0.82804  1.0000
  S   S57       1.0  0.15848  0.09578  0.81634  1.0000
  Fe  Fe33      1.0  0.18005  0.23258  0.81966  1.0000
  S   S58       1.0  0.20018  0.27714  0.79794  1.0000
  S   S59       1.0  0.14344  0.15119  0.85478  1.0000
  S   S60       1.0  0.16384  0.24141  0.84582  1.0000
  C   C152      1.0  0.23909  0.40830  0.81629  1.0000
  H   H157      1.0  0.51527  0.47784  0.93591  1.0000
  Fe  Fe34      1.0  0.15086  0.43630  0.76976  1.0000
  S   S61       1.0  0.16798  0.42908  0.74346  1.0000
  S   S62       1.0  0.12846  0.39021  0.79093  1.0000
  Fe  Fe35      1.0  0.13678  0.46170  0.73479  1.0000
  H   H158      1.0  0.37356  0.03363  0.73474  1.0000
  H   H159      1.0  0.24652  0.16233  0.89148  1.0000
  H   H160      1.0  0.44950  0.02309  0.75636  1.0000
  C   C153      1.0  0.02981  0.39557  0.72512  1.0000
  S   S63       1.0  0.11557  0.46454  0.76084  1.0000
  H   H161      1.0  0.29272  0.38551  0.78128  1.0000
  C   C154      1.0  0.02139  0.02024  0.84812  1.0000
  H   H162      1.0  0.45654  0.21224  0.86811  1.0000
  S   S64       1.0  0.20604  0.49361  0.77420  1.0000
  S   S65       1.0  0.50090  0.26767  0.94157  1.0000
  C   C155      1.0  0.13228  0.05195  0.84611  1.0000
  C   C156      1.0  0.13972  0.05230  0.82875  1.0000
  C   C157      1.0  0.02557  0.48516  0.96859  1.0000
  H   H163      1.0  0.13691  0.07827  0.85202  1.0000
  C   C158      1.0  0.25238  0.38177  0.81973  1.0000
  C   C159      1.0  0.17936  0.30779  0.79610  1.0000
  C   C160      1.0  0.15862  0.31172  0.80959  1.0000
  C   C161      1.0  0.14353  0.33750  0.80794  1.0000
  C   C162      1.0  0.14889  0.35924  0.79278  1.0000
  C   C163      1.0  0.16948  0.35518  0.77927  1.0000
  C   C164      1.0  0.18471  0.32954  0.78095  1.0000
  H   H164      1.0  0.15450  0.29522  0.82133  1.0000
  H   H165      1.0  0.12760  0.34057  0.81842  1.0000
  H   H166      1.0  0.17342  0.37153  0.76749  1.0000
  H   H167      1.0  0.20067  0.32649  0.77047  1.0000
  C   C165      1.0  0.36971  0.29935  0.87916  1.0000
  C   C166      1.0  0.34913  0.28909  0.86367  1.0000
  C   C167      1.0  0.30756  0.26706  0.86340  1.0000
  C   C168      1.0  0.28625  0.25497  0.87866  1.0000
  C   C169      1.0  0.30683  0.26483  0.89415  1.0000
  C   C170      1.0  0.34841  0.28706  0.89442  1.0000
  H   H168      1.0  0.36544  0.29855  0.85181  1.0000
  H   H169      1.0  0.29208  0.25973  0.85139  1.0000
  H   H170      1.0  0.29051  0.25566  0.90601  1.0000
  H   H171      1.0  0.36388  0.29498  0.90643  1.0000
  H   H172      1.0  0.45999  0.16016  0.92200  1.0000
  C   C171      1.0  0.38581  0.42664  0.97097  1.0000
  H   H173      1.0  0.29919  0.46495  0.77056  1.0000
  Fe  Fe36      1.0  0.48275  0.38614  0.93667  1.0000
  H   H174      1.0  0.28148  0.35236  0.80950  1.0000
  N   N15       1.0  0.04710  0.24245  0.81449  1.0000
  C   C172      1.0  0.43339  0.24038  0.88376  1.0000
  C   C173      1.0  0.40452  0.45898  0.95976  1.0000
  H   H175      1.0  0.19442  0.14016  0.88724  1.0000
  C   C174      1.0  0.02666  0.48213  0.75257  1.0000
  C   C175      1.0  0.08119  0.25783  0.78230  1.0000
  H   H176      1.0  0.09731  0.21409  0.78902  1.0000
  N   N16       1.0  0.43568  0.19292  0.91013  1.0000
  C   C176      1.0  0.44696  0.18985  0.89408  1.0000
  C   C177      1.0  0.42264  0.21872  0.91321  1.0000
  H   H177      1.0  0.41421  0.22160  0.92597  1.0000
  C   C178      1.0  0.42107  0.24259  0.90006  1.0000
  H   H178      1.0  0.25071  0.14675  0.83164  1.0000
  C   C179      1.0  0.43606  0.16730  0.92394  1.0000
  H   H179      1.0  0.45764  0.16964  0.89166  1.0000
  H   H180      1.0  0.44215  0.18213  0.93637  1.0000
  H   H181      1.0  0.05332  0.03573  0.84688  1.0000
  S   S66       1.0  0.49677  0.41021  0.90984  1.0000
  H   H182      1.0  0.22295  0.41404  0.82588  1.0000
  S   S67       1.0  0.46553  0.41154  0.95834  1.0000
  H   H183      1.0  0.41285  0.45466  0.94722  1.0000
  H   H184      1.0  0.21328  0.11371  0.89960  1.0000
  C   C180      1.0  0.27802  0.39243  0.79111  1.0000
  C   C181      1.0  0.24161  0.12807  0.84302  1.0000
  C   C182      1.0  0.21480  0.07996  0.87191  1.0000
  H   H185      1.0  0.41091  0.26316  0.90250  1.0000
  H   H186      1.0  0.23421  0.44620  0.79746  1.0000
  C   C183      1.0  0.23192  0.08889  0.84210  1.0000
  C   C184      1.0  0.49055  0.46263  0.96115  1.0000
  C   C185      1.0  0.21867  0.06466  0.85664  1.0000
  C   C186      1.0  0.24546  0.42632  0.80015  1.0000
  H   H187      1.0  0.40716  0.13973  0.92465  1.0000
  H   H188      1.0  0.24660  0.36662  0.83201  1.0000
  H   H189      1.0  0.20307  0.06048  0.88297  1.0000
  C   C187      1.0  0.27213  0.37387  0.80711  1.0000
  C   C188      1.0  0.06284  0.27833  0.78780  1.0000
  N   N17       1.0  0.22461  0.11853  0.87271  1.0000
  C   C189      1.0  0.23790  0.14253  0.85853  1.0000
  H   H190      1.0  0.06581  0.20015  0.81749  1.0000
  C   C190      1.0  0.01983  0.47334  0.73536  1.0000
  H   H191      1.0  0.04637  0.39762  0.73655  1.0000
  Fe  Fe37      1.0  0.22093  0.48881  0.74732  1.0000
  H   H192      1.0  0.02051  0.06966  0.85916  1.0000
  C   C191      1.0  0.06200  0.51461  0.75755  1.0000
  H   H193      1.0  0.24654  0.44334  0.76759  1.0000
  C   C192      1.0  0.02995  0.23440  0.83163  1.0000
  H   H194      1.0  0.04091  0.12310  0.82092  1.0000
  H   H195      1.0  0.09569  0.26476  0.76997  1.0000
  H   H196      1.0  0.43309  0.25952  0.87360  1.0000
  C   C193      1.0  0.04603  0.27039  0.80407  1.0000
  C   C194      1.0  0.44645  0.21386  0.88071  1.0000
  H   H197      1.0  0.03292  0.28736  0.80839  1.0000
  H   H198      1.0  0.14011  0.01808  0.80789  1.0000
  C   C195      1.0  0.06472  0.22199  0.80914  1.0000
  C   C196      1.0  0.13424  0.01792  0.82132  1.0000
  C   C197      1.0  0.12054  0.01781  0.85609  1.0000
  H   H199      1.0  0.05322  0.24029  0.84127  1.0000
  N   N18       1.0  0.41407  0.49568  0.96485  1.0000
  C   C198      1.0  0.51576  0.02529  0.94819  1.0000
  H   H200      1.0  0.38007  0.39795  0.96710  1.0000
  C   C199      1.0  0.46786  0.02871  0.73021  1.0000
  S   S68       1.0  0.28218  0.50456  0.73872  1.0000
  H   H201      1.0  0.47452  0.05896  0.72869  1.0000
  Fe  Fe38      1.0  0.49806  0.31891  0.92934  1.0000
  H   H202      1.0  0.06316  0.30147  0.77980  1.0000
  S   S69       1.0  0.51296  0.33775  0.90206  1.0000
  H   H203      1.0  0.23322  0.07700  0.82998  1.0000
  C   C200      1.0  0.51274  0.48887  0.94801  1.0000
  H   H204      1.0  0.20965  0.03376  0.85592  1.0000
  H   H205      1.0  0.11572  0.01797  0.86960  1.0000
  Fe  Fe39      1.0  0.15077  0.55668  0.01818  1.0000
  S   S70       1.0  0.16444  0.61227  0.03137  1.0000
  H   H206      1.0  0.36283  0.79789  0.21581  1.0000
  Fe  Fe40      1.0  0.38640  0.89707  0.98934  1.0000
  S   S71       1.0  0.41124  0.90529  0.01574  1.0000
  C   C201      1.0  0.41325  0.60144  0.20250  1.0000
  Fe  Fe41      1.0  0.31314  0.81944  0.99898  1.0000
  S   S72       1.0  0.33163  0.82235  0.02619  1.0000
  H   H207      1.0  0.26331  0.65442  0.01947  1.0000
  Fe  Fe42      1.0  0.34916  0.88614  0.02422  1.0000
  S   S73       1.0  0.34243  0.91926  0.04597  1.0000
  Fe  Fe43      1.0  0.39158  0.84091  0.01531  1.0000
  S   S74       1.0  0.42264  0.81107  0.02770  1.0000
  S   S75       1.0  0.32533  0.88167  0.99783  1.0000
  H   H208      1.0  0.29057  0.71746  0.03888  1.0000
  H   H209      1.0  0.36945  0.65282  0.98701  1.0000
  S   S76       1.0  0.10062  0.67305  0.20586  1.0000
  H   H210      1.0  0.03515  0.56715  0.20497  1.0000
  S   S77       1.0  0.09975  0.95545  0.10965  1.0000
  S   S78       1.0  0.15323  0.55121  0.98998  1.0000
  Fe  Fe44      1.0  0.45269  0.59576  0.01092  1.0000
  H   H211      1.0  0.27287  0.59712  0.01624  1.0000
  S   S79       1.0  0.39199  0.54782  0.01901  1.0000
  C   C202      1.0  0.20624  0.69051  0.99175  1.0000
  C   C203      1.0  0.02677  0.63174  0.19213  1.0000
  H   H212      1.0  0.45501  0.76198  0.03669  1.0000
  S   S80       1.0  0.26043  0.76824  0.98706  1.0000
  S   S81       1.0  0.15397  0.01139  0.06738  1.0000
  C   C204      1.0  0.31586  0.72519  0.03022  1.0000
  H   H213      1.0  0.44374  0.60798  0.20312  1.0000
  S   S82       1.0  0.21124  0.99934  0.09460  1.0000
  H   H214      1.0  0.23916  0.94181  0.02067  1.0000
  H   H215      1.0  0.06375  0.98619  0.05095  1.0000
  C   C205      1.0  0.05714  0.92514  0.09785  1.0000
  C   C206      1.0  0.05904  0.92238  0.08026  1.0000
  C   C207      1.0  0.38314  0.56370  0.19855  1.0000
  H   H216      1.0  0.08714  0.93713  0.07379  1.0000
  C   C208      1.0  0.44394  0.79007  0.01510  1.0000
  C   C209      1.0  0.44743  0.79602  0.99746  1.0000
  H   H217      1.0  0.04211  0.63379  0.18043  1.0000
  N   N19       1.0  0.34545  0.68939  0.97886  1.0000
  C   C210      1.0  0.47159  0.74670  0.01328  1.0000
  H   H218      1.0  0.30987  0.73429  0.01754  1.0000
  H   H219      1.0  0.43850  0.81532  0.99132  1.0000
  H   H220      1.0  0.16629  0.62847  0.99510  1.0000
  C   C211      1.0  0.28673  0.54583  0.99190  1.0000
  C   C212      1.0  0.31048  0.93904  0.04505  1.0000
  C   C213      1.0  0.30943  0.96062  0.05880  1.0000
  C   C214      1.0  0.28281  0.97502  0.05892  1.0000
  C   C215      1.0  0.25722  0.96807  0.04522  1.0000
  C   C216      1.0  0.25891  0.94727  0.03131  1.0000
  C   C217      1.0  0.28532  0.93266  0.03123  1.0000
  H   H221      1.0  0.32886  0.96568  0.06953  1.0000
  H   H222      1.0  0.48410  0.00946  0.03834  1.0000
  C   C218      1.0  0.35744  0.69464  0.03289  1.0000
  H   H223      1.0  0.28564  0.91588  0.02063  1.0000
  C   C219      1.0  0.45678  0.76597  0.02299  1.0000
  N   N20       1.0  0.34448  0.55490  0.19829  1.0000
  H   H224      1.0  0.38116  0.72191  0.03774  1.0000
  C   C220      1.0  0.35163  0.54675  0.00832  1.0000
  H   H225      1.0  0.50044  0.52876  0.99083  1.0000
  S   S83       1.0  0.37212  0.83428  0.98810  1.0000
  N   N21       1.0  0.42181  0.00302  0.00670  1.0000
  S   S84       1.0  0.19136  0.53322  0.02445  1.0000
  C   C221      1.0  0.40366  0.63041  0.20588  1.0000
  C   C222      1.0  0.33298  0.62740  0.02529  1.0000
  C   C223      1.0  0.36356  0.66268  0.03129  1.0000
  C   C224      1.0  0.18877  0.65593  0.01907  1.0000
  C   C225      1.0  0.18557  0.65553  0.00137  1.0000
  C   C226      1.0  0.35710  0.56815  0.99313  1.0000
  C   C227      1.0  0.23148  0.72586  0.99970  1.0000
  C   C228      1.0  0.23380  0.72652  0.01744  1.0000
  C   C229      1.0  0.21217  0.69164  0.02712  1.0000
  H   H226      1.0  0.42674  0.65976  0.20908  1.0000
  S   S85       1.0  0.47901  0.65558  0.02176  1.0000
  H   H227      1.0  0.25198  0.75387  0.02372  1.0000
  H   H228      1.0  0.21393  0.69220  0.04086  1.0000
  H   H229      1.0  0.39174  0.66515  0.03478  1.0000
  H   H230      1.0  0.30301  0.62823  0.97982  1.0000
  C   C230      1.0  0.04797  0.56847  0.21741  1.0000
  S   S86       1.0  0.22116  0.98275  0.04532  1.0000
  C   C231      1.0  0.33489  0.58336  0.20121  1.0000
  Fe  Fe45      1.0  0.21352  0.01554  0.06691  1.0000
  H   H231      1.0  0.33717  0.60225  0.02425  1.0000
  H   H232      1.0  0.41329  0.98593  0.03300  1.0000
  S   S87       1.0  0.49112  0.72674  0.98299  1.0000
  N   N22       1.0  0.17293  0.89454  0.07154  1.0000
  C   C232      1.0  0.17495  0.87845  0.05664  1.0000
  C   C233      1.0  0.19923  0.90045  0.08435  1.0000
  C   C234      1.0  0.20319  0.86683  0.05443  1.0000
  C   C235      1.0  0.22806  0.88945  0.08251  1.0000
  C   C236      1.0  0.22991  0.87244  0.06746  1.0000
  C   C237      1.0  0.14293  0.90634  0.07343  1.0000
  H   H233      1.0  0.15521  0.87534  0.04623  1.0000
  H   H234      1.0  0.20531  0.85488  0.04246  1.0000
  Fe  Fe46      1.0  0.15414  0.00016  0.09528  1.0000
  H   H235      1.0  0.25289  0.86486  0.06564  1.0000
  H   H236      1.0  0.14972  0.93148  0.06461  1.0000
  H   H237      1.0  0.11311  0.88164  0.07042  1.0000
  H   H238      1.0  0.14170  0.91540  0.08659  1.0000
  C   C238      1.0  0.29687  0.62452  0.02087  1.0000
  Fe  Fe47      1.0  0.49805  0.67770  0.99511  1.0000
  H   H239      1.0  0.19837  0.91415  0.09600  1.0000
  H   H240      1.0  0.37295  0.01252  0.00429  1.0000
  N   N23       1.0  0.32190  0.69152  0.02859  1.0000
  C   C239      1.0  0.29173  0.65704  0.02267  1.0000
  H   H241      1.0  0.03745  0.98060  0.10723  1.0000
  C   C240      1.0  0.02434  0.90020  0.07096  1.0000
  S   S88       1.0  0.24747  0.54785  0.98171  1.0000
  C   C241      1.0  0.37970  0.98830  0.00351  1.0000
  H   H242      1.0  0.02613  0.89784  0.05736  1.0000
  H   H243      1.0  0.24941  0.89488  0.09252  1.0000
  H   H244      1.0  0.48092  0.72795  0.01952  1.0000
  C   C242      1.0  0.31349  0.52454  0.01521  1.0000
  C   C243      1.0  0.50408  0.51783  0.97891  1.0000
  H   H245      1.0  0.34214  0.75096  0.03560  1.0000
  C   C244      1.0  0.32467  0.56717  0.98481  1.0000
  H   H246      1.0  0.14247  0.61575  0.20632  1.0000
  C   C245      1.0  0.04860  0.64931  0.20681  1.0000
  C   C246      1.0  0.28111  0.52451  0.00714  1.0000
  C   C247      1.0  0.46304  0.77732  0.98776  1.0000
  Fe  Fe48      1.0  0.19061  0.52402  0.99652  1.0000
  H   H247      1.0  0.28176  0.99106  0.06968  1.0000
  C   C248      1.0  0.47462  0.75214  0.99562  1.0000
  H   H248      1.0  0.30429  0.57653  0.20079  1.0000
  H   H249      1.0  0.39127  0.70022  0.99639  1.0000
  C   C249      1.0  0.36425  0.62141  0.20518  1.0000
  C   C250      1.0  0.11235  0.59094  0.20379  1.0000
  S   S89       1.0  0.46742  0.61783  0.98396  1.0000
  H   H250      1.0  0.35638  0.64365  0.20777  1.0000
  H   H251      1.0  0.36096  0.96486  0.01291  1.0000
  H   H252      1.0  0.37128  0.97508  0.99073  1.0000
  H   H253      1.0  0.41094  0.52989  0.98477  1.0000
  H   H254      1.0  0.38617  0.58518  0.98766  1.0000
  H   H255      1.0  0.51061  0.92169  0.20494  1.0000
  H   H256      1.0  0.11451  0.56522  0.19976  1.0000
  S   S90       1.0  0.50727  0.59092  0.01524  1.0000
  C   C251      1.0  0.43438  0.99979  0.02267  1.0000
  H   H257      1.0  0.39076  0.54118  0.19616  1.0000
  H   H258      1.0  0.10039  0.60119  0.19317  1.0000
  C   C252      1.0  0.51110  0.94099  0.21469  1.0000
  N   N24       1.0  0.08738  0.58066  0.21900  1.0000
  C   C253      1.0  0.37852  0.68413  0.98450  1.0000
  H   H259      1.0  0.24540  0.59631  0.21995  1.0000
  C   C254      1.0  0.04038  0.99357  0.05146  1.0000
  H   H260      1.0  0.47910  0.94154  0.98262  1.0000
  C   C255      1.0  0.47446  0.01317  0.02578  1.0000
  C   C256      1.0  0.02308  0.99744  0.10403  1.0000
  H   H261      1.0  0.05982  0.53697  0.98316  1.0000
  H   H262      1.0  0.20254  0.69004  0.97811  1.0000
  C   C257      1.0  0.02865  0.64630  0.22193  1.0000
  C   C258      1.0  0.02039  0.90478  0.10614  1.0000
  H   H263      1.0  0.38127  0.75170  0.97684  1.0000
  C   C259      1.0  0.30843  0.65763  0.97708  1.0000
  H   H264      1.0  0.01878  0.90635  0.11980  1.0000
  C   C260      1.0  0.35202  0.72648  0.97540  1.0000
  H   H265      1.0  0.40210  0.69571  0.97460  1.0000
  Fe  Fe49      1.0  0.19895  0.96243  0.31815  1.0000
  S   S91       1.0  0.18503  0.93825  0.34487  1.0000
  S   S92       1.0  0.22284  0.94053  0.29763  1.0000
  H   H266      1.0  0.12010  0.78526  0.25247  1.0000
  S   S93       1.0  0.50210  0.83225  0.23018  1.0000
  H   H267      1.0  0.05788  0.97808  0.32407  1.0000
  H   H268      1.0  0.47418  0.72665  0.26833  1.0000
  Fe  Fe50      1.0  0.13324  0.94831  0.34283  1.0000
  S   S94       1.0  0.07408  0.90721  0.35486  1.0000
  C   C261      1.0  0.06884  0.99717  0.33529  1.0000
  S   S95       1.0  0.14398  0.96687  0.31535  1.0000
  S   S96       1.0  0.40307  0.58553  0.28085  1.0000
  Fe  Fe51      1.0  0.22694  0.74668  0.23800  1.0000
  S   S97       1.0  0.21793  0.72896  0.26569  1.0000
  H   H269      1.0  0.43284  0.88887  0.45491  1.0000
  H   H270      1.0  0.27393  0.61879  0.27555  1.0000
  S   S98       1.0  0.12346  0.67295  0.25611  1.0000
  N   N25       1.0  0.11614  0.83313  0.26260  1.0000
  Fe  Fe52      1.0  0.16406  0.73579  0.26317  1.0000
  S   S99       1.0  0.14200  0.75904  0.28395  1.0000
  Fe  Fe53      1.0  0.17851  0.66811  0.25629  1.0000
  S   S100      1.0  0.17849  0.61521  0.26838  1.0000
  H   H271      1.0  0.37970  0.74291  0.25025  1.0000
  Fe  Fe54      1.0  0.49670  0.85003  0.25640  1.0000
  C   C262      1.0  0.32115  0.71321  0.26114  1.0000
  H   H272      1.0  0.47734  0.65416  0.22922  1.0000
  S   S101      1.0  0.44465  0.85361  0.26652  1.0000
  C   C263      1.0  0.49393  0.92558  0.23054  1.0000
  S   S102      1.0  0.35212  0.53637  0.23881  1.0000
  C   C264      1.0  0.32901  0.80122  0.23652  1.0000
  H   H273      1.0  0.47917  0.89424  0.23310  1.0000
  C   C265      1.0  0.39896  0.82135  0.23809  1.0000
  C   C266      1.0  0.40025  0.83269  0.25489  1.0000
  C   C267      1.0  0.36573  0.82799  0.26251  1.0000
  C   C268      1.0  0.33006  0.81204  0.25339  1.0000
  H   H274      1.0  0.18941  0.55017  0.27776  1.0000
  H   H275      1.0  0.29813  0.99716  0.31407  1.0000
  H   H276      1.0  0.36659  0.83680  0.27549  1.0000
  H   H277      1.0  0.30359  0.80868  0.25930  1.0000
  S   S103      1.0  0.19146  0.68526  0.22885  1.0000
  H   H278      1.0  0.48340  0.93873  0.25567  1.0000
  C   C269      1.0  0.43226  0.62716  0.26795  1.0000
  C   C270      1.0  0.44363  0.66454  0.27396  1.0000
  C   C271      1.0  0.46618  0.69811  0.26367  1.0000
  C   C272      1.0  0.13509  0.87306  0.26395  1.0000
  H   H279      1.0  0.32801  0.97578  0.30873  1.0000
  C   C273      1.0  0.44393  0.62347  0.25168  1.0000
  H   H280      1.0  0.43459  0.66748  0.28655  1.0000
  S   S104      1.0  0.17612  0.75849  0.23603  1.0000
  H   H281      1.0  0.43591  0.59476  0.24709  1.0000
  H   H282      1.0  0.04523  0.65958  0.23332  1.0000
  C   C274      1.0  0.41699  0.93252  0.44761  1.0000
  C   C275      1.0  0.20183  0.56044  0.26517  1.0000
  C   C276      1.0  0.20003  0.59204  0.25734  1.0000
  C   C277      1.0  0.21617  0.60509  0.24109  1.0000
  C   C278      1.0  0.39952  0.95402  0.45290  1.0000
  C   C279      1.0  0.23560  0.55506  0.24050  1.0000
  Fe  Fe55      1.0  0.13953  0.69504  0.22918  1.0000
  H   H283      1.0  0.05140  0.80693  0.29532  1.0000
  C   C280      1.0  0.12723  0.81572  0.24896  1.0000
  H   H284      1.0  0.38771  0.68416  0.25262  1.0000
  C   C281      1.0  0.46733  0.65708  0.24158  1.0000
  Fe  Fe56      1.0  0.21969  0.00126  0.35252  1.0000
  C   C282      1.0  0.23340  0.58631  0.23261  1.0000
  C   C283      1.0  0.20262  0.88977  0.29504  1.0000
  C   C284      1.0  0.17205  0.86246  0.30552  1.0000
  C   C285      1.0  0.15483  0.82220  0.30243  1.0000
  C   C286      1.0  0.16813  0.80908  0.28892  1.0000
  C   C287      1.0  0.19985  0.83632  0.27892  1.0000
  C   C288      1.0  0.21698  0.87660  0.28195  1.0000
  H   H285      1.0  0.16099  0.87236  0.31571  1.0000
  H   H286      1.0  0.13035  0.80117  0.31024  1.0000
  H   H287      1.0  0.21049  0.82640  0.26856  1.0000
  H   H288      1.0  0.24091  0.89765  0.27391  1.0000
  C   C289      1.0  0.08005  0.57205  0.24936  1.0000
  S   S105      1.0  0.25742  0.53234  0.22942  1.0000
  S   S106      1.0  0.25887  0.01357  0.37574  1.0000
  C   C290      1.0  0.07462  0.82577  0.28642  1.0000
  H   H289      1.0  0.30689  0.58598  0.26185  1.0000
  C   C291      1.0  0.03179  0.89666  0.32529  1.0000
  H   H290      1.0  0.31716  0.73854  0.26002  1.0000
  C   C292      1.0  0.47828  0.69443  0.24748  1.0000
  C   C293      1.0  0.29140  0.67822  0.26834  1.0000
  C   C294      1.0  0.33505  0.61284  0.26495  1.0000
  C   C295      1.0  0.12454  0.89029  0.27672  1.0000
  H   H291      1.0  0.09316  0.57377  0.26179  1.0000
  C   C296      1.0  0.26284  0.92827  0.35868  1.0000
  H   H292      1.0  0.11130  0.81507  0.23709  1.0000
  N   N26       1.0  0.29234  0.95200  0.33110  1.0000
  C   C297      1.0  0.27281  0.91460  0.32519  1.0000
  H   H293      1.0  0.14073  0.92189  0.27817  1.0000
  H   H294      1.0  0.22273  0.86600  0.36112  1.0000
  C   C298      1.0  0.09412  0.86642  0.28801  1.0000
  H   H295      1.0  0.27576  0.90910  0.31199  1.0000
  C   C299      1.0  0.49633  0.95072  0.24324  1.0000
  H   H296      1.0  0.26416  0.67620  0.27282  1.0000
  H   H297      1.0  0.30217  0.98874  0.35214  1.0000
  H   H298      1.0  0.34225  0.00870  0.32615  1.0000
  H   H299      1.0  0.34390  0.60951  0.27810  1.0000
  N   N27       1.0  0.33055  0.64766  0.26358  1.0000
  C   C300      1.0  0.36040  0.68219  0.25691  1.0000
  C   C301      1.0  0.29689  0.64571  0.26968  1.0000
  H   H300      1.0  0.06215  0.52413  0.42580  1.0000
  H   H301      1.0  0.04170  0.61330  0.44557  1.0000
  C   C302      1.0  0.28746  0.95907  0.34757  1.0000
  H   H302      1.0  0.43013  0.93775  0.43504  1.0000
  C   C303      1.0  0.08604  0.80950  0.27354  1.0000
  C   C304      1.0  0.22010  0.54234  0.25688  1.0000
  H   H303      1.0  0.39927  0.97629  0.44451  1.0000
  H   H304      1.0  0.05934  0.90690  0.31860  1.0000
  H   H305      1.0  0.15932  0.89181  0.25546  1.0000
  H   H306      1.0  0.23149  0.85363  0.33099  1.0000
  C   C305      1.0  0.05706  0.57197  0.43582  1.0000
  C   C306      1.0  0.03091  0.89410  0.34305  1.0000
  H   H307      1.0  0.42522  0.82478  0.23206  1.0000
  C   C307      1.0  0.35611  0.71548  0.25556  1.0000
  H   H308      1.0  0.21555  0.62966  0.23501  1.0000
  C   C308      1.0  0.24270  0.89004  0.35276  1.0000
  H   H309      1.0  0.13442  0.59076  0.23595  1.0000
  C   C309      1.0  0.24765  0.88308  0.33590  1.0000
  H   H310      1.0  0.07153  0.77782  0.27267  1.0000
  C   C310      1.0  0.04373  0.53750  0.42686  1.0000
  C   C311      1.0  0.10336  0.58181  0.23468  1.0000
  C   C312      1.0  0.41863  0.90519  0.45878  1.0000
  H   H311      1.0  0.08621  0.87936  0.29818  1.0000
  C   C313      1.0  0.31647  0.98506  0.31946  1.0000
  H   H312      1.0  0.35770  0.61461  0.25597  1.0000
  H   H313      1.0  0.07336  0.98087  0.34602  1.0000
  Fe  Fe57      1.0  0.36048  0.53173  0.26661  1.0000
  H   H314      1.0  0.25852  0.93438  0.37163  1.0000
  H   H315      1.0  0.15963  0.83257  0.24654  1.0000
  C   C314      1.0  0.36354  0.80608  0.22889  1.0000
  H   H316      1.0  0.08601  0.58572  0.44175  1.0000
  C   C315      1.0  0.03213  0.58751  0.43795  1.0000
  H   H317      1.0  0.31610  0.75774  0.47048  1.0000
  H   H318      1.0  0.46808  0.69044  0.47107  1.0000
  N   N28       1.0  0.04061  0.00948  0.34027  1.0000
  S   S107      1.0  0.16643  0.00937  0.35272  1.0000
  S   S108      1.0  0.50771  0.73566  0.23437  1.0000
  C   C316      1.0  0.04015  0.56093  0.24790  1.0000
  S   S109      1.0  0.51500  0.81035  0.26958  1.0000
  H   H319      1.0  0.22139  0.51800  0.26299  1.0000
  C   C317      1.0  0.02386  0.55888  0.23182  1.0000
  H   H320      1.0  0.02194  0.55405  0.25920  1.0000
  C   C318      1.0  0.38432  0.94816  0.46942  1.0000
  C   C319      1.0  0.51580  0.99119  0.23983  1.0000
  C   C320      1.0  0.04498  0.51882  0.47243  1.0000
  H   H321      1.0  0.37190  0.96588  0.47354  1.0000
  C   C321      1.0  0.48236  0.01063  0.47398  1.0000
  C   C322      1.0  0.50508  0.52765  0.47421  1.0000
  S   S110      1.0  0.28535  0.78219  0.22451  1.0000
  Fe  Fe58      1.0  0.09847  0.61167  0.49685  1.0000
  S   S111      1.0  0.10335  0.59903  0.52451  1.0000
  H   H322      1.0  0.46690  0.01465  0.48440  1.0000
  Fe  Fe59      1.0  0.18308  0.68007  0.49554  1.0000
  S   S112      1.0  0.19351  0.67334  0.52311  1.0000
  C   C323      1.0  0.15439  0.93414  0.56688  1.0000
  Fe  Fe60      1.0  0.16365  0.60923  0.51773  1.0000
  S   S113      1.0  0.19293  0.57721  0.52955  1.0000
  Fe  Fe61      1.0  0.13256  0.66431  0.52728  1.0000
  S   S114      1.0  0.11698  0.68688  0.55055  1.0000
  H   H323      1.0  0.49461  0.53368  0.48581  1.0000
  S   S115      1.0  0.12452  0.67673  0.49998  1.0000
  S   S116      1.0  0.07435  0.90909  0.60587  1.0000
  Fe  Fe62      1.0  0.44793  0.85579  0.50936  1.0000
  S   S117      1.0  0.46208  0.85091  0.48237  1.0000
  S   S118      1.0  0.38776  0.84379  0.51792  1.0000
  H   H324      1.0  0.14121  0.93506  0.54040  1.0000
  H   H325      1.0  0.36336  0.74235  0.52145  1.0000
  S   S119      1.0  0.47467  0.82108  0.52020  1.0000
  C   C324      1.0  0.34576  0.71566  0.51446  1.0000
  Fe  Fe63      1.0  0.41754  0.55977  0.51305  1.0000
  S   S120      1.0  0.45779  0.61866  0.52437  1.0000
  S   S121      1.0  0.39918  0.55148  0.48567  1.0000
  C   C325      1.0  0.47427  0.72498  0.49290  1.0000
  H   H326      1.0  0.21941  0.52854  0.47736  1.0000
  C   C326      1.0  0.46751  0.69225  0.52029  1.0000
  C   C327      1.0  0.46144  0.65839  0.51219  1.0000
  C   C328      1.0  0.46105  0.65766  0.49443  1.0000
  C   C329      1.0  0.46744  0.69087  0.48482  1.0000
  C   C330      1.0  0.14653  0.91094  0.58164  1.0000
  H   H327      1.0  0.07463  0.53323  0.47755  1.0000
  H   H328      1.0  0.45752  0.63212  0.48807  1.0000
  H   H329      1.0  0.04859  0.74774  0.52079  1.0000
  C   C331      1.0  0.09603  0.95385  0.59423  1.0000
  C   C332      1.0  0.12470  0.98810  0.60198  1.0000
  C   C333      1.0  0.10785  0.99044  0.56752  1.0000
  C   C334      1.0  0.08707  0.95536  0.57707  1.0000
  H   H330      1.0  0.13186  0.98709  0.61524  1.0000
  C   C335      1.0  0.12042  0.87066  0.58106  1.0000
  H   H331      1.0  0.06527  0.92926  0.57096  1.0000
  C   C336      1.0  0.49848  0.98584  0.47623  1.0000
  C   C337      1.0  0.27356  0.77012  0.50550  1.0000
  C   C338      1.0  0.30797  0.79697  0.51403  1.0000
  C   C339      1.0  0.34539  0.80927  0.50703  1.0000
  C   C340      1.0  0.34824  0.79481  0.49136  1.0000
  H   H332      1.0  0.25096  0.65409  0.50257  1.0000
  H   H333      1.0  0.24481  0.76075  0.51101  1.0000
  H   H334      1.0  0.30554  0.80807  0.52613  1.0000
  H   H335      1.0  0.28412  0.62286  0.48841  1.0000
  S   S122      1.0  0.35648  0.91306  0.70945  1.0000
  C   C341      1.0  0.22144  0.56589  0.51615  1.0000
  C   C342      1.0  0.25574  0.56717  0.52256  1.0000
  H   H336      1.0  0.39396  0.91998  0.50702  1.0000
  S   S123      1.0  0.03851  0.58122  0.48401  1.0000
  C   C343      1.0  0.49765  0.73670  0.69080  1.0000
  H   H337      1.0  0.49577  0.97116  0.48838  1.0000
  C   C344      1.0  0.22983  0.53965  0.48992  1.0000
  Fe  Fe64      1.0  0.49312  0.82051  0.49345  1.0000
  C   C345      1.0  0.47193  0.00932  0.71646  1.0000
  C   C346      1.0  0.20893  0.55284  0.49968  1.0000
  H   H338      1.0  0.10167  0.99113  0.55411  1.0000
  C   C347      1.0  0.30165  0.64873  0.49582  1.0000
  C   C348      1.0  0.07993  0.72219  0.53355  1.0000
  C   C349      1.0  0.08976  0.71173  0.54921  1.0000
  C   C350      1.0  0.07639  0.71984  0.56427  1.0000
  N   N29       1.0  0.34155  0.66372  0.49751  1.0000
  C   C351      1.0  0.36373  0.69716  0.50642  1.0000
  H   H339      1.0  0.09016  0.71618  0.52189  1.0000
  H   H340      1.0  0.45294  0.80922  0.71852  1.0000
  C   C352      1.0  0.47391  0.72552  0.51067  1.0000
  C   C353      1.0  0.39055  0.98698  0.69529  1.0000
  H   H341      1.0  0.39552  0.97400  0.68429  1.0000
  C   C354      1.0  0.28269  0.66630  0.50378  1.0000
  H   H342      1.0  0.15926  0.92437  0.59368  1.0000
  S   S124      1.0  0.23367  0.72261  0.47879  1.0000
  N   N30       1.0  0.38617  0.92135  0.48031  1.0000
  H   H343      1.0  0.03443  0.62679  0.56441  1.0000
  H   H344      1.0  0.39549  0.70967  0.50735  1.0000
  C   C355      1.0  0.30488  0.69967  0.51332  1.0000
  H   H345      1.0  0.11306  0.85267  0.59262  1.0000
  C   C356      1.0  0.37087  0.96321  0.70957  1.0000
  C   C357      1.0  0.04225  0.74732  0.54801  1.0000
  H   H346      1.0  0.33958  0.61599  0.48395  1.0000
  H   H347      1.0  0.34575  0.88463  0.49944  1.0000
  C   C358      1.0  0.10268  0.85403  0.56562  1.0000
  C   C359      1.0  0.36111  0.64436  0.48968  1.0000
  C   C360      1.0  0.26355  0.53992  0.49651  1.0000
  H   H348      1.0  0.30323  0.55565  0.51780  1.0000
  H   H349      1.0  0.48282  0.71982  0.70260  1.0000
  S   S125      1.0  0.48603  0.76711  0.48044  1.0000
  H   H350      1.0  0.10541  0.87805  0.52401  1.0000
  C   C361      1.0  0.09067  0.85883  0.53530  1.0000
  H   H351      1.0  0.04181  0.74284  0.57536  1.0000
  C   C362      1.0  0.13582  0.91660  0.55168  1.0000
  N   N31       1.0  0.11075  0.87692  0.55117  1.0000
  H   H352      1.0  0.38183  0.66375  0.47957  1.0000
  C   C363      1.0  0.27700  0.55465  0.51269  1.0000
  S   S126      1.0  0.28699  0.52010  0.48452  1.0000
  Fe  Fe65      1.0  0.02293  0.85670  0.59400  1.0000
  H   H353      1.0  0.26560  0.57742  0.53528  1.0000
  H   H354      1.0  0.29044  0.71341  0.51962  1.0000
  H   H355      1.0  0.46805  0.69298  0.53404  1.0000
  H   H356      1.0  0.08196  0.82279  0.56532  1.0000
  C   C364      1.0  0.27638  0.75602  0.48975  1.0000
  S   S127      1.0  0.50262  0.91422  0.51329  1.0000
  H   H357      1.0  0.47963  0.75178  0.51702  1.0000
  H   H358      1.0  0.05946  0.85230  0.53577  1.0000
  H   H359      1.0  0.37683  0.80377  0.48589  1.0000
  C   C365      1.0  0.31379  0.76868  0.48264  1.0000
  C   C366      1.0  0.11426  0.55191  0.71577  1.0000
  H   H360      1.0  0.02711  0.59899  0.51993  1.0000
  H   H361      1.0  0.49271  0.76224  0.68985  1.0000
  C   C367      1.0  0.05262  0.73750  0.56369  1.0000
  C   C368      1.0  0.46131  0.96977  0.71836  1.0000
  H   H362      1.0  0.08403  0.71190  0.57643  1.0000
  H   H363      1.0  0.37797  0.63775  0.49944  1.0000
  H   H364      1.0  0.04928  0.60444  0.54909  1.0000
  C   C369      1.0  0.40283  0.89986  0.47516  1.0000
  H   H365      1.0  0.09054  0.83078  0.53352  1.0000
  C   C370      1.0  0.05645  0.74014  0.53297  1.0000
  H   H366      1.0  0.46295  0.95440  0.70742  1.0000
  S   S128      1.0  0.15636  0.61612  0.48974  1.0000
  H   H367      1.0  0.03628  0.99395  0.57318  1.0000
  H   H368      1.0  0.18234  0.55153  0.49469  1.0000
  S   S129      1.0  0.35575  0.52715  0.52329  1.0000
  C   C371      1.0  0.02076  0.53531  0.47448  1.0000
  H   H369      1.0  0.17347  0.96574  0.56738  1.0000
  H   H370      1.0  0.40441  0.87884  0.48385  1.0000
  H   H371      1.0  0.21381  0.65207  0.72108  1.0000
  C   C372      1.0  0.36459  0.98008  0.72376  1.0000
  H   H372      1.0  0.35942  0.93559  0.50064  1.0000
  H   H373      1.0  0.48346  0.71811  0.67963  1.0000
  H   H374      1.0  0.13428  0.53948  0.71472  1.0000
  H   H375      1.0  0.13185  0.58315  0.71940  1.0000
  H   H376      1.0  0.10144  0.55128  0.70303  1.0000
  C   C373      1.0  0.37047  0.91527  0.49766  1.0000
  C   C374      1.0  0.02354  0.60684  0.55344  1.0000
  H   H377      1.0  0.50261  0.54818  0.71763  1.0000
  Fe  Fe66      1.0  0.05644  0.82118  0.82524  1.0000
  S   S130      1.0  0.08109  0.83388  0.85173  1.0000
  S   S131      1.0  0.07921  0.80052  0.80371  1.0000
  Fe  Fe67      1.0  0.06751  0.88325  0.85018  1.0000
  S   S132      1.0  0.10380  0.94249  0.86181  1.0000
  C   C375      1.0  0.47512  0.00101  0.95136  1.0000
  Fe  Fe68      1.0  0.28272  0.85075  0.76595  1.0000
  S   S133      1.0  0.26194  0.84083  0.73875  1.0000
  S   S134      1.0  0.26059  0.87602  0.78581  1.0000
  Fe  Fe69      1.0  0.34663  0.82914  0.75972  1.0000
  H   H378      1.0  0.16217  0.92167  0.79535  1.0000
  S   S135      1.0  0.39393  0.81958  0.77189  1.0000
  H   H379      1.0  0.23154  0.90118  0.75232  1.0000
  H   H380      1.0  0.45002  0.52364  0.94285  1.0000
  Fe  Fe70      1.0  0.26817  0.78693  0.74153  1.0000
  H   H381      1.0  0.26868  0.64072  0.78787  1.0000
  S   S136      1.0  0.34737  0.88662  0.75908  1.0000
  S   S137      1.0  0.28406  0.79439  0.76918  1.0000
  Fe  Fe71      1.0  0.48847  0.66616  0.76204  1.0000
  H   H382      1.0  0.29263  0.59615  0.74295  1.0000
  S   S138      1.0  0.43387  0.62965  0.77808  1.0000
  H   H383      1.0  0.06812  0.52153  0.77090  1.0000
  H   H384      1.0  0.41074  0.89115  0.72703  1.0000
  S   S139      1.0  0.17678  0.57483  0.77471  1.0000
  C   C376      1.0  0.39169  0.59548  0.76696  1.0000
  C   C377      1.0  0.35442  0.57825  0.77482  1.0000
  C   C378      1.0  0.18896  0.90594  0.76794  1.0000
  C   C379      1.0  0.03327  0.66871  0.90360  1.0000
  H   H385      1.0  0.44879  0.71200  0.78827  1.0000
  C   C380      1.0  0.39488  0.58479  0.75050  1.0000
  H   H386      1.0  0.35182  0.58619  0.78761  1.0000
  S   S140      1.0  0.50805  0.78364  0.72839  1.0000
  H   H387      1.0  0.42350  0.59736  0.74443  1.0000
  C   C381      1.0  0.21613  0.68669  0.74227  1.0000
  H   H388      1.0  0.18043  0.84240  0.73752  1.0000
  C   C382      1.0  0.19836  0.61800  0.74456  1.0000
  C   C383      1.0  0.19230  0.61774  0.76206  1.0000
  C   C384      1.0  0.19854  0.65222  0.76966  1.0000
  C   C385      1.0  0.21087  0.68677  0.75983  1.0000
  H   H389      1.0  0.40761  0.82282  0.73521  1.0000
  H   H390      1.0  0.19374  0.65222  0.78319  1.0000
  H   H391      1.0  0.21505  0.71307  0.76575  1.0000
  C   C386      1.0  0.42447  0.80880  0.75941  1.0000
  C   C387      1.0  0.42589  0.81312  0.74166  1.0000
  C   C388      1.0  0.20043  0.88934  0.75524  1.0000
  S   S141      1.0  0.41059  0.94269  0.96799  1.0000
  C   C389      1.0  0.47368  0.78797  0.75814  1.0000
  C   C390      1.0  0.44845  0.79622  0.76759  1.0000
  H   H392      1.0  0.30483  0.72697  0.73402  1.0000
  H   H393      1.0  0.10960  0.81389  0.74552  1.0000
  Fe  Fe72      1.0  0.32673  0.87263  0.73217  1.0000
  H   H394      1.0  0.44774  0.79318  0.78131  1.0000
  C   C391      1.0  0.12161  0.85756  0.76429  1.0000
  C   C392      1.0  0.27959  0.61437  0.76647  1.0000
  H   H395      1.0  0.48096  0.66335  0.80749  1.0000
  C   C393      1.0  0.21088  0.85053  0.79272  1.0000
  C   C394      1.0  0.19889  0.86639  0.80564  1.0000
  C   C395      1.0  0.15867  0.84969  0.80995  1.0000
  C   C396      1.0  0.13017  0.81738  0.80116  1.0000
  C   C397      1.0  0.14232  0.80049  0.78876  1.0000
  C   C398      1.0  0.18258  0.81689  0.78459  1.0000
  H   H396      1.0  0.22073  0.89224  0.81206  1.0000
  H   H397      1.0  0.14963  0.86271  0.81962  1.0000
  H   H398      1.0  0.12041  0.77533  0.78199  1.0000
  H   H399      1.0  0.19155  0.80437  0.77468  1.0000
  C   C399      1.0  0.11569  0.98368  0.84871  1.0000
  Fe  Fe73      1.0  0.01780  0.79652  0.86015  1.0000
  C   C400      1.0  0.17175  0.85620  0.74704  1.0000
  H   H400      1.0  0.11862  0.95735  0.82554  1.0000
  C   C401      1.0  0.29764  0.68261  0.76721  1.0000
  Fe  Fe74      1.0  0.17272  0.52142  0.76272  1.0000
  C   C402      1.0  0.47548  0.79261  0.74043  1.0000
  C   C403      1.0  0.20976  0.65221  0.73467  1.0000
  H   H401      1.0  0.34945  0.96196  0.73481  1.0000
  C   C404      1.0  0.46171  0.97072  0.96377  1.0000
  C   C405      1.0  0.45363  0.00852  0.74571  1.0000
  H   H402      1.0  0.50990  0.78315  0.80696  1.0000
  C   C406      1.0  0.12197  0.98353  0.83126  1.0000
  C   C407      1.0  0.01926  0.96197  0.83645  1.0000
  C   C408      1.0  0.03590  0.52249  0.97419  1.0000
  H   H403      1.0  0.42921  0.89712  0.74846  1.0000
  C   C409      1.0  0.13844  0.90766  0.78569  1.0000
  C   C410      1.0  0.32779  0.72689  0.74250  1.0000
  H   H404      1.0  0.13202  0.92997  0.77993  1.0000
  C   C411      1.0  0.45161  0.80539  0.73222  1.0000
  C   C412      1.0  0.43437  0.52951  0.95311  1.0000
  C   C413      1.0  0.13204  0.84022  0.75152  1.0000
  N   N32       1.0  0.31223  0.68839  0.75100  1.0000
  C   C414      1.0  0.31045  0.65787  0.74229  1.0000
  C   C415      1.0  0.27687  0.66252  0.97159  1.0000
  S   S142      1.0  0.19173  0.52081  0.73609  1.0000
  H   H405      1.0  0.19373  0.59181  0.73854  1.0000
  S   S143      1.0  0.48578  0.67781  0.73424  1.0000
  H   H406      1.0  0.26589  0.58532  0.77239  1.0000
  C   C416      1.0  0.32376  0.53995  0.74974  1.0000
  N   N33       1.0  0.15001  0.88973  0.77244  1.0000
  H   H407      1.0  0.29773  0.70647  0.77389  1.0000
  C   C417      1.0  0.04603  0.69276  0.88893  1.0000
  H   H408      1.0  0.44065  0.72994  0.80792  1.0000
  H   H409      1.0  0.43247  0.95358  0.75929  1.0000
  H   H410      1.0  0.04220  0.69455  0.86161  1.0000
  C   C418      1.0  0.32050  0.55066  0.76621  1.0000
  C   C419      1.0  0.36104  0.55695  0.74197  1.0000
  H   H411      1.0  0.45397  0.00582  0.94422  1.0000
  H   H412      1.0  0.33659  0.75055  0.75185  1.0000
  H   H413      1.0  0.02981  0.95086  0.84729  1.0000
  H   H414      1.0  0.11177  0.88507  0.79269  1.0000
  C   C420      1.0  0.28139  0.64560  0.77523  1.0000
  H   H415      1.0  0.09082  0.84418  0.76812  1.0000
  S   S144      1.0  0.04793  0.87374  0.82296  1.0000
  H   H416      1.0  0.21166  0.93088  0.77463  1.0000
  C   C421      1.0  0.29426  0.62043  0.74991  1.0000
  H   H417      1.0  0.35457  0.73428  0.73490  1.0000
  S   S145      1.0  0.22958  0.72876  0.72943  1.0000
  H   H418      1.0  0.49260  0.77924  0.76465  1.0000
  H   H419      1.0  0.24752  0.63717  0.97024  1.0000
  N   N34       1.0  0.44785  0.95033  0.73365  1.0000
  C   C422      1.0  0.44380  0.96912  0.74724  1.0000
  C   C423      1.0  0.50217  0.69407  0.80936  1.0000
  H   H420      1.0  0.32618  0.76181  0.96715  1.0000
  H   H421      1.0  0.29206  0.53725  0.77244  1.0000
  H   H422      1.0  0.32128  0.66230  0.72932  1.0000
  C   C424      1.0  0.32117  0.73243  0.96984  1.0000
  H   H423      1.0  0.04229  0.68213  0.91592  1.0000
  H   H424      1.0  0.02208  0.56928  0.97318  1.0000
  H   H425      1.0  0.11767  0.56250  0.74922  1.0000
  H   H426      1.0  0.25962  0.70473  0.96336  1.0000
  H   H427      1.0  0.32904  0.58314  0.97287  1.0000
  H   H428      1.0  0.06421  0.72438  0.88987  1.0000
  C   C425      1.0  0.28352  0.70021  0.96781  1.0000
  C   C426      1.0  0.48917  0.96470  0.97299  1.0000
  C   C427      1.0  0.03351  0.67601  0.87304  1.0000
  C   C428      1.0  0.45049  0.71050  0.80237  1.0000
  H   H429      1.0  0.45748  0.55533  0.95990  1.0000
  H   H430      1.0  0.42934  0.67986  0.80662  1.0000
  H   H431      1.0  0.36380  0.54854  0.72929  1.0000
  H   H432      1.0  0.41282  0.53706  0.94735  1.0000
  S   S146      1.0  0.33081  0.81769  0.73237  1.0000
  H   H433      1.0  0.46169  0.90476  0.73102  1.0000
  H   H434      1.0  0.04500  0.98203  0.82832  1.0000
  N   N35       1.0  0.49104  0.72198  0.80749  1.0000
  C   C429      1.0  0.43685  0.90886  0.73516  1.0000
  N   N36       1.0  0.08330  0.52884  0.72837  1.0000
  C   C430      1.0  0.09015  0.53771  0.74520  1.0000
  H   H435      1.0  0.46579  0.78206  0.97410  1.0000
  Fe  Fe75      1.0  0.94924  0.17627  0.10426  1.0000
  S   S147      1.0  0.92298  0.16485  0.07802  1.0000
  S   S148      1.0  0.92146  0.18230  0.12832  1.0000
  H   H436      1.0  0.69674  0.38027  0.13897  1.0000
  S   S149      1.0  0.00779  0.22741  0.09601  1.0000
  H   H437      1.0  0.71658  0.03799  0.13416  1.0000
  S   S150      1.0  0.79614  0.50189  0.15057  1.0000
  Fe  Fe76      1.0  0.94871  0.12501  0.07600  1.0000
  S   S151      1.0  0.92295  0.06746  0.06260  1.0000
  N   N37       1.0  0.97552  0.43284  0.00619  1.0000
  S   S152      1.0  0.97013  0.13233  0.10290  1.0000
  S   S153      1.0  0.56641  0.41466  0.15136  1.0000
  Fe  Fe77      1.0  0.84350  0.48942  0.15959  1.0000
  C   C431      1.0  0.71637  0.05986  0.16582  1.0000
  S   S154      1.0  0.84274  0.43981  0.14573  1.0000
  H   H438      1.0  0.54748  0.27294  0.15423  1.0000
  C   C432      1.0  0.69797  0.32751  0.15931  1.0000
  Fe  Fe78      1.0  0.71958  0.15660  0.15164  1.0000
  S   S155      1.0  0.74243  0.16603  0.17837  1.0000
  S   S156      1.0  0.74007  0.13217  0.13093  1.0000
  Fe  Fe79      1.0  0.66538  0.19035  0.15812  1.0000
  S   S157      1.0  0.68346  0.20174  0.18542  1.0000
  S   S158      1.0  0.63168  0.21588  0.14460  1.0000
  Fe  Fe80      1.0  0.74487  0.22427  0.17560  1.0000
  S   S159      1.0  0.79533  0.28037  0.18550  1.0000
  Fe  Fe81      1.0  0.67882  0.14227  0.18562  1.0000
  C   C433      1.0  0.97496  0.49320  0.00957  1.0000
  S   S160      1.0  0.72733  0.21662  0.14826  1.0000
  S   S161      1.0  0.65532  0.12869  0.15894  1.0000
  H   H439      1.0  0.77271  0.04115  0.11833  1.0000
  C   C434      1.0  0.63915  0.05259  0.20822  1.0000
  H   H440      1.0  0.84510  0.23153  0.10303  1.0000
  H   H441      1.0  0.71911  0.41927  0.15369  1.0000
  H   H442      1.0  0.63967  0.05054  0.18093  1.0000
  C   C435      1.0  0.82733  0.39586  0.15741  1.0000
  C   C436      1.0  0.80410  0.36011  0.14942  1.0000
  C   C437      1.0  0.79284  0.32454  0.15818  1.0000
  C   C438      1.0  0.80598  0.32450  0.17478  1.0000
  C   C439      1.0  0.82917  0.36030  0.18281  1.0000
  C   C440      1.0  0.83928  0.39594  0.17425  1.0000
  H   H443      1.0  0.79479  0.35994  0.13640  1.0000
  H   H444      1.0  0.77464  0.29735  0.15189  1.0000
  H   H445      1.0  0.83943  0.36050  0.19566  1.0000
  H   H446      1.0  0.85749  0.42350  0.18044  1.0000
  C   C441      1.0  0.63373  0.03387  0.19276  1.0000
  C   C442      1.0  0.55555  0.25172  0.15877  1.0000
  C   C443      1.0  0.58499  0.24807  0.15027  1.0000
  C   C444      1.0  0.59609  0.22091  0.15610  1.0000
  C   C445      1.0  0.57789  0.19761  0.17059  1.0000
  C   C446      1.0  0.54758  0.20047  0.17880  1.0000
  N   N38       1.0  0.55682  0.43928  0.19792  1.0000
  H   H447      1.0  0.59911  0.26624  0.13910  1.0000
  H   H448      1.0  0.58634  0.17661  0.17515  1.0000
  C   C447      1.0  0.61232  0.42535  0.16012  1.0000
  C   C448      1.0  0.64640  0.46055  0.15545  1.0000
  C   C449      1.0  0.68237  0.47207  0.16388  1.0000
  C   C450      1.0  0.68404  0.44870  0.17721  1.0000
  C   C451      1.0  0.65052  0.41263  0.18130  1.0000
  C   C452      1.0  0.61483  0.40081  0.17267  1.0000
  H   H449      1.0  0.64467  0.47951  0.14566  1.0000
  H   H450      1.0  0.01020  0.31995  0.02466  1.0000
  H   H451      1.0  0.65179  0.39430  0.19153  1.0000
  H   H452      1.0  0.58905  0.37326  0.17610  1.0000
  C   C453      1.0  0.77662  0.05080  0.13136  1.0000
  H   H453      1.0  0.69696  0.02932  0.17063  1.0000
  C   C454      1.0  0.87101  0.16816  0.12873  1.0000
  C   C455      1.0  0.84659  0.15122  0.11471  1.0000
  C   C456      1.0  0.80647  0.14059  0.11546  1.0000
  C   C457      1.0  0.79073  0.14720  0.13014  1.0000
  C   C458      1.0  0.81525  0.16446  0.14410  1.0000
  C   C459      1.0  0.85521  0.17461  0.14344  1.0000
  H   H454      1.0  0.85849  0.14609  0.10334  1.0000
  H   H455      1.0  0.78757  0.12719  0.10462  1.0000
  H   H456      1.0  0.80340  0.16962  0.15547  1.0000
  H   H457      1.0  0.87404  0.18776  0.15431  1.0000
  H   H458      1.0  0.93645  0.39433  0.98754  1.0000
  H   H459      1.0  0.59200  0.48552  0.18020  1.0000
  H   H460      1.0  0.89591  0.05152  0.09789  1.0000
  H   H461      1.0  0.75723  0.36777  0.20060  1.0000
  H   H462      1.0  0.56433  0.05699  0.20786  1.0000
  H   H463      1.0  0.68179  0.31581  0.14762  1.0000
  H   H464      1.0  0.71935  0.29564  0.19638  1.0000
  Fe  Fe82      1.0  0.78534  0.50431  0.17824  1.0000
  N   N39       1.0  0.87354  0.27719  0.14746  1.0000
  C   C460      1.0  0.90128  0.27511  0.13769  1.0000
  C   C461      1.0  0.83594  0.26346  0.14155  1.0000
  C   C462      1.0  0.89164  0.25924  0.12146  1.0000
  C   C463      1.0  0.82519  0.24719  0.12543  1.0000
  C   C464      1.0  0.85331  0.24512  0.11535  1.0000
  C   C465      1.0  0.88339  0.29360  0.16450  1.0000
  H   H465      1.0  0.93087  0.28503  0.14246  1.0000
  H   H466      1.0  0.81399  0.26462  0.14947  1.0000
  H   H467      1.0  0.75684  0.41294  0.17820  1.0000
  C   C466      1.0  0.62793  0.45302  0.21230  1.0000
  C   C467      1.0  0.88465  0.02403  0.09146  1.0000
  H   H468      1.0  0.91482  0.30428  0.16782  1.0000
  H   H469      1.0  0.87777  0.31865  0.16532  1.0000
  H   H470      1.0  0.86448  0.27093  0.17418  1.0000
  C   C468      1.0  0.73995  0.35612  0.18916  1.0000
  S   S162      1.0  0.98918  0.25643  0.04862  1.0000
  H   H471      1.0  0.75002  0.40670  0.14142  1.0000
  C   C469      1.0  0.62781  0.47609  0.19854  1.0000
  C   C470      1.0  0.81854  0.07962  0.15564  1.0000
  C   C471      1.0  0.59179  0.46857  0.19137  1.0000
  C   C472      1.0  0.63051  0.03056  0.22350  1.0000
  C   C473      1.0  0.69731  0.30129  0.17185  1.0000
  H   H472      1.0  0.97176  0.05743  0.09281  1.0000
  Fe  Fe83      1.0  0.98312  0.21318  0.06963  1.0000
  S   S163      1.0  0.65357  0.10270  0.20895  1.0000
  S   S164      1.0  0.72570  0.46597  0.19039  1.0000
  C   C474      1.0  0.71867  0.31572  0.18680  1.0000
  C   C475      1.0  0.99057  0.40641  0.01113  1.0000
  H   H473      1.0  0.91334  0.25649  0.11396  1.0000
  H   H474      1.0  0.83875  0.06913  0.13199  1.0000
  C   C476      1.0  0.55205  0.04863  0.22098  1.0000
  H   H475      1.0  0.91019  0.43818  0.97908  1.0000
  C   C477      1.0  0.94688  0.42176  0.99400  1.0000
  N   N40       1.0  0.75017  0.06254  0.15659  1.0000
  H   H476      1.0  0.68076  0.27000  0.16983  1.0000
  C   C478      1.0  0.81366  0.06642  0.13903  1.0000
  H   H477      1.0  0.70819  0.49995  0.16066  1.0000
  C   C479      1.0  0.55656  0.41718  0.21172  1.0000
  S   S165      1.0  0.83019  0.48810  0.18723  1.0000
  H   H478      1.0  0.84746  0.09253  0.16156  1.0000
  H   H479      1.0  0.97078  0.38431  0.02075  1.0000
  C   C480      1.0  0.74500  0.04905  0.14038  1.0000
  C   C481      1.0  0.72126  0.39460  0.14823  1.0000
  H   H480      1.0  0.69892  0.06865  0.15734  1.0000
  N   N41       1.0  0.71894  0.36712  0.16174  1.0000
  C   C482      1.0  0.73978  0.38154  0.17641  1.0000
  C   C483      1.0  0.78622  0.07722  0.16434  1.0000
  H   H481      1.0  0.79036  0.08792  0.17718  1.0000
  H   H482      1.0  0.79500  0.23528  0.12098  1.0000
  S   S166      1.0  0.00634  0.17220  0.06516  1.0000
  H   H483      1.0  0.95672  0.01887  0.05322  1.0000
  C   C484      1.0  0.98600  0.04033  0.09597  1.0000
  H   H484      1.0  0.72591  0.07978  0.17679  1.0000
  H   H485      1.0  0.52149  0.43426  0.17630  1.0000
  C   C485      1.0  0.53613  0.22731  0.17283  1.0000
  C   C486      1.0  0.59210  0.42338  0.21898  1.0000
  H   H486      1.0  0.53278  0.18164  0.18973  1.0000
  C   C487      1.0  0.93178  0.44631  0.98921  1.0000
  C   C488      1.0  0.98912  0.46776  0.01417  1.0000
  H   H487      1.0  0.99301  0.39128  0.99984  1.0000
  H   H488      1.0  0.65585  0.45759  0.21744  1.0000
  C   C489      1.0  0.89226  0.02392  0.07413  1.0000
  H   H489      1.0  0.65557  0.49858  0.19303  1.0000
  H   H490      1.0  0.53111  0.05968  0.22274  1.0000
  H   H491      1.0  0.52876  0.39409  0.21700  1.0000
  H   H492      1.0  0.53285  0.04060  0.01465  1.0000
  H   H493      1.0  0.58504  0.45011  0.97900  1.0000
  C   C490      1.0  0.94620  0.48238  0.99696  1.0000
  H   H494      1.0  0.65533  0.48445  0.97620  1.0000
  H   H495      1.0  0.01155  0.47647  0.02393  1.0000
  C   C491      1.0  0.51950  0.43274  0.19043  1.0000
  H   H496      1.0  0.93593  0.50238  0.99282  1.0000
  Fe  Fe84      1.0  0.61614  0.46294  0.41114  1.0000
  S   S167      1.0  0.63910  0.47748  0.43770  1.0000
  S   S168      1.0  0.56777  0.40351  0.40300  1.0000
  C   C492      1.0  0.65651  0.37856  0.40826  1.0000
  H   H497      1.0  0.62438  0.09840  0.41560  1.0000
  C   C493      1.0  0.98694  0.03210  0.35044  1.0000
  H   H498      1.0  0.57807  0.33091  0.45277  1.0000
  C   C494      1.0  0.84612  0.22031  0.38678  1.0000
  Fe  Fe85      1.0  0.86680  0.41420  0.40612  1.0000
  S   S169      1.0  0.86631  0.40095  0.43407  1.0000
  S   S170      1.0  0.85403  0.45996  0.39461  1.0000
  Fe  Fe86      1.0  0.88737  0.35143  0.39629  1.0000
  S   S171      1.0  0.88816  0.33333  0.42348  1.0000
  S   S172      1.0  0.89486  0.32130  0.37359  1.0000
  Fe  Fe87      1.0  0.83318  0.33782  0.42631  1.0000
  S   S173      1.0  0.77930  0.29284  0.44100  1.0000
  Fe  Fe88      1.0  0.92119  0.39813  0.42847  1.0000
  C   C495      1.0  0.80042  0.48072  0.43376  1.0000
  S   S174      1.0  0.82997  0.35144  0.39877  1.0000
  S   S175      1.0  0.92420  0.41589  0.40089  1.0000
  C   C496      1.0  0.52854  0.28991  0.41638  1.0000
  C   C497      1.0  0.62009  0.08679  0.42859  1.0000
  S   S176      1.0  0.95306  0.10651  0.31280  1.0000
  H   H499      1.0  0.64406  0.26905  0.43370  1.0000
  H   H500      1.0  0.70775  0.32873  0.43195  1.0000
  Fe  Fe89      1.0  0.56248  0.15919  0.41303  1.0000
  S   S177      1.0  0.62216  0.17094  0.40387  1.0000
  S   S178      1.0  0.54946  0.16259  0.44032  1.0000
  C   C498      1.0  0.92558  0.30026  0.37469  1.0000
  C   C499      1.0  0.92922  0.28173  0.36036  1.0000
  C   C500      1.0  0.95301  0.26409  0.36087  1.0000
  C   C501      1.0  0.97312  0.26470  0.37577  1.0000
  C   C502      1.0  0.96892  0.28267  0.39019  1.0000
  C   C503      1.0  0.94556  0.30074  0.38962  1.0000
  H   H501      1.0  0.91370  0.28113  0.34878  1.0000
  H   H502      1.0  0.95592  0.25022  0.34971  1.0000
  C   C504      1.0  0.53455  0.42465  0.45001  1.0000
  H   H503      1.0  0.94277  0.31475  0.40076  1.0000
  C   C505      1.0  0.73517  0.26109  0.43033  1.0000
  C   C506      1.0  0.73404  0.25780  0.41265  1.0000
  C   C507      1.0  0.69917  0.23012  0.40466  1.0000
  C   C508      1.0  0.66482  0.20653  0.41421  1.0000
  C   C509      1.0  0.66550  0.21080  0.43183  1.0000
  C   C510      1.0  0.70072  0.23768  0.43987  1.0000
  H   H504      1.0  0.76010  0.27614  0.40515  1.0000
  H   H505      1.0  0.69867  0.22718  0.39101  1.0000
  H   H506      1.0  0.63921  0.19302  0.43933  1.0000
  H   H507      1.0  0.00631  0.35779  0.36165  1.0000
  H   H508      1.0  0.80784  0.27490  0.38239  1.0000
  H   H509      1.0  0.63476  0.04493  0.23551  1.0000
  H   H510      1.0  0.87333  0.03263  0.36246  1.0000
  H   H511      1.0  0.92777  0.02610  0.30677  1.0000
  C   C511      1.0  0.54341  0.29225  0.43282  1.0000
  C   C512      1.0  0.80390  0.48935  0.39838  1.0000
  C   C513      1.0  0.82497  0.47340  0.40665  1.0000
  C   C514      1.0  0.82322  0.46921  0.42438  1.0000
  Fe  Fe90      1.0  0.51994  0.19557  0.43041  1.0000
  C   C515      1.0  0.88558  0.03117  0.35040  1.0000
  C   C516      1.0  0.60448  0.10045  0.44084  1.0000
  H   H512      1.0  0.83977  0.45756  0.43091  1.0000
  H   H513      1.0  0.59669  0.12245  0.43708  1.0000
  C   C517      1.0  0.55914  0.36114  0.41462  1.0000
  C   C518      1.0  0.77859  0.49575  0.42548  1.0000
  H   H514      1.0  0.76673  0.22533  0.38504  1.0000
  C   C519      1.0  0.96851  0.48164  0.45864  1.0000
  S   S179      1.0  0.67607  0.49374  0.39876  1.0000
  H   H515      1.0  0.80218  0.23809  0.36808  1.0000
  H   H516      1.0  0.99475  0.49127  0.41386  1.0000
  C   C520      1.0  0.91131  0.06596  0.34140  1.0000
  C   C521      1.0  0.92610  0.06413  0.32555  1.0000
  H   H517      1.0  0.80359  0.25038  0.41516  1.0000
  H   H518      1.0  0.91856  0.09412  0.34643  1.0000
  H   H519      1.0  0.55519  0.42553  0.44066  1.0000
  H   H520      1.0  0.54311  0.50444  0.43308  1.0000
  C   C522      1.0  0.57469  0.36345  0.43092  1.0000
  Fe  Fe91      1.0  0.99700  0.16121  0.32614  1.0000
  N   N42       1.0  0.65536  0.32043  0.41936  1.0000
  H   H521      1.0  0.70890  0.43313  0.41352  1.0000
  C   C523      1.0  0.56632  0.32903  0.44008  1.0000
  C   C524      1.0  0.79851  0.24329  0.38158  1.0000
  H   H522      1.0  0.85878  0.05667  0.30298  1.0000
  H   H523      1.0  0.59311  0.39162  0.43651  1.0000
  C   C525      1.0  0.63455  0.27771  0.42178  1.0000
  C   C526      1.0  0.54892  0.44430  0.46528  1.0000
  H   H524      1.0  0.70136  0.24023  0.45355  1.0000
  C   C527      1.0  0.82180  0.23921  0.41014  1.0000
  C   C528      1.0  0.78048  0.50021  0.40775  1.0000
  C   C529      1.0  0.99315  0.46579  0.45613  1.0000
  C   C530      1.0  0.86957  0.21800  0.41506  1.0000
  H   H525      1.0  0.84504  0.23664  0.43486  1.0000
  H   H526      1.0  0.88943  0.20265  0.39253  1.0000
  H   H527      1.0  0.64088  0.04637  0.42369  1.0000
  H   H528      1.0  0.59186  0.40503  0.22959  1.0000
  C   C531      1.0  0.86989  0.21215  0.39766  1.0000
  S   S180      1.0  0.99594  0.21787  0.32719  1.0000
  H   H529      1.0  0.64191  0.39233  0.40155  1.0000
  C   C532      1.0  0.71290  0.38347  0.42338  1.0000
  N   N43       1.0  0.82262  0.23383  0.39307  1.0000
  H   H530      1.0  0.84767  0.21703  0.37321  1.0000
  H   H531      1.0  0.60217  0.26580  0.42302  1.0000
  C   C533      1.0  0.69422  0.40148  0.41494  1.0000
  H   H532      1.0  0.60825  0.32011  0.40522  1.0000
  C   C534      1.0  0.69300  0.34258  0.42541  1.0000
  H   H533      1.0  0.64029  0.26401  0.41080  1.0000
  C   C535      1.0  0.84523  0.23141  0.42139  1.0000
  H   H534      1.0  0.99830  0.34904  0.33059  1.0000
  H   H535      1.0  0.93905  0.46749  0.45336  1.0000
  H   H536      1.0  0.88860  0.21270  0.42357  1.0000
  S   S181      1.0  0.97866  0.42488  0.44317  1.0000
  C   C536      1.0  0.63754  0.33778  0.41047  1.0000
  H   H537      1.0  0.74254  0.40108  0.42836  1.0000
  H   H538      1.0  0.98421  0.28301  0.40180  1.0000
  S   S182      1.0  0.53725  0.19629  0.40335  1.0000
  H   H539      1.0  0.80540  0.49294  0.38467  1.0000
  C   C537      1.0  0.58182  0.10045  0.46979  1.0000
  H   H540      1.0  0.79918  0.47738  0.44748  1.0000
  S   S183      1.0  0.53367  0.24982  0.44462  1.0000
  N   N44       1.0  0.59836  0.08571  0.45718  1.0000
  S   S184      1.0  0.74837  0.50737  0.43768  1.0000
  H   H541      1.0  0.92181  0.48889  0.42438  1.0000
  H   H542      1.0  0.55840  0.10532  0.46401  1.0000
  H   H543      1.0  0.62985  0.02006  0.45353  1.0000
  Fe  Fe92      1.0  0.69863  0.51232  0.42519  1.0000
  C   C538      1.0  0.53590  0.32430  0.40741  1.0000
  S   S185      1.0  0.00467  0.24454  0.37683  1.0000
  C   C539      1.0  0.91636  0.02758  0.31904  1.0000
  C   C540      1.0  0.62376  0.04339  0.44989  1.0000
  C   C541      1.0  0.62953  0.05786  0.43315  1.0000
  H   H544      1.0  0.93998  0.50202  0.40282  1.0000
  C   C542      1.0  0.83971  0.02508  0.30229  1.0000
  H   H545      1.0  0.52400  0.32242  0.39476  1.0000
  C   C543      1.0  0.53273  0.51116  0.44450  1.0000
  C   C544      1.0  0.94083  0.51375  0.41562  1.0000
  H   H546      1.0  0.58050  0.46093  0.46764  1.0000
  H   H547      1.0  0.96599  0.04099  0.35431  1.0000
  S   S186      1.0  0.60634  0.51438  0.40788  1.0000
  C   C545      1.0  0.60848  0.05806  0.46187  1.0000
  H   H548      1.0  0.86303  0.02113  0.27821  1.0000
  H   H549      1.0  0.76402  0.51211  0.40127  1.0000
  C   C546      1.0  0.98231  0.51629  0.46780  1.0000
  H   H550      1.0  0.57740  0.06377  0.22982  1.0000
  H   H551      1.0  0.81280  0.01963  0.32660  1.0000
  S   S187      1.0  0.01608  0.16257  0.35324  1.0000
  S   S188      1.0  0.57072  0.16506  0.65151  1.0000
  Fe  Fe93      1.0  0.64269  0.49294  0.66351  1.0000
  H   H552      1.0  0.74451  0.06983  0.55954  1.0000
  S   S189      1.0  0.58314  0.44444  0.65526  1.0000
  C   C547      1.0  0.91456  0.25048  0.69199  1.0000
  Fe  Fe94      1.0  0.84776  0.28543  0.65350  1.0000
  S   S190      1.0  0.83549  0.26242  0.68050  1.0000
  S   S191      1.0  0.86692  0.26123  0.63203  1.0000
  Fe  Fe95      1.0  0.83771  0.35547  0.66126  1.0000
  S   S192      1.0  0.82553  0.33869  0.68886  1.0000
  S   S193      1.0  0.83184  0.40441  0.64839  1.0000
  Fe  Fe96      1.0  0.87517  0.32528  0.68759  1.0000
  C   C548      1.0  0.60958  0.30805  0.65549  1.0000
  Fe  Fe97      1.0  0.78713  0.27772  0.67964  1.0000
  S   S194      1.0  0.72904  0.24488  0.69362  1.0000
  S   S195      1.0  0.89107  0.34754  0.66060  1.0000
  S   S196      1.0  0.79570  0.29521  0.65199  1.0000
  Fe  Fe98      1.0  0.82034  0.05511  0.60352  1.0000
  S   S197      1.0  0.83185  0.07837  0.57659  1.0000
  S   S198      1.0  0.79947  0.07856  0.62464  1.0000
  Fe  Fe99      1.0  0.88144  0.06482  0.57715  1.0000
  S   S199      1.0  0.94038  0.10002  0.56404  1.0000
  S   S200      1.0  0.87368  0.04740  0.60480  1.0000
  C   C549      1.0  0.98143  0.11170  0.57698  1.0000
  H   H553      1.0  0.75279  0.46830  0.65535  1.0000
  C   C550      1.0  0.98327  0.12476  0.59349  1.0000
  H   H554      1.0  0.56744  0.07888  0.48047  1.0000
  H   H555      1.0  0.95804  0.12522  0.59884  1.0000
  C   C551      1.0  0.63887  0.33183  0.70700  1.0000
  C   C552      1.0  0.84735  0.21034  0.63003  1.0000
  C   C553      1.0  0.86201  0.19685  0.61718  1.0000
  C   C554      1.0  0.84805  0.15651  0.61555  1.0000
  C   C555      1.0  0.81920  0.12945  0.62676  1.0000
  C   C556      1.0  0.80453  0.14295  0.63960  1.0000
  C   C557      1.0  0.81858  0.18329  0.64126  1.0000
  H   H556      1.0  0.88436  0.21768  0.60848  1.0000
  H   H557      1.0  0.85940  0.14634  0.60558  1.0000
  H   H558      1.0  0.78205  0.12208  0.64826  1.0000
  H   H559      1.0  0.80715  0.19344  0.65122  1.0000
  C   C558      1.0  0.98630  0.39038  0.69566  1.0000
  H   H560      1.0  0.95193  0.30442  0.63970  1.0000
  C   C559      1.0  0.66023  0.29026  0.65324  1.0000
  H   H561      1.0  0.96969  0.38871  0.68431  1.0000
  C   C560      1.0  0.81092  0.42655  0.66044  1.0000
  C   C561      1.0  0.78878  0.44139  0.65226  1.0000
  C   C562      1.0  0.77052  0.45784  0.66173  1.0000
  C   C563      1.0  0.77511  0.46034  0.67939  1.0000
  C   C564      1.0  0.79783  0.44609  0.68750  1.0000
  C   C565      1.0  0.81530  0.42884  0.67810  1.0000
  H   H562      1.0  0.78520  0.43948  0.63860  1.0000
  H   H563      1.0  0.80227  0.44869  0.70111  1.0000
  H   H564      1.0  0.83295  0.41814  0.68445  1.0000
  H   H565      1.0  0.00414  0.19163  0.56205  1.0000
  N   N45       1.0  0.64408  0.29991  0.70693  1.0000
  C   C566      1.0  0.54268  0.36390  0.65748  1.0000
  C   C567      1.0  0.56763  0.39899  0.66573  1.0000
  C   C568      1.0  0.57944  0.39753  0.68242  1.0000
  C   C569      1.0  0.56641  0.36134  0.69085  1.0000
  C   C570      1.0  0.56131  0.49262  0.68667  1.0000
  H   H566      1.0  0.79811  0.18845  0.57638  1.0000
  H   H567      1.0  0.59775  0.42424  0.68905  1.0000
  C   C571      1.0  0.61435  0.18329  0.66349  1.0000
  C   C572      1.0  0.61368  0.18692  0.68107  1.0000
  C   C573      1.0  0.64911  0.20405  0.69026  1.0000
  C   C574      1.0  0.68543  0.21882  0.68187  1.0000
  C   C575      1.0  0.68615  0.21397  0.66437  1.0000
  C   C576      1.0  0.65051  0.19554  0.65523  1.0000
  H   H568      1.0  0.58583  0.17592  0.68762  1.0000
  H   H569      1.0  0.64845  0.20601  0.70392  1.0000
  H   H570      1.0  0.71404  0.22439  0.65786  1.0000
  H   H571      1.0  0.65104  0.19200  0.64166  1.0000
  Fe  Fe100     1.0  0.72061  0.50907  0.67917  1.0000
  H   H572      1.0  0.59926  0.25245  0.64626  1.0000
  H   H573      1.0  0.66717  0.39511  0.70820  1.0000
  H   H574      1.0  0.78363  0.14105  0.55321  1.0000
  C   C577      1.0  0.93821  0.28185  0.68093  1.0000
  H   H575      1.0  0.74398  0.34568  0.70917  1.0000
  C   C578      1.0  0.76614  0.14309  0.59531  1.0000
  C   C579      1.0  0.54268  0.32623  0.68246  1.0000
  C   C580      1.0  0.60961  0.26060  0.70546  1.0000
  C   C581      1.0  0.52236  0.44382  0.47716  1.0000
  C   C582      1.0  0.67698  0.35286  0.66356  1.0000
  H   H576      1.0  0.58196  0.51543  0.67748  1.0000
  S   S201      1.0  0.91519  0.33541  0.71034  1.0000
  S   S202      1.0  0.66407  0.50036  0.69042  1.0000
  S   S203      1.0  0.69740  0.49691  0.65263  1.0000
  H   H577      1.0  0.53320  0.46024  0.48874  1.0000
  C   C583      1.0  0.78058  0.15711  0.57895  1.0000
  H   H578      1.0  0.95402  0.31116  0.68588  1.0000
  C   C584      1.0  0.92158  0.23859  0.65794  1.0000
  H   H579      1.0  0.88117  0.17726  0.66348  1.0000
  C   C585      1.0  0.89747  0.20650  0.66859  1.0000
  C   C586      1.0  0.74448  0.10260  0.59856  1.0000
  H   H580      1.0  0.91170  0.25589  0.70523  1.0000
  C   C587      1.0  0.75051  0.09029  0.56967  1.0000
  C   C588      1.0  0.67134  0.36974  0.70805  1.0000
  H   H581      1.0  0.60315  0.04581  0.47474  1.0000
  H   H582      1.0  0.68559  0.27942  0.70717  1.0000
  C   C589      1.0  0.96519  0.30913  0.65262  1.0000
  H   H583      1.0  0.96724  0.33663  0.65717  1.0000
  H   H584      1.0  0.57913  0.30109  0.65385  1.0000
  C   C590      1.0  0.71490  0.03454  0.58960  1.0000
  Fe  Fe101     1.0  0.51974  0.16818  0.66313  1.0000
  S   S204      1.0  0.75208  0.47994  0.69182  1.0000
  H   H585      1.0  0.61393  0.23843  0.71273  1.0000
  H   H586      1.0  0.00920  0.16479  0.53468  1.0000
  C   C591      1.0  0.53047  0.32748  0.66578  1.0000
  N   N46       1.0  0.73758  0.07682  0.58588  1.0000
  H   H587      1.0  0.72942  0.30739  0.66625  1.0000
  H   H588      1.0  0.69892  0.38140  0.66810  1.0000
  H   H589      1.0  0.77254  0.16340  0.60554  1.0000
  H   H590      1.0  0.74484  0.34521  0.64977  1.0000
  C   C592      1.0  0.62082  0.28075  0.65124  1.0000
  H   H591      1.0  0.87453  0.18813  0.69405  1.0000
  N   N47       1.0  0.55747  0.51108  0.70193  1.0000
  H   H592      1.0  0.66902  0.26947  0.64942  1.0000
  C   C593      1.0  0.99865  0.03649  0.59752  1.0000
  H   H593      1.0  0.57453  0.36071  0.70398  1.0000
  H   H594      1.0  0.74393  0.35644  0.67178  1.0000
  H   H595      1.0  0.68274  0.02403  0.58865  1.0000
  C   C594      1.0  0.89376  0.21261  0.68571  1.0000
  H   H596      1.0  0.62938  0.36623  0.66449  1.0000
  C   C595      1.0  0.63782  0.34452  0.66154  1.0000
  C   C596      1.0  0.72836  0.33409  0.66198  1.0000
  H   H597      1.0  0.73457  0.40403  0.71017  1.0000
  C   C597      1.0  0.77255  0.13060  0.56599  1.0000
  H   H598      1.0  0.92389  0.23373  0.64459  1.0000
  H   H599      1.0  0.60938  0.32790  0.70640  1.0000
  H   H600      1.0  0.01272  0.10084  0.55739  1.0000
  H   H601      1.0  0.53311  0.36492  0.64460  1.0000
  H   H602      1.0  0.60550  0.12851  0.47488  1.0000
  C   C598      1.0  0.96673  0.36782  0.71013  1.0000
  N   N48       1.0  0.94068  0.27578  0.66406  1.0000
  H   H603      1.0  0.73423  0.09192  0.61143  1.0000
  N   N49       1.0  0.68745  0.32542  0.65978  1.0000
  H   H604      1.0  0.93892  0.02665  0.59611  1.0000
  H   H605      1.0  0.99538  0.31312  0.65175  1.0000
  H   H606      1.0  0.72247  0.01810  0.58052  1.0000
  H   H607      1.0  0.60418  0.25251  0.69187  1.0000
  S   S205      1.0  0.53059  0.28178  0.69312  1.0000
  C   C599      1.0  0.70932  0.37478  0.70901  1.0000
  C   C600      1.0  0.68132  0.30466  0.70744  1.0000
  H   H608      1.0  0.72184  0.02756  0.60255  1.0000
  H   H609      1.0  0.57277  0.47240  0.68987  1.0000
  C   C601      1.0  0.71450  0.34213  0.70856  1.0000
  H   H610      1.0  0.00680  0.05715  0.60771  1.0000
  H   H611      1.0  0.58250  0.25915  0.71071  1.0000
  H   H612      1.0  0.53241  0.47477  0.68028  1.0000
  C   C602      1.0  0.96021  0.01939  0.59103  1.0000
  C   C603      1.0  0.01423  0.11137  0.57010  1.0000
  H   H613      1.0  0.60966  0.51609  0.71337  1.0000
  Fe  Fe102     1.0  0.61607  0.09991  0.93474  1.0000
  S   S206      1.0  0.59436  0.09402  0.90783  1.0000
  S   S207      1.0  0.59443  0.04929  0.95379  1.0000
  Fe  Fe103     1.0  0.68165  0.18435  0.92869  1.0000
  S   S208      1.0  0.66560  0.18456  0.90135  1.0000
  S   S209      1.0  0.73145  0.23652  0.94144  1.0000
  Fe  Fe104     1.0  0.60325  0.15466  0.91101  1.0000
  S   S210      1.0  0.56553  0.17737  0.89898  1.0000
  Fe  Fe105     1.0  0.65875  0.12454  0.90076  1.0000
  S   S211      1.0  0.67980  0.10706  0.87764  1.0000
  S   S212      1.0  0.61963  0.15813  0.93860  1.0000
  S   S213      1.0  0.68013  0.12657  0.92740  1.0000
  H   H614      1.0  0.75008  0.49074  0.90960  1.0000
  C   C604      1.0  0.64748  0.29792  0.90695  1.0000
  C   C605      1.0  0.01221  0.11380  0.82637  1.0000
  C   C606      1.0  0.54852  0.20060  0.92904  1.0000
  Fe  Fe106     1.0  0.54755  0.39836  0.91208  1.0000
  S   S214      1.0  0.60836  0.43992  0.90149  1.0000
  C   C607      1.0  0.68612  0.51167  0.95293  1.0000
  C   C608      1.0  0.99452  0.46666  0.95693  1.0000
  C   C609      1.0  0.79769  0.21293  0.92369  1.0000
  H   H615      1.0  0.83877  0.28539  0.91014  1.0000
  Fe  Fe107     1.0  0.85409  0.44790  0.90952  1.0000
  S   S215      1.0  0.83831  0.39036  0.89779  1.0000
  S   S216      1.0  0.84959  0.45450  0.93748  1.0000
  H   H616      1.0  0.68919  0.28554  0.94290  1.0000
  H   H617      1.0  0.55541  0.18010  0.93549  1.0000
  C   C610      1.0  0.64928  0.44217  0.91226  1.0000
  C   C611      1.0  0.64484  0.42317  0.92804  1.0000
  C   C612      1.0  0.67824  0.42936  0.93738  1.0000
  S   S217      1.0  0.81598  0.47330  0.90173  1.0000
  H   H618      1.0  0.76537  0.38570  0.93562  1.0000
  H   H619      1.0  0.74813  0.16909  0.89945  1.0000
  H   H620      1.0  0.61578  0.40450  0.93329  1.0000
  H   H621      1.0  0.67457  0.41543  0.94980  1.0000
  C   C613      1.0  0.65427  0.27878  0.92065  1.0000
  C   C614      1.0  0.67044  0.33862  0.90504  1.0000
  C   C615      1.0  0.94049  0.07291  0.82516  1.0000
  C   C616      1.0  0.97799  0.08582  0.81809  1.0000
  C   C617      1.0  0.70042  0.35957  0.91677  1.0000
  C   C618      1.0  0.97150  0.11689  0.84859  1.0000
  C   C619      1.0  0.93733  0.08838  0.84048  1.0000
  C   C620      1.0  0.52913  0.25269  0.91244  1.0000
  H   H622      1.0  0.96881  0.12901  0.86037  1.0000
  H   H623      1.0  0.90850  0.07879  0.84596  1.0000
  C   C621      1.0  0.75896  0.28033  0.92951  1.0000
  C   C622      1.0  0.79221  0.31156  0.93688  1.0000
  C   C623      1.0  0.81573  0.34628  0.92743  1.0000
  C   C624      1.0  0.80624  0.34969  0.91051  1.0000
  C   C625      1.0  0.77240  0.31894  0.90330  1.0000
  C   C626      1.0  0.74873  0.28438  0.91279  1.0000
  H   H624      1.0  0.80018  0.30868  0.94984  1.0000
  H   H625      1.0  0.84201  0.36989  0.93302  1.0000
  H   H626      1.0  0.76488  0.32159  0.89023  1.0000
  H   H627      1.0  0.72293  0.26092  0.90706  1.0000
  C   C627      1.0  0.55182  0.20527  0.91134  1.0000
  S   S218      1.0  0.53617  0.37910  0.93948  1.0000
  H   H628      1.0  0.54479  0.23519  0.88940  1.0000
  C   C628      1.0  0.73814  0.36345  0.94236  1.0000
  C   C629      1.0  0.54232  0.23151  0.90310  1.0000
  C   C630      1.0  0.70924  0.08458  0.87924  1.0000
  C   C631      1.0  0.71397  0.06685  0.86488  1.0000
  C   C632      1.0  0.73592  0.04728  0.86583  1.0000
  C   C633      1.0  0.71629  0.45401  0.93085  1.0000
  C   C634      1.0  0.74989  0.06448  0.89538  1.0000
  C   C635      1.0  0.72732  0.08340  0.89452  1.0000
  H   H629      1.0  0.70015  0.06776  0.85300  1.0000
  H   H630      1.0  0.80853  0.23733  0.93279  1.0000
  H   H631      1.0  0.98059  0.07388  0.80625  1.0000
  H   H632      1.0  0.72372  0.09669  0.90570  1.0000
  C   C636      1.0  0.61283  0.49631  0.94086  1.0000
  N   N50       1.0  0.70711  0.34053  0.93009  1.0000
  C   C637      1.0  0.68411  0.30072  0.93229  1.0000
  C   C638      1.0  0.96196  0.01972  0.85687  1.0000
  C   C639      1.0  0.52422  0.24696  0.93005  1.0000
  C   C640      1.0  0.58153  0.46721  0.96833  1.0000
  C   C641      1.0  0.81440  0.27709  0.88502  1.0000
  C   C642      1.0  0.00304  0.03953  0.85512  1.0000
  H   H633      1.0  0.71841  0.39119  0.91516  1.0000
  C   C643      1.0  0.81766  0.26425  0.90141  1.0000
  H   H634      1.0  0.57614  0.49014  0.97357  1.0000
  H   H635      1.0  0.76860  0.18973  0.92873  1.0000
  C   C644      1.0  0.76679  0.19955  0.89553  1.0000
  H   H636      1.0  0.62443  0.28118  0.89785  1.0000
  H   H637      1.0  0.63655  0.24713  0.92224  1.0000
  H   H638      1.0  0.97362  0.35298  0.73605  1.0000
  H   H639      1.0  0.83263  0.30781  0.88124  1.0000
  H   H640      1.0  0.66508  0.35394  0.89458  1.0000
  H   H641      1.0  0.78323  0.26018  0.86119  1.0000
  C   C645      1.0  0.76267  0.21138  0.87907  1.0000
  H   H642      1.0  0.72805  0.37894  0.95083  1.0000
  N   N51       1.0  0.61635  0.48545  0.95717  1.0000
  C   C646      1.0  0.98861  0.37045  0.72483  1.0000
  C   C647      1.0  0.68735  0.46586  0.90549  1.0000
  H   H643      1.0  0.81849  0.20135  0.92348  1.0000
  N   N52       1.0  0.79357  0.22603  0.90655  1.0000
  C   C648      1.0  0.75379  0.04585  0.88113  1.0000
  C   C649      1.0  0.78651  0.25048  0.87384  1.0000
  S   S219      1.0  0.91105  0.50494  0.90607  1.0000
  H   H644      1.0  0.74627  0.34469  0.95027  1.0000
  S   S220      1.0  0.89808  0.03778  0.81455  1.0000
  H   H645      1.0  0.94876  0.47013  0.94252  1.0000
  H   H646      1.0  0.76366  0.06343  0.90725  1.0000
  Fe  Fe108     1.0  0.81488  0.48377  0.92944  1.0000
  H   H647      1.0  0.98656  0.43784  0.95250  1.0000
  C   C650      1.0  0.72081  0.47158  0.91472  1.0000
  S   S221      1.0  0.75748  0.46358  0.94344  1.0000
  H   H648      1.0  0.73874  0.03302  0.85479  1.0000
  C   C651      1.0  0.97311  0.48489  0.95126  1.0000
  H   H649      1.0  0.69101  0.48059  0.89326  1.0000
  H   H650      1.0  0.74088  0.19026  0.87051  1.0000
  H   H651      1.0  0.55481  0.44634  0.96121  1.0000
  H   H652      1.0  0.99280  0.44772  0.73133  1.0000
  C   C652      1.0  0.00901  0.12961  0.84160  1.0000
  H   H653      1.0  0.53043  0.21640  0.95198  1.0000
  C   C653      1.0  0.53435  0.22115  0.93836  1.0000
  H   H654      1.0  0.94727  0.03420  0.86232  1.0000
  H   H655      1.0  0.00666  0.20303  0.83302  1.0000
  H   H656      1.0  0.60461  0.03369  0.88855  1.0000
  H   H657      1.0  0.60625  0.02325  0.91930  1.0000
  Fe  Fe109     1.0  0.90311  0.51396  0.93352  1.0000
  H   H658      1.0  0.52092  0.27192  0.90587  1.0000
  S   S222      1.0  0.77909  0.01921  0.88330  1.0000
  H   H659      1.0  0.58423  0.48984  0.93589  1.0000
  H   H660      1.0  0.52580  0.04863  0.93864  1.0000
  C   C654      1.0  0.65244  0.49310  0.96330  1.0000
  H   H661      1.0  0.01645  0.25269  0.83452  1.0000
  C   C655      1.0  0.54325  0.01924  0.95737  1.0000
  H   H662      1.0  0.00484  0.46350  0.76202  1.0000
  C   C656      1.0  0.64593  0.51523  0.93021  1.0000
  Fe  Fe110     1.0  0.53567  0.65365  0.02343  1.0000
  S   S223      1.0  0.55652  0.67971  0.99727  1.0000
  S   S224      1.0  0.57126  0.67983  0.04727  1.0000
  H   H663      1.0  0.92647  0.91430  0.04595  1.0000
  Fe  Fe111     1.0  0.82781  0.85673  0.09399  1.0000
  S   S225      1.0  0.84326  0.85165  0.06718  1.0000
  S   S226      1.0  0.82458  0.90819  0.10422  1.0000
  Fe  Fe112     1.0  0.82346  0.78015  0.10545  1.0000
  S   S227      1.0  0.83926  0.76927  0.07958  1.0000
  S   S228      1.0  0.80621  0.73857  0.12828  1.0000
  Fe  Fe113     1.0  0.88441  0.83354  0.07912  1.0000
  S   S229      1.0  0.94440  0.85885  0.06660  1.0000
  Fe  Fe114     1.0  0.79670  0.78815  0.06987  1.0000
  S   S230      1.0  0.75786  0.75610  0.04752  1.0000
  S   S231      1.0  0.87228  0.84301  0.10587  1.0000
  S   S232      1.0  0.77750  0.79453  0.09579  1.0000
  Fe  Fe115     1.0  0.84233  0.56531  0.15256  1.0000
  S   S233      1.0  0.82702  0.56938  0.17963  1.0000
  S   S234      1.0  0.85745  0.60906  0.13071  1.0000
  H   H664      1.0  0.61142  0.78700  0.05039  1.0000
  Fe  Fe116     1.0  0.87330  0.55289  0.18631  1.0000
  H   H665      1.0  0.93574  0.63763  0.17716  1.0000
  S   S235      1.0  0.89123  0.55277  0.15931  1.0000
  H   H666      1.0  0.72278  0.81046  0.02981  1.0000
  C   C657      1.0  0.98007  0.01151  0.05271  1.0000
  C   C658      1.0  0.87700  0.98818  0.06586  1.0000
  H   H667      1.0  0.87157  0.69396  0.19269  1.0000
  C   C659      1.0  0.66937  0.80167  0.04176  1.0000
  H   H668      1.0  0.61449  0.97864  0.18063  1.0000
  H   H669      1.0  0.55212  0.73475  0.02920  1.0000
  H   H670      1.0  0.89893  0.64968  0.19924  1.0000
  C   C660      1.0  0.77430  0.63586  0.09085  1.0000
  S   S236      1.0  0.91311  0.58367  0.20864  1.0000
  H   H671      1.0  0.96873  0.59694  0.18126  1.0000
  C   C661      1.0  0.82147  0.70336  0.12914  1.0000
  C   C662      1.0  0.80734  0.67470  0.14227  1.0000
  C   C663      1.0  0.81780  0.64522  0.14286  1.0000
  C   C664      1.0  0.84248  0.64445  0.13030  1.0000
  C   C665      1.0  0.85671  0.67321  0.11724  1.0000
  C   C666      1.0  0.84634  0.70267  0.11667  1.0000
  H   H672      1.0  0.78804  0.67515  0.15194  1.0000
  H   H673      1.0  0.80685  0.62319  0.15300  1.0000
  H   H674      1.0  0.87597  0.67279  0.10753  1.0000
  H   H675      1.0  0.85746  0.72472  0.10655  1.0000
  C   C667      1.0  0.62280  0.69860  0.04752  1.0000
  C   C668      1.0  0.64291  0.69690  0.03326  1.0000
  C   C669      1.0  0.68428  0.71389  0.03360  1.0000
  C   C670      1.0  0.70582  0.73303  0.04811  1.0000
  C   C671      1.0  0.68568  0.73436  0.06245  1.0000
  C   C672      1.0  0.64425  0.71697  0.06217  1.0000
  H   H676      1.0  0.62662  0.68266  0.02194  1.0000
  H   H677      1.0  0.69971  0.71269  0.02248  1.0000
  H   H678      1.0  0.70196  0.74928  0.07365  1.0000
  H   H679      1.0  0.62877  0.71838  0.07324  1.0000
  C   C673      1.0  0.61004  0.97104  0.20790  1.0000
  H   H680      1.0  0.92033  0.71385  0.14238  1.0000
  H   H681      1.0  0.85723  0.98833  0.11400  1.0000
  H   H682      1.0  0.72268  0.67201  0.12368  1.0000
  H   H683      1.0  0.95722  0.86884  0.10317  1.0000
  H   H684      1.0  0.61982  0.76646  0.99815  1.0000
  N   N53       1.0  0.61184  0.77672  0.02395  1.0000
  H   H685      1.0  0.73086  0.70216  0.07815  1.0000
  C   C674      1.0  0.85574  0.95257  0.07498  1.0000
  C   C675      1.0  0.84897  0.95249  0.09238  1.0000
  C   C676      1.0  0.86273  0.98829  0.10055  1.0000
  H   H686      1.0  0.72446  0.70866  0.10940  1.0000
  H   H687      1.0  0.84395  0.92517  0.06848  1.0000
  C   C677      1.0  0.00069  0.96423  0.05045  1.0000
  C   C678      1.0  0.95204  0.66731  0.14553  1.0000
  S   S237      1.0  0.58904  0.91971  0.20715  1.0000
  H   H688      1.0  0.68371  0.65875  0.10808  1.0000
  N   N54       1.0  0.97118  0.97339  0.05109  1.0000
  N   N55       1.0  0.73820  0.66839  0.09804  1.0000
  H   H689      1.0  0.56225  0.78484  0.02709  1.0000
  C   C679      1.0  0.67387  0.78909  0.01227  1.0000
  C   C680      1.0  0.74288  0.68341  0.08180  1.0000
  C   C681      1.0  0.71592  0.67713  0.11039  1.0000
  H   H690      1.0  0.79686  0.64592  0.06520  1.0000
  C   C682      1.0  0.89475  0.70723  0.16711  1.0000
  C   C683      1.0  0.98738  0.88179  0.07908  1.0000
  C   C684      1.0  0.77992  0.65175  0.07435  1.0000
  H   H691      1.0  0.91181  0.95048  0.04260  1.0000
  H   H692      1.0  0.78697  0.61769  0.09468  1.0000
  C   C685      1.0  0.53003  0.98156  0.21166  1.0000
  C   C686      1.0  0.98521  0.61094  0.19256  1.0000
  H   H693      1.0  0.55103  0.98410  0.97689  1.0000
  H   H694      1.0  0.74910  0.63215  0.11540  1.0000
  C   C687      1.0  0.96385  0.99942  0.09682  1.0000
  H   H695      1.0  0.88158  0.98810  0.05233  1.0000
  C   C688      1.0  0.56951  0.76302  0.02206  1.0000
  C   C689      1.0  0.63360  0.77663  0.01042  1.0000
  H   H696      1.0  0.54386  0.99329  0.19938  1.0000
  H   H697      1.0  0.88267  0.72627  0.16399  1.0000
  C   C690      1.0  0.76382  0.67540  0.06972  1.0000
  C   C691      1.0  0.75293  0.64427  0.10256  1.0000
  C   C692      1.0  0.98549  0.88361  0.09675  1.0000
  H   H698      1.0  0.76802  0.68809  0.05694  1.0000
  C   C693      1.0  0.92444  0.65734  0.17425  1.0000
  C   C694      1.0  0.96521  0.60832  0.20762  1.0000
  C   C695      1.0  0.90366  0.66418  0.18683  1.0000
  H   H699      1.0  0.55998  0.75839  0.00853  1.0000
  C   C696      1.0  0.92974  0.94205  0.05089  1.0000
  C   C697      1.0  0.91599  0.69997  0.15489  1.0000
  H   H700      1.0  0.94391  0.67232  0.13247  1.0000
  H   H701      1.0  0.93229  0.98447  0.09449  1.0000
  H   H702      1.0  0.68281  0.81027  0.05421  1.0000
  H   H703      1.0  0.96546  0.94591  0.10150  1.0000
  C   C698      1.0  0.62907  0.78853  0.03952  1.0000
  H   H704      1.0  0.98428  0.68660  0.14745  1.0000
  H   H705      1.0  0.69087  0.78813  0.00166  1.0000
  C   C699      1.0  0.69183  0.80181  0.02805  1.0000
  C   C700      1.0  0.88842  0.68901  0.18315  1.0000
  N   N56       1.0  0.92983  0.67468  0.15844  1.0000
  H   H706      1.0  0.91751  0.93577  0.06401  1.0000
  C   C701      1.0  0.61933  0.99319  0.19262  1.0000
  C   C702      1.0  0.61600  0.98992  0.22335  1.0000
  C   C703      1.0  0.98246  0.97775  0.10078  1.0000
  H   H707      1.0  0.94474  0.63612  0.14617  1.0000
  H   H708      1.0  0.99354  0.93407  0.04902  1.0000
  H   H709      1.0  0.98687  0.52148  0.01548  1.0000
  C   C704      1.0  0.98706  0.62605  0.22228  1.0000
  Fe  Fe117     1.0  0.52377  0.61704  0.98879  1.0000
  N   N57       1.0  0.53214  0.00609  0.22417  1.0000
  Fe  Fe118     1.0  0.77718  0.82801  0.32026  1.0000
  S   S238      1.0  0.76822  0.83955  0.34722  1.0000
  S   S239      1.0  0.73225  0.80781  0.29908  1.0000
  Fe  Fe119     1.0  0.86332  0.85095  0.32618  1.0000
  S   S240      1.0  0.86157  0.86477  0.35342  1.0000
  S   S241      1.0  0.91737  0.85766  0.31291  1.0000
  Fe  Fe120     1.0  0.80265  0.80923  0.35424  1.0000
  S   S242      1.0  0.79226  0.76959  0.37732  1.0000
  Fe  Fe121     1.0  0.82786  0.89378  0.34395  1.0000
  S   S243      1.0  0.84031  0.95155  0.35453  1.0000
  S   S244      1.0  0.80689  0.79314  0.32752  1.0000
  S   S245      1.0  0.83410  0.88445  0.31645  1.0000
  C   C705      1.0  0.82762  0.71357  0.33858  1.0000
  S   S246      1.0  0.69573  0.56807  0.42363  1.0000
  S   S247      1.0  0.68073  0.58551  0.37430  1.0000
  H   H710      1.0  0.58429  0.61309  0.38823  1.0000
  Fe  Fe122     1.0  0.57694  0.86110  0.26734  1.0000
  S   S248      1.0  0.58861  0.84430  0.24189  1.0000
  S   S249      1.0  0.61642  0.87623  0.29048  1.0000
  H   H711      1.0  0.70862  0.84855  0.32231  1.0000
  C   C706      1.0  0.58830  0.72826  0.25321  1.0000
  S   S250      1.0  0.55775  0.90262  0.25654  1.0000
  C   C707      1.0  0.99405  0.56827  0.43104  1.0000
  C   C708      1.0  0.56933  0.75625  0.27617  1.0000
  H   H712      1.0  0.66355  0.63540  0.44189  1.0000
  H   H713      1.0  0.71120  0.70567  0.43503  1.0000
  C   C709      1.0  0.96078  0.87207  0.32475  1.0000
  C   C710      1.0  0.96005  0.87012  0.34253  1.0000
  C   C711      1.0  0.99497  0.88072  0.35164  1.0000
  C   C712      1.0  0.69111  0.70227  0.40917  1.0000
  N   N58       1.0  0.98137  0.53468  0.42212  1.0000
  C   C713      1.0  0.57166  0.76819  0.29293  1.0000
  H   H714      1.0  0.93264  0.86013  0.34929  1.0000
  H   H715      1.0  0.97172  0.62404  0.23398  1.0000
  H   H716      1.0  0.99421  0.87879  0.36540  1.0000
  C   C714      1.0  0.81828  0.67228  0.36893  1.0000
  C   C715      1.0  0.87506  0.99457  0.34369  1.0000
  C   C716      1.0  0.89108  0.99289  0.32813  1.0000
  H   H717      1.0  0.86178  0.72792  0.37864  1.0000
  H   H718      1.0  0.88345  0.96495  0.32289  1.0000
  C   C717      1.0  0.76143  0.71855  0.37610  1.0000
  C   C718      1.0  0.75938  0.69467  0.39008  1.0000
  C   C719      1.0  0.73466  0.65381  0.38969  1.0000
  C   C720      1.0  0.71195  0.63660  0.37528  1.0000
  C   C721      1.0  0.71415  0.66047  0.36125  1.0000
  C   C722      1.0  0.73884  0.70140  0.36164  1.0000
  H   H719      1.0  0.77691  0.70784  0.40128  1.0000
  H   H720      1.0  0.73341  0.63571  0.40051  1.0000
  H   H721      1.0  0.69670  0.64725  0.35003  1.0000
  H   H722      1.0  0.74028  0.71964  0.35081  1.0000
  C   C723      1.0  0.70361  0.83077  0.29635  1.0000
  C   C724      1.0  0.68610  0.82931  0.28052  1.0000
  C   C725      1.0  0.66004  0.84409  0.27843  1.0000
  C   C726      1.0  0.65143  0.86044  0.29217  1.0000
  C   C727      1.0  0.66983  0.86288  0.30788  1.0000
  C   C728      1.0  0.69582  0.84801  0.30999  1.0000
  H   H723      1.0  0.69214  0.81608  0.26992  1.0000
  H   H724      1.0  0.64627  0.84238  0.26625  1.0000
  H   H725      1.0  0.66293  0.87519  0.31858  1.0000
  S   S251      1.0  0.61117  0.55505  0.45384  1.0000
  H   H726      1.0  0.60921  0.97321  0.23519  1.0000
  C   C729      1.0  0.69080  0.68704  0.42543  1.0000
  H   H727      1.0  0.60732  0.58283  0.38922  1.0000
  H   H728      1.0  0.61288  0.72329  0.24958  1.0000
  H   H729      1.0  0.99744  0.88696  0.30240  1.0000
  C   C730      1.0  0.87810  0.77476  0.35142  1.0000
  C   C731      1.0  0.63866  0.62383  0.41665  1.0000
  C   C732      1.0  0.59661  0.76338  0.30436  1.0000
  H   H730      1.0  0.96335  0.52878  0.46943  1.0000
  H   H731      1.0  0.53772  0.99614  0.43677  1.0000
  C   C733      1.0  0.61284  0.61333  0.38754  1.0000
  H   H732      1.0  0.61796  0.59330  0.41980  1.0000
  C   C734      1.0  0.61862  0.74648  0.29896  1.0000
  H   H733      1.0  0.55967  0.70087  0.25134  1.0000
  C   C735      1.0  0.84517  0.71255  0.36751  1.0000
  C   C736      1.0  0.79261  0.94416  0.30144  1.0000
  H   H734      1.0  0.71209  0.73273  0.40593  1.0000
  H   H735      1.0  0.73304  0.93492  0.32552  1.0000
  C   C737      1.0  0.54591  0.54453  0.47120  1.0000
  C   C738      1.0  0.81848  0.96435  0.28793  1.0000
  H   H736      1.0  0.82018  0.94841  0.27722  1.0000
  C   C739      1.0  0.66521  0.67756  0.39684  1.0000
  H   H737      1.0  0.78197  0.65855  0.32874  1.0000
  C   C740      1.0  0.66427  0.64764  0.42926  1.0000
  H   H738      1.0  0.77353  0.62171  0.35603  1.0000
  H   H739      1.0  0.97442  0.57984  0.43322  1.0000
  C   C741      1.0  0.99673  0.88534  0.31616  1.0000
  H   H740      1.0  0.77417  0.91250  0.30096  1.0000
  H   H741      1.0  0.76399  0.91457  0.33217  1.0000
  C   C742      1.0  0.80010  0.67340  0.33962  1.0000
  Fe  Fe123     1.0  0.63371  0.53129  0.43360  1.0000
  N   N59       1.0  0.63994  0.63872  0.40059  1.0000
  Fe  Fe124     1.0  0.56477  0.88207  0.23113  1.0000
  S   S252      1.0  0.54208  0.95262  0.46569  1.0000
  H   H742      1.0  0.90767  0.78089  0.35597  1.0000
  C   C743      1.0  0.51871  0.98078  0.46286  1.0000
  N   N60       1.0  0.79098  0.96394  0.31518  1.0000
  C   C744      1.0  0.79551  0.65268  0.35490  1.0000
  C   C745      1.0  0.61565  0.73500  0.28208  1.0000
  H   H743      1.0  0.66633  0.68943  0.38411  1.0000
  N   N61       1.0  0.59150  0.74035  0.27089  1.0000
  H   H744      1.0  0.62581  0.62323  0.37460  1.0000
  C   C746      1.0  0.84228  0.00507  0.28843  1.0000
  H   H745      1.0  0.77205  0.95907  0.34101  1.0000
  H   H746      1.0  0.88194  0.78691  0.33819  1.0000
  H   H747      1.0  0.94229  0.97211  0.34610  1.0000
  C   C747      1.0  0.55984  0.53579  0.45650  1.0000
  H   H748      1.0  0.86760  0.79062  0.35945  1.0000
  H   H749      1.0  0.81410  0.65660  0.38099  1.0000
  H   H750      1.0  0.59974  0.77382  0.31722  1.0000
  C   C748      1.0  0.00106  0.98266  0.34062  1.0000
  C   C749      1.0  0.76349  0.94210  0.32912  1.0000
  H   H751      1.0  0.99056  0.95269  0.33692  1.0000
  C   C750      1.0  0.97364  0.99350  0.34576  1.0000
  H   H752      1.0  0.63913  0.74380  0.30759  1.0000
  H   H753      1.0  0.63361  0.72278  0.27792  1.0000
  C   C751      1.0  0.81375  0.00393  0.31565  1.0000
  H   H754      1.0  0.83079  0.72952  0.32668  1.0000
  H   H755      1.0  0.55029  0.76041  0.26726  1.0000
  Fe  Fe125     1.0  0.66872  0.54712  0.39800  1.0000
  N   N62       1.0  0.84982  0.73255  0.35243  1.0000
  H   H756      1.0  0.55526  0.78230  0.29688  1.0000
  C   C752      1.0  0.52228  0.00018  0.44718  1.0000
  H   H757      1.0  0.58927  0.75138  0.24440  1.0000
  H   H758      1.0  0.92763  0.53307  0.41423  1.0000
  Fe  Fe126     1.0  0.52508  0.79633  0.24331  1.0000
  H   H759      1.0  0.99293  0.55062  0.23048  1.0000
  C   C753      1.0  0.00549  0.51900  0.42013  1.0000
  H   H760      1.0  0.51790  0.01064  0.24981  1.0000
  Fe  Fe127     1.0  0.71987  0.56174  0.65038  1.0000
  S   S253      1.0  0.74739  0.57443  0.67632  1.0000
  S   S254      1.0  0.75067  0.59124  0.62566  1.0000
  C   C754      1.0  0.56752  0.74945  0.49254  1.0000
  Fe  Fe128     1.0  0.68819  0.56469  0.68507  1.0000
  H   H761      1.0  0.96236  0.67530  0.53441  1.0000
  C   C755      1.0  0.57335  0.78234  0.50136  1.0000
  S   S255      1.0  0.66253  0.55678  0.65881  1.0000
  Fe  Fe129     1.0  0.95170  0.77724  0.60324  1.0000
  S   S256      1.0  0.92899  0.76678  0.57643  1.0000
  S   S257      1.0  0.92163  0.74055  0.62682  1.0000
  C   C756      1.0  0.56696  0.78674  0.69566  1.0000
  H   H762      1.0  0.80621  0.55874  0.61619  1.0000
  Fe  Fe130     1.0  0.94475  0.83016  0.57618  1.0000
  S   S258      1.0  0.90588  0.85097  0.56364  1.0000
  H   H763      1.0  0.99966  0.57742  0.55770  1.0000
  H   H764      1.0  0.69441  0.98945  0.52147  1.0000
  S   S259      1.0  0.96230  0.83871  0.60354  1.0000
  Fe  Fe131     1.0  0.99270  0.78972  0.56915  1.0000
  C   C757      1.0  0.56072  0.71541  0.51936  1.0000
  S   S260      1.0  0.55174  0.87569  0.49548  1.0000
  S   S261      1.0  0.56744  0.88731  0.54552  1.0000
  H   H765      1.0  0.77499  0.52992  0.63322  1.0000
  Fe  Fe132     1.0  0.83310  0.98685  0.59543  1.0000
  H   H766      1.0  0.60082  0.71152  0.68765  1.0000
  S   S262      1.0  0.77854  0.99261  0.59646  1.0000
  S   S263      1.0  0.84155  0.93918  0.60793  1.0000
  S   S264      1.0  0.54708  0.64329  0.70968  1.0000
  S   S265      1.0  0.68416  0.60134  0.70586  1.0000
  H   H767      1.0  0.56514  0.74795  0.54155  1.0000
  C   C758      1.0  0.61897  0.91994  0.54571  1.0000
  C   C759      1.0  0.63852  0.94431  0.53167  1.0000
  C   C760      1.0  0.67951  0.97040  0.53233  1.0000
  C   C761      1.0  0.70130  0.97213  0.54694  1.0000
  C   C762      1.0  0.68185  0.94734  0.56090  1.0000
  C   C763      1.0  0.64077  0.92147  0.56030  1.0000
  H   H768      1.0  0.62202  0.94338  0.52038  1.0000
  H   H769      1.0  0.69837  0.94805  0.57215  1.0000
  H   H770      1.0  0.62579  0.90256  0.57118  1.0000
  C   C764      1.0  0.89128  0.87900  0.57551  1.0000
  C   C765      1.0  0.86373  0.88849  0.56856  1.0000
  C   C766      1.0  0.84932  0.90829  0.57822  1.0000
  C   C767      1.0  0.86228  0.91845  0.59492  1.0000
  C   C768      1.0  0.89063  0.90997  0.60170  1.0000
  C   C769      1.0  0.90531  0.89056  0.59198  1.0000
  H   H771      1.0  0.85293  0.87987  0.55577  1.0000
  H   H772      1.0  0.82736  0.91470  0.57291  1.0000
  H   H773      1.0  0.90095  0.91804  0.61459  1.0000
  H   H774      1.0  0.92701  0.88413  0.59737  1.0000
  H   H775      1.0  0.59517  0.84365  0.52039  1.0000
  H   H776      1.0  0.91768  0.66075  0.64180  1.0000
  C   C770      1.0  0.79669  0.63475  0.62599  1.0000
  C   C771      1.0  0.81788  0.64986  0.61073  1.0000
  C   C772      1.0  0.85588  0.68306  0.61072  1.0000
  C   C773      1.0  0.87276  0.70132  0.62600  1.0000
  C   C774      1.0  0.85115  0.68685  0.64118  1.0000
  C   C775      1.0  0.81323  0.65359  0.64120  1.0000
  H   H777      1.0  0.80512  0.63536  0.59892  1.0000
  H   H778      1.0  0.87244  0.69384  0.59897  1.0000
  H   H779      1.0  0.86407  0.70095  0.65304  1.0000
  H   H780      1.0  0.79699  0.64239  0.65298  1.0000
  C   C776      1.0  0.58790  0.63575  0.70794  1.0000
  C   C777      1.0  0.59134  0.61725  0.69355  1.0000
  C   C778      1.0  0.62157  0.60771  0.69245  1.0000
  H   H781      1.0  0.81476  0.52184  0.62672  1.0000
  H   H782      1.0  0.55466  0.68942  0.49497  1.0000
  H   H783      1.0  0.57002  0.60945  0.68338  1.0000
  H   H784      1.0  0.62356  0.59282  0.68147  1.0000
  H   H785      1.0  0.57632  0.80765  0.49418  1.0000
  H   H786      1.0  0.54767  0.81211  0.53015  1.0000
  C   C779      1.0  0.80606  0.54443  0.62861  1.0000
  C   C780      1.0  0.52509  0.53959  0.71710  1.0000
  C   C781      1.0  0.57739  0.81579  0.52779  1.0000
  C   C782      1.0  0.89214  0.63388  0.64646  1.0000
  C   C783      1.0  0.98041  0.65166  0.51413  1.0000
  C   C784      1.0  0.99893  0.63031  0.51012  1.0000
  S   S266      1.0  0.84430  0.00376  0.56780  1.0000
  H   H787      1.0  0.56588  0.74944  0.47876  1.0000
  H   H788      1.0  0.90376  0.64894  0.67283  1.0000
  C   C785      1.0  0.88417  0.62738  0.66386  1.0000
  C   C786      1.0  0.56109  0.71578  0.50163  1.0000
  Fe  Fe133     1.0  0.53126  0.87896  0.52165  1.0000
  N   N63       1.0  0.83278  0.57333  0.64075  1.0000
  C   C787      1.0  0.82525  0.56632  0.65781  1.0000
  C   C788      1.0  0.85061  0.59329  0.66961  1.0000
  C   C789      1.0  0.60718  0.79851  0.69679  1.0000
  H   H789      1.0  0.79918  0.54003  0.66241  1.0000
  C   C790      1.0  0.64863  0.61676  0.70574  1.0000
  C   C791      1.0  0.97587  0.65792  0.53114  1.0000
  C   C792      1.0  0.99048  0.64311  0.54391  1.0000
  N   N64       1.0  0.83272  0.78827  0.59697  1.0000
  C   C793      1.0  0.81821  0.81170  0.60210  1.0000
  C   C794      1.0  0.85473  0.77910  0.60784  1.0000
  C   C795      1.0  0.82653  0.82746  0.61835  1.0000
  C   C796      1.0  0.86367  0.79438  0.62416  1.0000
  C   C797      1.0  0.84963  0.81888  0.62939  1.0000
  C   C798      1.0  0.82307  0.77136  0.58002  1.0000
  H   H790      1.0  0.80107  0.81933  0.59345  1.0000
  H   H791      1.0  0.86591  0.76023  0.60386  1.0000
  H   H792      1.0  0.81616  0.84723  0.62211  1.0000
  H   H793      1.0  0.88170  0.78743  0.63261  1.0000
  H   H794      1.0  0.85688  0.83145  0.64192  1.0000
  H   H795      1.0  0.84752  0.76766  0.57496  1.0000
  H   H796      1.0  0.79553  0.74242  0.58060  1.0000
  H   H797      1.0  0.81940  0.79121  0.57076  1.0000
  H   H798      1.0  0.98778  0.64901  0.55707  1.0000
  C   C799      1.0  0.86599  0.60634  0.63501  1.0000
  H   H799      1.0  0.84394  0.58780  0.68311  1.0000
  H   H800      1.0  0.87187  0.61212  0.62148  1.0000
  N   N65       1.0  0.57347  0.78192  0.51876  1.0000
  H   H801      1.0  0.55379  0.68868  0.52650  1.0000
  C   C800      1.0  0.56685  0.74891  0.52778  1.0000
  C   C801      1.0  0.61958  0.77148  0.69371  1.0000
  C   C802      1.0  0.55173  0.72235  0.68865  1.0000
  H   H802      1.0  0.96821  0.96220  0.56151  1.0000
  C   C803      1.0  0.97679  0.98353  0.57147  1.0000
  S   S267      1.0  0.75248  0.00642  0.54726  1.0000
  S   S268      1.0  0.00621  0.85225  0.56650  1.0000
  C   C804      1.0  0.94951  0.99325  0.57776  1.0000
  C   C805      1.0  0.61571  0.64598  0.72097  1.0000
  H   H803      1.0  0.65056  0.77992  0.69483  1.0000
  H   H804      1.0  0.55747  0.80771  0.69845  1.0000
  C   C806      1.0  0.59173  0.73315  0.68961  1.0000
  C   C807      1.0  0.64598  0.63651  0.71985  1.0000
  Fe  Fe134     1.0  0.79344  0.01533  0.56948  1.0000
  H   H805      1.0  0.91997  0.98030  0.57247  1.0000
  S   S269      1.0  0.01030  0.76699  0.54654  1.0000
  N   N66       1.0  0.00919  0.62275  0.53984  1.0000
  H   H806      1.0  0.56673  0.56371  0.48049  1.0000
  C   C808      1.0  0.52802  0.52031  0.70295  1.0000
  H   H807      1.0  0.59248  0.81936  0.54022  1.0000
  C   C809      1.0  0.01296  0.61572  0.52321  1.0000
  H   H808      1.0  0.96989  0.66360  0.50410  1.0000
  H   H809      1.0  0.62842  0.82818  0.70035  1.0000
  Fe  Fe135     1.0  0.51877  0.90659  0.48688  1.0000
  H   H810      1.0  0.00265  0.62514  0.49695  1.0000
  N   N67       1.0  0.53987  0.74914  0.69148  1.0000
  H   H811      1.0  0.53016  0.69215  0.68594  1.0000
  C   C810      1.0  0.58501  0.52138  0.71458  1.0000
  S   S270      1.0  0.01455  0.79579  0.59608  1.0000
  C   C811      1.0  0.01509  0.00141  0.57817  1.0000
  H   H812      1.0  0.80300  0.00594  0.77332  1.0000
  Fe  Fe136     1.0  0.81299  0.92809  0.85367  1.0000
  S   S271      1.0  0.81282  0.93715  0.82552  1.0000
  S   S272      1.0  0.83463  0.88972  0.86606  1.0000
  Fe  Fe137     1.0  0.75744  0.93976  0.82979  1.0000
  S   S273      1.0  0.70601  0.91668  0.81139  1.0000
  H   H813      1.0  0.77415  0.98541  0.79262  1.0000
  S   S274      1.0  0.75427  0.92492  0.85777  1.0000
  H   H814      1.0  0.91866  0.63383  0.85258  1.0000
  H   H815      1.0  0.74378  0.85957  0.77648  1.0000
  H   H816      1.0  0.55042  0.68282  0.81416  1.0000
  Fe  Fe138     1.0  0.87239  0.53141  0.90078  1.0000
  S   S275      1.0  0.88529  0.57250  0.87796  1.0000
  S   S276      1.0  0.86797  0.54438  0.92802  1.0000
  H   H817      1.0  0.96420  0.70565  0.85421  1.0000
  C   C812      1.0  0.55271  0.54967  0.73016  1.0000
  S   S277      1.0  0.93442  0.83510  0.82279  1.0000
  S   S278      1.0  0.00069  0.75561  0.88324  1.0000
  Fe  Fe139     1.0  0.98756  0.83407  0.83398  1.0000
  C   C813      1.0  0.87606  0.73027  0.83143  1.0000
  Fe  Fe140     1.0  0.57720  0.72352  0.76368  1.0000
  S   S279      1.0  0.58119  0.74021  0.73587  1.0000
  S   S280      1.0  0.62914  0.74568  0.78171  1.0000
  H   H818      1.0  0.62568  0.01479  0.87432  1.0000
  C   C814      1.0  0.86148  0.68666  0.85668  1.0000
  C   C815      1.0  0.80673  0.88723  0.78065  1.0000
  S   S281      1.0  0.54152  0.65833  0.75971  1.0000
  H   H819      1.0  0.54761  0.54977  0.94012  1.0000
  S   S282      1.0  0.84847  0.99210  0.85924  1.0000
  H   H820      1.0  0.82673  0.01337  0.79384  1.0000
  C   C816      1.0  0.91610  0.62348  0.87971  1.0000
  C   C817      1.0  0.92894  0.64076  0.89552  1.0000
  C   C818      1.0  0.95464  0.68142  0.89641  1.0000
  C   C819      1.0  0.96762  0.70498  0.88153  1.0000
  C   C820      1.0  0.95431  0.68778  0.86573  1.0000
  C   C821      1.0  0.92854  0.64713  0.86484  1.0000
  H   H821      1.0  0.91917  0.62281  0.90703  1.0000
  H   H822      1.0  0.96470  0.69466  0.90867  1.0000
  H   H823      1.0  0.89366  0.70835  0.89741  1.0000
  C   C822      1.0  0.90396  0.75526  0.85929  1.0000
  C   C823      1.0  0.86236  0.87494  0.85384  1.0000
  C   C824      1.0  0.85771  0.87122  0.83621  1.0000
  C   C825      1.0  0.87981  0.85871  0.82686  1.0000
  C   C826      1.0  0.90734  0.85074  0.83500  1.0000
  C   C827      1.0  0.91249  0.85516  0.85259  1.0000
  C   C828      1.0  0.88964  0.86664  0.86199  1.0000
  H   H824      1.0  0.83632  0.87691  0.82985  1.0000
  H   H825      1.0  0.87554  0.85521  0.81327  1.0000
  H   H826      1.0  0.93383  0.84965  0.85905  1.0000
  H   H827      1.0  0.89341  0.86956  0.87563  1.0000
  C   C829      1.0  0.65051  0.79345  0.78968  1.0000
  C   C830      1.0  0.68083  0.80545  0.80179  1.0000
  C   C831      1.0  0.69776  0.84298  0.80876  1.0000
  C   C832      1.0  0.68444  0.86873  0.80360  1.0000
  C   C833      1.0  0.65414  0.85672  0.79149  1.0000
  C   C834      1.0  0.63716  0.81918  0.78455  1.0000
  H   H828      1.0  0.69113  0.78556  0.80587  1.0000
  H   H829      1.0  0.72113  0.85200  0.81807  1.0000
  H   H830      1.0  0.64383  0.87661  0.78742  1.0000
  H   H831      1.0  0.61375  0.81015  0.77526  1.0000
  H   H832      1.0  0.90783  0.96534  0.85289  1.0000
  C   C835      1.0  0.60928  0.00839  0.88656  1.0000
  C   C836      1.0  0.68276  0.52290  0.93631  1.0000
  H   H833      1.0  0.91958  0.78440  0.85354  1.0000
  C   C837      1.0  0.52986  0.98888  0.96975  1.0000
  C   C838      1.0  0.84130  0.92256  0.78362  1.0000
  C   C839      1.0  0.80190  0.99202  0.78591  1.0000
  H   H834      1.0  0.85354  0.70317  0.82522  1.0000
  H   H835      1.0  0.66690  0.64369  0.73016  1.0000
  C   C840      1.0  0.58288  0.54054  0.72892  1.0000
  C   C841      1.0  0.90883  0.75027  0.87664  1.0000
  H   H836      1.0  0.99910  0.93655  0.82860  1.0000
  H   H837      1.0  0.70841  0.53634  0.92798  1.0000
  C   C842      1.0  0.88923  0.71270  0.88405  1.0000
  C   C843      1.0  0.64764  0.00828  0.93038  1.0000
  H   H838      1.0  0.96400  0.59824  0.92096  1.0000
  C   C844      1.0  0.54137  0.70482  0.81316  1.0000
  N   N68       1.0  0.99938  0.98240  0.84289  1.0000
  H   H839      1.0  0.84357  0.66144  0.84895  1.0000
  H   H840      1.0  0.59977  0.75301  0.81784  1.0000
  S   S283      1.0  0.00651  0.84716  0.86103  1.0000
  C   C845      1.0  0.77094  0.88687  0.77875  1.0000
  C   C846      1.0  0.52605  0.54411  0.96575  1.0000
  H   H841      1.0  0.74207  0.92126  0.77897  1.0000
  Fe  Fe141     1.0  0.84487  0.00120  0.83127  1.0000
  N   N69       1.0  0.80385  0.95607  0.78379  1.0000
  C   C847      1.0  0.56915  0.74431  0.81513  1.0000
  H   H842      1.0  0.60564  0.54990  0.73860  1.0000
  H   H843      1.0  0.86701  0.75290  0.82965  1.0000
  C   C848      1.0  0.53079  0.52952  0.95038  1.0000
  C   C849      1.0  0.77010  0.92184  0.78024  1.0000
  H   H844      1.0  0.86931  0.92321  0.78519  1.0000
  N   N70       1.0  0.00889  0.62905  0.90245  1.0000
  H   H845      1.0  0.85143  0.65108  0.87956  1.0000
  H   H846      1.0  0.90483  0.74105  0.82480  1.0000
  C   C850      1.0  0.99435  0.60436  0.91792  1.0000
  C   C851      1.0  0.55772  0.77262  0.81303  1.0000
  C   C852      1.0  0.99594  0.61246  0.88693  1.0000
  H   H847      1.0  0.58017  0.98129  0.88545  1.0000
  N   N71       1.0  0.88026  0.72375  0.84959  1.0000
  C   C853      1.0  0.86553  0.68059  0.87403  1.0000
  S   S284      1.0  0.95420  0.54382  0.95179  1.0000
  H   H848      1.0  0.92859  0.77524  0.88420  1.0000
  H   H849      1.0  0.61339  0.66034  0.73210  1.0000
  S   S285      1.0  0.99375  0.78023  0.83379  1.0000
  H   H850      1.0  0.99356  0.57594  0.91633  1.0000
  H   H851      1.0  0.86628  0.98428  0.78751  1.0000
  C   C854      1.0  0.98270  0.52172  0.95727  1.0000
  H   H852      1.0  0.66104  0.98275  0.88481  1.0000
  H   H853      1.0  0.71449  0.51642  0.95757  1.0000
  Fe  Fe142     1.0  0.54207  0.67545  0.73219  1.0000
  H   H854      1.0  0.97503  0.58130  0.88606  1.0000
  N   N72       1.0  0.63182  0.00393  0.90062  1.0000
  H   H855      1.0  0.55167  0.56600  0.74087  1.0000
  H   H856      1.0  0.01352  0.61840  0.92908  1.0000
  S   S286      1.0  0.54669  0.59511  0.96787  1.0000
  Fe  Fe143     1.0  0.52460  0.74094  0.74044  1.0000
  H   H857      1.0  0.69901  0.97473  0.90832  1.0000
  C   C855      1.0  0.00827  0.63560  0.87200  1.0000
  C   C856      1.0  0.67815  0.98473  0.91093  1.0000
  C   C857      1.0  0.65668  0.98951  0.89763  1.0000
  H   H858      1.0  0.69066  0.99143  0.93776  1.0000
  C   C858      1.0  0.95911  0.96290  0.84452  1.0000
  S   S287      1.0  0.78955  0.00521  0.83314  1.0000
  H   H859      1.0  0.64269  0.52244  0.91708  1.0000
  H   H860      1.0  0.80761  0.86013  0.77989  1.0000
  H   H861      1.0  0.99707  0.62245  0.85977  1.0000
  C   C859      1.0  0.62660  0.01264  0.91679  1.0000
  Fe  Fe144     1.0  0.78993  0.99030  0.86091  1.0000
  H   H862      1.0  0.57953  0.80350  0.81408  1.0000
  C   C860      1.0  0.83938  0.95703  0.78496  1.0000
  H   H863      1.0  0.94167  0.93301  0.84043  1.0000
  C   C861      1.0  0.67374  0.99445  0.92738  1.0000
  S   S288      1.0  0.52415  0.72973  0.76846  1.0000
  C   C862      1.0  0.93979  0.98116  0.85153  1.0000
  C   C863      1.0  0.01449  0.54071  0.96854  1.0000
  C   C864      1.0  0.51833  0.76089  0.80907  1.0000
  H   H864      1.0  0.64371  0.01577  0.94314  1.0000
