data_image0
_chemical_formula_structural       FeS2FeS2FeHFeS3FeSC2SCFeSFeHSH3CH4SCH3NH2C2HS2HNHC2HCHC7H4C6H4CHCH2C3HC4SNHCH2C3H3C3FeC4HCH2CHCNH2C2H3C2HFeHSFeS2HFeS3FeS2FeSFeSFeS3C3H3C7H7FeCH3C8H4C5H3NC6H9NC8SH4CH6CHCH3SC3HCHCNHC3HNCHNC2H2SFeSC2SCFeS2HSC2SHFeSCS2HC2HCHC4HNFeSHC6H5FeNC6H8SCSFeCHSC3HC2HFeH6SFeHCNH3CH2CSCH2FeS2FeNCHS2CFeSCFeSCFeCFeSHSHCH2C6H9FeH3FeH4SH2NC7H2CSHCHC2HCHSCHCH4SC2FeSFeSNFeSFeS3FeS2FeS2FeSFeS2CHC2H3C6H7C2SHC2HC8H5CN2H2CSH2C2H2C2HC2HCNH2CSCHCHCSH2SC2HC2H5NCH3C2H5C4H2CNCH4CHCH3CHC6HCHCHCH2C2H4C2FeS2FeSCFeCFeHS2FeS2FeS2FeSFeS3C6H9C2HC6H10C4H4C4H3S2HC2SCHC2HSHC2H2NC6H9C3NHCHCNHC5HCHC2NCHC3SHCSCH2C3FeS2FeS2FeSFeS3HFeCFeS2CFe2S2HNHCHCH2CHC3SC2H3C6H4C6H4C7H3C2H2CHC2H7C2H3C4HCSHCH4CH3SHCHC2HCH2CH3NCHSCSHCNHC2NHSHC2HC3NHCH3CSCHCFeS2FeS2FeSFeS3HSHFeS2FeNFeSHSC3SCH4C6H5C3H3FeHSHCH4C6H4C2HC4HCNC6H7CHC2HC2HCHC2SH2C3HNH2CH2NHSCH2C2HCHCH2CHCSHFeS2FeSHCS2H2FeS2CHFeS2HFeH2CHFeH2C6H5CHFeH3CHC2FeHCHCNC6H6C2HC2NC3NH2CFeSFeSFe2S2HSC2SHFeSCSNCHC4HC6H11CFeC2HCH3C2SHSHNCS2HCH2C2FeC3HC2H2FeS2FeSCFeSFeS3FeS2FeS2FeSFeCS2CH2C7H5SH2C2H2NC2HCHCHCH2C7H4C3NHCH2CSHCHNC2HC4HCH4C4HCH6C2H5CHCH3CHCHCHNC3NC2H2CH2SHCS2CH2FeS2FeS2Fe2S3FeS2FeSHFeSFeS3HCH2C4H4C3SHC6H4C6H4CNHSHCH3CH4CHCHNH2CHC5H4C2H3SCHNC3HC2H2C3HCSC2H3C2NH2CH2SC3HFeC2HC2H3CHSC3HN
_chemical_formula_sum              "Fe96 S192 H576 C576 N48"
_cell_length_a       40.854
_cell_length_b       40.657
_cell_length_c       40.7144
_cell_angle_alpha    89.991
_cell_angle_beta     89.9545
_cell_angle_gamma    89.8242

_space_group_name_H-M_alt    "P 1"
_space_group_IT_number       1

loop_
  _space_group_symop_operation_xyz
  'x, y, z'

loop_
  _atom_site_type_symbol
  _atom_site_label
  _atom_site_symmetry_multiplicity
  _atom_site_fract_x
  _atom_site_fract_y
  _atom_site_fract_z
  _atom_site_occupancy
  Fe  Fe1       1.0  0.25991  0.17066  0.40709  1.0000
  S   S1        1.0  0.29918  0.19739  0.43440  1.0000
  S   S2        1.0  0.21809  0.19783  0.38271  1.0000
  Fe  Fe2       1.0  0.29213  0.10286  0.41869  1.0000
  S   S3        1.0  0.33313  0.12534  0.44756  1.0000
  S   S4        1.0  0.29083  0.04744  0.41073  1.0000
  Fe  Fe3       1.0  0.29419  0.15681  0.47142  1.0000
  H   H1        1.0  0.27663  0.21667  0.29604  1.0000
  Fe  Fe4       1.0  0.33335  0.16333  0.40741  1.0000
  S   S5        1.0  0.37954  0.18244  0.38356  1.0000
  S   S6        1.0  0.25291  0.13143  0.44544  1.0000
  S   S7        1.0  0.29414  0.13931  0.37748  1.0000
  Fe  Fe5       1.0  0.46421  0.27299  0.19313  1.0000
  S   S8        1.0  0.43873  0.23383  0.16400  1.0000
  C   C1        1.0  0.01842  0.32079  0.33218  1.0000
  C   C2        1.0  0.34619  0.32978  0.02171  1.0000
  S   S9        1.0  0.36983  0.27057  0.18190  1.0000
  C   C3        1.0  0.36798  0.30752  0.03669  1.0000
  Fe  Fe6       1.0  0.40281  0.23348  0.20560  1.0000
  S   S10       1.0  0.38110  0.18790  0.22802  1.0000
  Fe  Fe7       1.0  0.40846  0.27537  0.14318  1.0000
  H   H2        1.0  0.35726  0.32945  0.11659  1.0000
  S   S11       1.0  0.43012  0.26981  0.23609  1.0000
  H   H3        1.0  0.30963  0.33004  0.27278  1.0000
  H   H4        1.0  0.26949  0.30759  0.04332  1.0000
  H   H5        1.0  0.38333  0.04966  0.33315  1.0000
  C   C4        1.0  0.31051  0.24862  0.25031  1.0000
  H   H6        1.0  0.20406  0.18451  0.45028  1.0000
  H   H7        1.0  0.14379  0.29951  0.39151  1.0000
  H   H8        1.0  0.41966  0.13287  0.25445  1.0000
  H   H9        1.0  0.08510  0.27114  0.33956  1.0000
  S   S12       1.0  0.43665  0.31497  0.16930  1.0000
  C   C5        1.0  0.03754  0.29408  0.34233  1.0000
  H   H10       1.0  0.29884  0.25905  0.15066  1.0000
  H   H11       1.0  0.47754  0.13043  0.20489  1.0000
  H   H12       1.0  0.25538  0.30135  0.14674  1.0000
  N   N1        1.0  0.47121  0.14091  0.25552  1.0000
  H   H13       1.0  0.28398  0.25223  0.24543  1.0000
  H   H14       1.0  0.38138  0.29010  0.02170  1.0000
  C   C6        1.0  0.19237  0.19964  0.46883  1.0000
  C   C7        1.0  0.35003  0.26404  0.33184  1.0000
  H   H15       1.0  0.41619  0.11780  0.31324  1.0000
  S   S13       1.0  0.39646  0.27592  0.08878  1.0000
  S   S14       1.0  0.02222  0.26497  0.37054  1.0000
  H   H16       1.0  0.32368  0.26897  0.23786  1.0000
  N   N2        1.0  0.26064  0.30756  0.09498  1.0000
  H   H17       1.0  0.46675  0.11649  0.34717  1.0000
  C   C8        1.0  0.31930  0.02991  0.38301  1.0000
  C   C9        1.0  0.34257  0.04923  0.36687  1.0000
  H   H18       1.0  0.34286  0.07557  0.37071  1.0000
  C   C10       1.0  0.37194  0.30707  0.07096  1.0000
  H   H19       1.0  0.18745  0.24152  0.43691  1.0000
  C   C11       1.0  0.03880  0.33354  0.41788  1.0000
  C   C12       1.0  0.38069  0.18268  0.34029  1.0000
  C   C13       1.0  0.35862  0.16423  0.32169  1.0000
  C   C14       1.0  0.35873  0.16625  0.28732  1.0000
  C   C15       1.0  0.38113  0.18658  0.27122  1.0000
  C   C16       1.0  0.40429  0.20385  0.28968  1.0000
  C   C17       1.0  0.40402  0.20197  0.32411  1.0000
  H   H20       1.0  0.34186  0.14782  0.33358  1.0000
  H   H21       1.0  0.34145  0.15190  0.27321  1.0000
  H   H22       1.0  0.42306  0.21786  0.27760  1.0000
  H   H23       1.0  0.42180  0.21564  0.33825  1.0000
  C   C18       1.0  0.22177  0.24030  0.37447  1.0000
  C   C19       1.0  0.24530  0.25966  0.39017  1.0000
  C   C20       1.0  0.24767  0.29339  0.38301  1.0000
  C   C21       1.0  0.22655  0.30802  0.36011  1.0000
  C   C22       1.0  0.20258  0.28881  0.34495  1.0000
  C   C23       1.0  0.20013  0.25511  0.35221  1.0000
  H   H24       1.0  0.26153  0.24886  0.40803  1.0000
  H   H25       1.0  0.26598  0.30817  0.39521  1.0000
  H   H26       1.0  0.18571  0.29981  0.32779  1.0000
  H   H27       1.0  0.18156  0.24042  0.34027  1.0000
  C   C24       1.0  0.07027  0.29191  0.33203  1.0000
  H   H28       1.0  0.44938  0.16378  0.21362  1.0000
  C   C25       1.0  0.35451  0.32970  0.09017  1.0000
  H   H29       1.0  0.31176  0.26393  0.04605  1.0000
  H   H30       1.0  0.31886  0.22499  0.23934  1.0000
  C   C26       1.0  0.32994  0.24574  0.35264  1.0000
  C   C27       1.0  0.16782  0.25103  0.48529  1.0000
  C   C28       1.0  0.18705  0.18736  0.50047  1.0000
  H   H31       1.0  0.32784  0.24062  0.10004  1.0000
  C   C29       1.0  0.49938  0.13844  0.27351  1.0000
  C   C30       1.0  0.29719  0.23027  0.30592  1.0000
  C   C31       1.0  0.43975  0.12345  0.30226  1.0000
  C   C32       1.0  0.30807  0.25850  0.09853  1.0000
  S   S15       1.0  0.17358  0.33948  0.27245  1.0000
  N   N3        1.0  0.31690  0.24842  0.28571  1.0000
  H   H32       1.0  0.37123  0.27666  0.34162  1.0000
  C   C33       1.0  0.26788  0.29341  0.12461  1.0000
  H   H33       1.0  0.33546  0.24400  0.37867  1.0000
  H   H34       1.0  0.28802  0.21379  0.35546  1.0000
  C   C34       1.0  0.29211  0.26912  0.12694  1.0000
  C   C35       1.0  0.08423  0.31692  0.31274  1.0000
  C   C36       1.0  0.18288  0.23171  0.46129  1.0000
  H   H35       1.0  0.35938  0.27875  0.28205  1.0000
  H   H36       1.0  0.26553  0.22454  0.49632  1.0000
  H   H37       1.0  0.08926  0.29114  0.41707  1.0000
  C   C37       1.0  0.44182  0.13229  0.26910  1.0000
  C   C38       1.0  0.34324  0.26498  0.29817  1.0000
  C   C39       1.0  0.47273  0.15176  0.22121  1.0000
  Fe  Fe8       1.0  0.39983  0.30717  0.20966  1.0000
  C   C40       1.0  0.30343  0.22862  0.33963  1.0000
  C   C41       1.0  0.29911  0.27167  0.06819  1.0000
  C   C42       1.0  0.36558  0.03447  0.34571  1.0000
  C   C43       1.0  0.27525  0.29640  0.06685  1.0000
  H   H38       1.0  0.16091  0.27623  0.47995  1.0000
  C   C44       1.0  0.46814  0.12266  0.32127  1.0000
  H   H39       1.0  0.10961  0.31531  0.30539  1.0000
  H   H40       1.0  0.03500  0.30775  0.42612  1.0000
  C   C45       1.0  0.09445  0.31415  0.40466  1.0000
  H   H41       1.0  0.49237  0.24072  0.25729  1.0000
  C   C46       1.0  0.12525  0.31864  0.39019  1.0000
  N   N4        1.0  0.07073  0.33788  0.40197  1.0000
  H   H42       1.0  0.19525  0.16261  0.50625  1.0000
  H   H43       1.0  0.37465  0.00986  0.43184  1.0000
  C   C47       1.0  0.49826  0.12980  0.30675  1.0000
  C   C48       1.0  0.23656  0.33430  0.09306  1.0000
  H   H44       1.0  0.49231  0.17043  0.21771  1.0000
  H   H45       1.0  0.21254  0.32453  0.08501  1.0000
  H   H46       1.0  0.25269  0.33114  0.25236  1.0000
  C   C49       1.0  0.27266  0.33645  0.23573  1.0000
  C   C50       1.0  0.30490  0.33577  0.24727  1.0000
  H   H47       1.0  0.01874  0.33905  0.40025  1.0000
  Fe  Fe9       1.0  0.13070  0.27019  0.68432  1.0000
  H   H48       1.0  0.15128  0.25323  0.53533  1.0000
  S   S16       1.0  0.07616  0.26697  0.69463  1.0000
  Fe  Fe10      1.0  0.19810  0.23766  0.69425  1.0000
  S   S17       1.0  0.22476  0.28110  0.67385  1.0000
  S   S18       1.0  0.22484  0.19310  0.71372  1.0000
  H   H49       1.0  0.29412  0.06376  0.59423  1.0000
  Fe  Fe11      1.0  0.18628  0.27919  0.63469  1.0000
  S   S19       1.0  0.20067  0.28085  0.58095  1.0000
  S   S20       1.0  0.16545  0.26787  0.72673  1.0000
  S   S21       1.0  0.16065  0.23450  0.65410  1.0000
  Fe  Fe12      1.0  0.40089  0.16185  0.74403  1.0000
  S   S22       1.0  0.36897  0.13552  0.78025  1.0000
  S   S23       1.0  0.37844  0.18514  0.69896  1.0000
  Fe  Fe13      1.0  0.46297  0.15058  0.78485  1.0000
  S   S24       1.0  0.43497  0.12322  0.82353  1.0000
  Fe  Fe14      1.0  0.40954  0.09823  0.78135  1.0000
  S   S25       1.0  0.40541  0.04269  0.77785  1.0000
  Fe  Fe15      1.0  0.39760  0.16358  0.81793  1.0000
  S   S26       1.0  0.37126  0.18737  0.86084  1.0000
  S   S27       1.0  0.44003  0.12295  0.74287  1.0000
  S   S28       1.0  0.42715  0.19247  0.78166  1.0000
  C   C51       1.0  0.37897  0.02581  0.74794  1.0000
  C   C52       1.0  0.35459  0.04488  0.73306  1.0000
  C   C53       1.0  0.33307  0.03055  0.71025  1.0000
  H   H50       1.0  0.33733  0.17181  0.58383  1.0000
  H   H51       1.0  0.35188  0.07052  0.73965  1.0000
  H   H52       1.0  0.31371  0.04528  0.69959  1.0000
  C   C54       1.0  0.49275  0.27512  0.92120  1.0000
  C   C55       1.0  0.37310  0.23041  0.86583  1.0000
  C   C56       1.0  0.39105  0.25016  0.84432  1.0000
  C   C57       1.0  0.38964  0.28455  0.84700  1.0000
  C   C58       1.0  0.36982  0.29949  0.87085  1.0000
  C   C59       1.0  0.35315  0.27975  0.89343  1.0000
  C   C60       1.0  0.35501  0.24531  0.89108  1.0000
  H   H53       1.0  0.40579  0.23914  0.82538  1.0000
  H   H54       1.0  0.40332  0.29967  0.82996  1.0000
  H   H55       1.0  0.33883  0.29093  0.91271  1.0000
  H   H56       1.0  0.34169  0.23020  0.90840  1.0000
  H   H57       1.0  0.37336  0.13317  0.65390  1.0000
  H   H58       1.0  0.29750  0.12351  0.58291  1.0000
  H   H59       1.0  0.04191  0.32743  0.64579  1.0000
  Fe  Fe16      1.0  0.18890  0.31140  0.70275  1.0000
  C   C61       1.0  0.33688  0.16715  0.61077  1.0000
  H   H60       1.0  0.31488  0.17928  0.62132  1.0000
  H   H61       1.0  0.26625  0.25773  0.73593  1.0000
  H   H62       1.0  0.33100  0.03847  0.63578  1.0000
  C   C62       1.0  0.27911  0.30329  0.75993  1.0000
  C   C63       1.0  0.26632  0.19768  0.54187  1.0000
  C   C64       1.0  0.26686  0.18876  0.70485  1.0000
  C   C65       1.0  0.28399  0.16205  0.71819  1.0000
  C   C66       1.0  0.31812  0.16003  0.71513  1.0000
  C   C67       1.0  0.33541  0.18494  0.69913  1.0000
  C   C68       1.0  0.31815  0.21047  0.68381  1.0000
  C   C69       1.0  0.28390  0.21224  0.68647  1.0000
  H   H63       1.0  0.27090  0.14297  0.73120  1.0000
  H   H64       1.0  0.33093  0.13900  0.72491  1.0000
  H   H65       1.0  0.33131  0.22941  0.67062  1.0000
  H   H66       1.0  0.27096  0.23212  0.67479  1.0000
  C   C70       1.0  0.33716  0.27225  0.77694  1.0000
  C   C71       1.0  0.25628  0.19780  0.57488  1.0000
  C   C72       1.0  0.23727  0.22385  0.58748  1.0000
  C   C73       1.0  0.22810  0.25002  0.56711  1.0000
  C   C74       1.0  0.18530  0.32541  0.82482  1.0000
  H   H67       1.0  0.26256  0.17737  0.59067  1.0000
  H   H68       1.0  0.22914  0.22330  0.61278  1.0000
  H   H69       1.0  0.35889  0.17891  0.62169  1.0000
  N   N5        1.0  0.26102  0.24938  0.83576  1.0000
  C   C75       1.0  0.23404  0.24621  0.81614  1.0000
  C   C76       1.0  0.28424  0.22504  0.83661  1.0000
  C   C77       1.0  0.23026  0.21861  0.79601  1.0000
  C   C78       1.0  0.28135  0.19717  0.81670  1.0000
  C   C79       1.0  0.25413  0.19401  0.79628  1.0000
  C   C80       1.0  0.26412  0.27829  0.85709  1.0000
  H   H70       1.0  0.21521  0.26501  0.81598  1.0000
  H   H71       1.0  0.30512  0.22689  0.85279  1.0000
  H   H72       1.0  0.20893  0.21620  0.78025  1.0000
  H   H73       1.0  0.30005  0.17807  0.81736  1.0000
  H   H74       1.0  0.25132  0.17248  0.78079  1.0000
  H   H75       1.0  0.24944  0.27485  0.87985  1.0000
  H   H76       1.0  0.29000  0.28288  0.86410  1.0000
  H   H77       1.0  0.25509  0.30083  0.84456  1.0000
  H   H78       1.0  0.37074  0.07366  0.66583  1.0000
  N   N6        1.0  0.33581  0.13173  0.61746  1.0000
  C   C81       1.0  0.31368  0.11263  0.60105  1.0000
  C   C82       1.0  0.35601  0.11808  0.64060  1.0000
  C   C83       1.0  0.31167  0.07884  0.60732  1.0000
  C   C84       1.0  0.35468  0.08438  0.64745  1.0000
  C   C85       1.0  0.33237  0.06467  0.63063  1.0000
  C   C86       1.0  0.05779  0.29879  0.71806  1.0000
  C   C87       1.0  0.02621  0.29429  0.73098  1.0000
  C   C88       1.0  0.28456  0.27074  0.75018  1.0000
  S   S29       1.0  0.15297  0.31490  0.66114  1.0000
  H   H79       1.0  0.47467  0.29095  0.90820  1.0000
  H   H80       1.0  0.43959  0.18803  0.87208  1.0000
  H   H81       1.0  0.31860  0.23006  0.75107  1.0000
  H   H82       1.0  0.01435  0.27068  0.72843  1.0000
  C   C89       1.0  0.16244  0.23785  0.51659  1.0000
  H   H83       1.0  0.34890  0.31777  0.80103  1.0000
  H   H84       1.0  0.17363  0.30468  0.83666  1.0000
  H   H85       1.0  0.48805  0.27652  0.94804  1.0000
  H   H86       1.0  0.44197  0.24531  0.89239  1.0000
  H   H87       1.0  0.01072  0.27583  0.64976  1.0000
  H   H88       1.0  0.47701  0.05776  0.77542  1.0000
  C   C90       1.0  0.01701  0.32785  0.65510  1.0000
  H   H89       1.0  0.36015  0.26042  0.78329  1.0000
  C   C91       1.0  0.46303  0.22933  0.89563  1.0000
  H   H90       1.0  0.16549  0.21290  0.57560  1.0000
  H   H91       1.0  0.17258  0.30977  0.77633  1.0000
  H   H92       1.0  0.25642  0.31528  0.75292  1.0000
  S   S30       1.0  0.28919  0.16391  0.52665  1.0000
  C   C92       1.0  0.46144  0.19691  0.88423  1.0000
  C   C93       1.0  0.23889  0.25034  0.53435  1.0000
  C   C94       1.0  0.31386  0.25522  0.75868  1.0000
  H   H93       1.0  0.18682  0.17632  0.56427  1.0000
  C   C95       1.0  0.33076  0.30469  0.78661  1.0000
  H   H94       1.0  0.14310  0.17932  0.55712  1.0000
  C   C96       1.0  0.49691  0.04012  0.77299  1.0000
  N   N7        1.0  0.49094  0.24085  0.91014  1.0000
  H   H95       1.0  0.49289  0.21735  0.80974  1.0000
  C   C97       1.0  0.16654  0.19303  0.55680  1.0000
  C   C98       1.0  0.18504  0.32804  0.79051  1.0000
  C   C99       1.0  0.25771  0.22417  0.52169  1.0000
  H   H96       1.0  0.09724  0.33318  0.71176  1.0000
  N   N8        1.0  0.17250  0.20655  0.52395  1.0000
  C   C100      1.0  0.48841  0.17617  0.88811  1.0000
  H   H97       1.0  0.48782  0.15130  0.87842  1.0000
  N   N9        1.0  0.30218  0.31989  0.77771  1.0000
  C   C101      1.0  0.07302  0.32936  0.72177  1.0000
  C   C102      1.0  0.00953  0.32039  0.74652  1.0000
  H   H98       1.0  0.23221  0.27064  0.51851  1.0000
  H   H99       1.0  0.34292  0.32942  0.99534  1.0000
  S   S31       1.0  0.29066  0.33669  0.93250  1.0000
  Fe  Fe17      1.0  0.13754  0.38135  0.27471  1.0000
  S   S32       1.0  0.16548  0.41009  0.31248  1.0000
  C   C103      1.0  0.29221  0.35008  0.18127  1.0000
  C   C104      1.0  0.10720  0.37149  0.37020  1.0000
  S   S33       1.0  0.23034  0.39720  0.26834  1.0000
  C   C105      1.0  0.16102  0.59720  0.23718  1.0000
  Fe  Fe18      1.0  0.19014  0.43434  0.26959  1.0000
  S   S34       1.0  0.20062  0.48899  0.27007  1.0000
  S   S35       1.0  0.15943  0.40883  0.23183  1.0000
  H   H100      1.0  0.23326  0.34666  0.11726  1.0000
  S   S36       1.0  0.29981  0.63767  0.19982  1.0000
  C   C106      1.0  0.32459  0.34855  0.19265  1.0000
  C   C107      1.0  0.23556  0.66176  0.25694  1.0000
  S   S37       1.0  0.33995  0.62869  0.13092  1.0000
  H   H101      1.0  0.29934  0.45403  0.06717  1.0000
  Fe  Fe19      1.0  0.30120  0.60098  0.15885  1.0000
  S   S38       1.0  0.30097  0.54567  0.16532  1.0000
  C   C108      1.0  0.33258  0.35192  0.07518  1.0000
  S   S39       1.0  0.25937  0.62331  0.13101  1.0000
  S   S40       1.0  0.08274  0.37766  0.28212  1.0000
  H   H102      1.0  0.15521  0.35112  0.36113  1.0000
  C   C109      1.0  0.29815  0.50394  0.08476  1.0000
  C   C110      1.0  0.14526  0.62768  0.23438  1.0000
  H   H103      1.0  0.15886  0.54874  0.25873  1.0000
  C   C111      1.0  0.11741  0.57876  0.27261  1.0000
  H   H104      1.0  0.18406  0.59279  0.22457  1.0000
  C   C112      1.0  0.29542  0.53702  0.07600  1.0000
  C   C113      1.0  0.14692  0.57257  0.25639  1.0000
  C   C114      1.0  0.29715  0.47977  0.06028  1.0000
  C   C115      1.0  0.32806  0.35175  0.04094  1.0000
  H   H105      1.0  0.03660  0.35010  0.43942  1.0000
  N   N10       1.0  0.11622  0.63347  0.25018  1.0000
  Fe  Fe20      1.0  0.19829  0.36959  0.23342  1.0000
  S   S41       1.0  0.01397  0.65289  0.29517  1.0000
  H   H106      1.0  0.28952  0.57135  0.03613  1.0000
  C   C116      1.0  0.27209  0.53020  0.19365  1.0000
  C   C117      1.0  0.26492  0.49643  0.19406  1.0000
  C   C118      1.0  0.24229  0.48361  0.21676  1.0000
  C   C119      1.0  0.22736  0.50442  0.23976  1.0000
  C   C120      1.0  0.23473  0.53809  0.23950  1.0000
  C   C121      1.0  0.25666  0.55101  0.21627  1.0000
  H   H107      1.0  0.27670  0.48018  0.17661  1.0000
  H   H108      1.0  0.23670  0.45761  0.21673  1.0000
  H   H109      1.0  0.22372  0.55421  0.25755  1.0000
  H   H110      1.0  0.26212  0.57699  0.21632  1.0000
  H   H111      1.0  0.31857  0.36875  0.09026  1.0000
  Fe  Fe21      1.0  0.20293  0.37004  0.30746  1.0000
  N   N11       1.0  0.31072  0.43154  0.27428  1.0000
  C   C122      1.0  0.31427  0.40500  0.29464  1.0000
  C   C123      1.0  0.29045  0.45701  0.28283  1.0000
  C   C124      1.0  0.29663  0.40308  0.32406  1.0000
  C   C125      1.0  0.27257  0.45600  0.31215  1.0000
  C   C126      1.0  0.27548  0.42867  0.33270  1.0000
  C   C127      1.0  0.32642  0.43131  0.24187  1.0000
  H   H112      1.0  0.33034  0.38483  0.28786  1.0000
  H   H113      1.0  0.28738  0.47795  0.26663  1.0000
  H   H114      1.0  0.29838  0.38137  0.33951  1.0000
  H   H115      1.0  0.25557  0.47572  0.31812  1.0000
  H   H116      1.0  0.26075  0.42683  0.35483  1.0000
  H   H117      1.0  0.33179  0.45669  0.23327  1.0000
  H   H118      1.0  0.34994  0.41741  0.24237  1.0000
  H   H119      1.0  0.30991  0.41927  0.22381  1.0000
  S   S42       1.0  0.23031  0.35039  0.35151  1.0000
  C   C128      1.0  0.29165  0.54560  0.04303  1.0000
  S   S43       1.0  0.29853  0.65943  0.05023  1.0000
  Fe  Fe22      1.0  0.33353  0.66827  0.16910  1.0000
  C   C129      1.0  0.29062  0.52078  0.01916  1.0000
  H   H120      1.0  0.28739  0.35663  0.15598  1.0000
  S   S44       1.0  0.22559  0.34923  0.18987  1.0000
  C   C130      1.0  0.07675  0.36621  0.38493  1.0000
  C   C131      1.0  0.33084  0.34220  0.22583  1.0000
  C   C132      1.0  0.06543  0.34421  0.30354  1.0000
  H   H121      1.0  0.15642  0.64666  0.21939  1.0000
  C   C133      1.0  0.26619  0.34447  0.20296  1.0000
  C   C134      1.0  0.10235  0.60960  0.26936  1.0000
  H   H122      1.0  0.30103  0.49720  0.11043  1.0000
  Fe  Fe23      1.0  0.29791  0.65368  0.10569  1.0000
  H   H123      1.0  0.01763  0.36669  0.30554  1.0000
  H   H124      1.0  0.07944  0.61429  0.28219  1.0000
  H   H125      1.0  0.29622  0.55598  0.09480  1.0000
  H   H126      1.0  0.10631  0.55980  0.28768  1.0000
  H   H127      1.0  0.11130  0.39352  0.35575  1.0000
  H   H128      1.0  0.25372  0.64934  0.30513  1.0000
  S   S45       1.0  0.29757  0.37709  0.02320  1.0000
  Fe  Fe24      1.0  0.26007  0.66179  0.17058  1.0000
  H   H129      1.0  0.05766  0.38455  0.38186  1.0000
  C   C135      1.0  0.23629  0.66392  0.29135  1.0000
  N   N12       1.0  0.29344  0.48838  0.02799  1.0000
  H   H130      1.0  0.25167  0.64483  0.24467  1.0000
  H   H131      1.0  0.07405  0.66480  0.25266  1.0000
  H   H132      1.0  0.34468  0.35336  0.17599  1.0000
  C   C136      1.0  0.13165  0.34759  0.37297  1.0000
  H   H133      1.0  0.24487  0.35351  0.07545  1.0000
  H   H134      1.0  0.07946  0.66672  0.31693  1.0000
  C   C137      1.0  0.10088  0.66604  0.24784  1.0000
  S   S46       1.0  0.37100  0.34233  0.24070  1.0000
  C   C138      1.0  0.03236  0.34578  0.31286  1.0000
  H   H135      1.0  0.27124  0.44590  0.00765  1.0000
  H   H136      1.0  0.26848  0.58146  0.81140  1.0000
  Fe  Fe25      1.0  0.18200  0.59579  0.78766  1.0000
  S   S47       1.0  0.15646  0.62284  0.82838  1.0000
  S   S48       1.0  0.19386  0.54105  0.78913  1.0000
  Fe  Fe26      1.0  0.19626  0.66043  0.82183  1.0000
  N   N13       1.0  0.12960  0.40249  0.79092  1.0000
  C   C139      1.0  0.13638  0.42819  0.81152  1.0000
  H   H137      1.0  0.28754  0.52759  0.99356  1.0000
  S   S49       1.0  0.22305  0.63169  0.78332  1.0000
  S   S50       1.0  0.15311  0.62070  0.74744  1.0000
  C   C140      1.0  0.13901  0.40363  0.75866  1.0000
  Fe  Fe27      1.0  0.29397  0.37938  0.96748  1.0000
  S   S51       1.0  0.33118  0.40715  0.93780  1.0000
  C   C141      1.0  0.15339  0.45575  0.80006  1.0000
  Fe  Fe28      1.0  0.25172  0.36610  0.90681  1.0000
  S   S52       1.0  0.28610  0.39246  0.87319  1.0000
  C   C142      1.0  0.21459  0.37921  0.79411  1.0000
  Fe  Fe29      1.0  0.32527  0.36589  0.90126  1.0000
  C   C143      1.0  0.21497  0.37651  0.82849  1.0000
  Fe  Fe30      1.0  0.28779  0.43067  0.91276  1.0000
  S   S53       1.0  0.28117  0.48579  0.90651  1.0000
  H   H138      1.0  0.35896  0.62868  0.91158  1.0000
  S   S54       1.0  0.25091  0.40571  0.94498  1.0000
  H   H139      1.0  0.30155  0.61581  0.90516  1.0000
  C   C144      1.0  0.15641  0.43061  0.74651  1.0000
  H   H140      1.0  0.27954  0.35305  0.81075  1.0000
  H   H141      1.0  0.38792  0.61706  0.88107  1.0000
  C   C145      1.0  0.21674  0.52530  0.82259  1.0000
  C   C146      1.0  0.23056  0.49367  0.82054  1.0000
  C   C147      1.0  0.24949  0.48091  0.84651  1.0000
  C   C148      1.0  0.25515  0.49987  0.87462  1.0000
  C   C149      1.0  0.24092  0.53127  0.87687  1.0000
  C   C150      1.0  0.22152  0.54381  0.85112  1.0000
  H   H142      1.0  0.22716  0.47916  0.79856  1.0000
  H   H143      1.0  0.26042  0.45677  0.84437  1.0000
  H   H144      1.0  0.24480  0.54590  0.89870  1.0000
  H   H145      1.0  0.21030  0.56785  0.85326  1.0000
  H   H146      1.0  0.10603  0.66349  0.69496  1.0000
  H   H147      1.0  0.15882  0.47618  0.81637  1.0000
  H   H148      1.0  0.37165  0.58603  0.90856  1.0000
  H   H149      1.0  0.32623  0.57237  0.79455  1.0000
  H   H150      1.0  0.22553  0.39591  0.84309  1.0000
  Fe  Fe31      1.0  0.13028  0.65051  0.78795  1.0000
  H   H151      1.0  0.17684  0.47807  0.75826  1.0000
  H   H152      1.0  0.16469  0.43087  0.72118  1.0000
  H   H153      1.0  0.31826  0.36697  0.79497  1.0000
  Fe  Fe32      1.0  0.19171  0.65996  0.74803  1.0000
  H   H154      1.0  0.06790  0.37923  0.73932  1.0000
  H   H155      1.0  0.08440  0.38051  0.80405  1.0000
  H   H156      1.0  0.25635  0.60477  0.86658  1.0000
  H   H157      1.0  0.22564  0.40035  0.78239  1.0000
  S   S55       1.0  0.07531  0.65859  0.78627  1.0000
  H   H158      1.0  0.37113  0.58589  0.83314  1.0000
  H   H159      1.0  0.12870  0.42744  0.83702  1.0000
  N   N14       1.0  0.33897  0.60177  0.87129  1.0000
  C   C151      1.0  0.30719  0.60634  0.88091  1.0000
  C   C152      1.0  0.34595  0.58964  0.84072  1.0000
  C   C153      1.0  0.28146  0.59989  0.85927  1.0000
  C   C154      1.0  0.32073  0.58211  0.81873  1.0000
  C   C155      1.0  0.28830  0.58731  0.82814  1.0000
  C   C156      1.0  0.36567  0.60856  0.89434  1.0000
  C   C157      1.0  0.16349  0.45687  0.76735  1.0000
  H   H160      1.0  0.13387  0.38323  0.74228  1.0000
  H   H161      1.0  0.28279  0.36783  0.76899  1.0000
  C   C158      1.0  0.29238  0.46243  0.00303  1.0000
  S   S56       1.0  0.36526  0.34259  0.87050  1.0000
  H   H162      1.0  0.31518  0.44744  0.00389  1.0000
  C   C159      1.0  0.11095  0.37431  0.80327  1.0000
  H   H163      1.0  0.11423  0.35229  0.78738  1.0000
  C   C160      1.0  0.02443  0.35119  0.74948  1.0000
  C   C161      1.0  0.05636  0.35542  0.73735  1.0000
  H   H164      1.0  0.31850  0.66949  0.98321  1.0000
  C   C162      1.0  0.20072  0.35429  0.77496  1.0000
  H   H165      1.0  0.11937  0.36731  0.82829  1.0000
  S   S57       1.0  0.20401  0.35625  0.73189  1.0000
  C   C163      1.0  0.29539  0.35357  0.78862  1.0000
  H   H166      1.0  0.28987  0.47245  0.97772  1.0000
  C   C164      1.0  0.20160  0.34882  0.84378  1.0000
  H   H167      1.0  0.01723  0.37973  0.66611  1.0000
  H   H168      1.0  0.32516  0.67044  0.79849  1.0000
  H   H169      1.0  0.01080  0.66436  0.75908  1.0000
  H   H170      1.0  0.14605  0.66102  0.67646  1.0000
  S   S58       1.0  0.20711  0.34143  0.88589  1.0000
  C   C165      1.0  0.36955  0.98391  0.43556  1.0000
  C   C166      1.0  0.24989  0.76545  0.30243  1.0000
  Fe  Fe33      1.0  0.19178  0.73353  0.37247  1.0000
  S   S59       1.0  0.16348  0.77029  0.34297  1.0000
  Fe  Fe34      1.0  0.18393  0.77273  0.43637  1.0000
  S   S60       1.0  0.15489  0.81269  0.41156  1.0000
  N   N15       1.0  0.46101  0.76215  0.16398  1.0000
  Fe  Fe35      1.0  0.12896  0.77090  0.38586  1.0000
  S   S61       1.0  0.07385  0.77043  0.37885  1.0000
  Fe  Fe36      1.0  0.19204  0.80768  0.37107  1.0000
  S   S62       1.0  0.22178  0.84429  0.34285  1.0000
  S   S63       1.0  0.15539  0.73116  0.41372  1.0000
  S   S64       1.0  0.22273  0.77100  0.39778  1.0000
  Fe  Fe37      1.0  0.40380  0.92784  0.31138  1.0000
  S   S65       1.0  0.43532  0.90089  0.34764  1.0000
  S   S66       1.0  0.39503  0.98287  0.31377  1.0000
  Fe  Fe38      1.0  0.38783  0.86425  0.27398  1.0000
  S   S67       1.0  0.41772  0.83254  0.30774  1.0000
  S   S68       1.0  0.35689  0.84522  0.23226  1.0000
  Fe  Fe39      1.0  0.39510  0.86321  0.34763  1.0000
  S   S69       1.0  0.36820  0.84367  0.39185  1.0000
  Fe  Fe40      1.0  0.45495  0.87304  0.30368  1.0000
  S   S70       1.0  0.36267  0.89228  0.31411  1.0000
  S   S71       1.0  0.42619  0.90302  0.26728  1.0000
  C   C167      1.0  0.32279  0.77816  0.44795  1.0000
  H   H171      1.0  0.48435  0.80453  0.27130  1.0000
  C   C168      1.0  0.05730  0.73716  0.35636  1.0000
  C   C169      1.0  0.07742  0.71217  0.34399  1.0000
  H   H172      1.0  0.41254  0.78027  0.17136  1.0000
  H   H173      1.0  0.10350  0.71280  0.34853  1.0000
  H   H174      1.0  0.23612  0.82316  0.46129  1.0000
  C   C170      1.0  0.26214  0.84158  0.35735  1.0000
  C   C171      1.0  0.28760  0.83452  0.33546  1.0000
  C   C172      1.0  0.31996  0.83317  0.34665  1.0000
  C   C173      1.0  0.32718  0.83990  0.37953  1.0000
  C   C174      1.0  0.30161  0.84554  0.40181  1.0000
  C   C175      1.0  0.26906  0.84617  0.39072  1.0000
  H   H175      1.0  0.28244  0.83003  0.30982  1.0000
  H   H176      1.0  0.33947  0.82747  0.32957  1.0000
  H   H177      1.0  0.30690  0.85034  0.42736  1.0000
  H   H178      1.0  0.24934  0.85123  0.40777  1.0000
  H   H179      1.0  0.44783  0.71610  0.18442  1.0000
  H   H180      1.0  0.42605  0.72678  0.14751  1.0000
  H   H181      1.0  0.30792  0.81405  0.03554  1.0000
  C   C176      1.0  0.29309  0.73556  0.41947  1.0000
  C   C177      1.0  0.37136  0.72620  0.03796  1.0000
  S   S72       1.0  0.21929  0.69064  0.35064  1.0000
  H   H182      1.0  0.38576  0.74235  0.05331  1.0000
  C   C178      1.0  0.31923  0.99575  0.37775  1.0000
  C   C179      1.0  0.38898  0.96003  0.42041  1.0000
  H   H183      1.0  0.30082  0.88773  0.24729  1.0000
  C   C180      1.0  0.23209  0.77798  0.27604  1.0000
  C   C181      1.0  0.21499  0.68526  0.30790  1.0000
  C   C182      1.0  0.36841  0.73629  0.20585  1.0000
  C   C183      1.0  0.38978  0.75084  0.22841  1.0000
  C   C184      1.0  0.38617  0.78410  0.23698  1.0000
  C   C185      1.0  0.36103  0.80302  0.22323  1.0000
  C   C186      1.0  0.33942  0.78837  0.20094  1.0000
  C   C187      1.0  0.34309  0.75512  0.19229  1.0000
  H   H184      1.0  0.40956  0.73651  0.23892  1.0000
  H   H185      1.0  0.40351  0.79518  0.25346  1.0000
  H   H186      1.0  0.32006  0.80289  0.18997  1.0000
  H   H187      1.0  0.32680  0.74443  0.17453  1.0000
  H   H188      1.0  0.33115  0.76532  0.39736  1.0000
  C   C188      1.0  0.34277  0.98090  0.35722  1.0000
  N   N16       1.0  0.31131  0.93500  0.26751  1.0000
  N   N17       1.0  0.33510  0.94157  0.45789  1.0000
  H   H189      1.0  0.30130  0.98065  0.39017  1.0000
  H   H190      1.0  0.34286  0.95451  0.35389  1.0000
  C   C189      1.0  0.26486  0.74488  0.23927  1.0000
  S   S73       1.0  0.29370  0.69496  0.14210  1.0000
  H   H191      1.0  0.23966  0.91832  0.32738  1.0000
  H   H192      1.0  0.02955  0.78745  0.43261  1.0000
  C   C190      1.0  0.23952  0.76760  0.24420  1.0000
  C   C191      1.0  0.35415  0.91801  0.44329  1.0000
  H   H193      1.0  0.33254  0.71988  0.26769  1.0000
  H   H194      1.0  0.26998  0.73640  0.21452  1.0000
  C   C192      1.0  0.28035  0.74725  0.47520  1.0000
  C   C193      1.0  0.26787  0.90008  0.28653  1.0000
  H   H195      1.0  0.17407  0.71816  0.30238  1.0000
  C   C194      1.0  0.38128  0.92685  0.42430  1.0000
  C   C195      1.0  0.49365  0.76960  0.16306  1.0000
  H   H196      1.0  0.27026  0.97129  0.33012  1.0000
  C   C196      1.0  0.45027  0.72801  0.15994  1.0000
  N   N18       1.0  0.30213  0.76842  0.01105  1.0000
  H   H197      1.0  0.28860  0.72173  0.39713  1.0000
  H   H198      1.0  0.30423  0.68631  0.27470  1.0000
  C   C197      1.0  0.19167  0.70293  0.28990  1.0000
  S   S74       1.0  0.21474  0.68198  0.19551  1.0000
  C   C198      1.0  0.30256  0.95845  0.29000  1.0000
  H   H199      1.0  0.32698  0.77925  0.05585  1.0000
  C   C199      1.0  0.34935  0.70401  0.05256  1.0000
  H   H200      1.0  0.31602  0.98140  0.29153  1.0000
  C   C200      1.0  0.29404  0.90629  0.26523  1.0000
  S   S75       1.0  0.19685  0.77102  0.49050  1.0000
  H   H201      1.0  0.17373  0.71563  0.24173  1.0000
  H   H202      1.0  0.27745  0.86067  0.48560  1.0000
  S   S76       1.0  0.37493  0.69511  0.19416  1.0000
  C   C201      1.0  0.30443  0.77165  0.47610  1.0000
  C   C202      1.0  0.02340  0.73572  0.35068  1.0000
  H   H203      1.0  0.32990  0.95558  0.22347  1.0000
  C   C203      1.0  0.00658  0.80048  0.42882  1.0000
  C   C204      1.0  0.24097  0.82249  0.48738  1.0000
  H   H204      1.0  0.31387  0.91352  0.49644  1.0000
  H   H205      1.0  0.48957  0.85093  0.18202  1.0000
  H   H206      1.0  0.25439  0.87718  0.28504  1.0000
  H   H207      1.0  0.24396  0.77306  0.32726  1.0000
  H   H208      1.0  0.34687  0.70313  0.07901  1.0000
  N   N19       1.0  0.28221  0.73278  0.26539  1.0000
  C   C205      1.0  0.27502  0.74276  0.29665  1.0000
  H   H209      1.0  0.27879  0.74521  0.05188  1.0000
  H   H210      1.0  0.28832  0.73271  0.31739  1.0000
  H   H211      1.0  0.34114  0.79745  0.44807  1.0000
  C   C206      1.0  0.19120  0.70107  0.25547  1.0000
  C   C207      1.0  0.48143  0.82619  0.17632  1.0000
  H   H212      1.0  0.28813  0.91961  0.46078  1.0000
  H   H213      1.0  0.43018  0.83693  0.18397  1.0000
  H   H214      1.0  0.21232  0.79535  0.28046  1.0000
  H   H215      1.0  0.40943  0.96727  0.40498  1.0000
  H   H216      1.0  0.22531  0.77647  0.22352  1.0000
  C   C208      1.0  0.44822  0.81834  0.17747  1.0000
  C   C209      1.0  0.43839  0.78610  0.17073  1.0000
  C   C210      1.0  0.30647  0.93140  0.47708  1.0000
  C   C211      1.0  0.30877  0.70900  0.26023  1.0000
  H   H217      1.0  0.29447  0.95248  0.48968  1.0000
  H   H218      1.0  0.00754  0.75466  0.36030  1.0000
  C   C212      1.0  0.32983  0.68383  0.03287  1.0000
  N   N20       1.0  0.27467  0.72988  0.44700  1.0000
  C   C213      1.0  0.31716  0.76003  0.41942  1.0000
  H   H219      1.0  0.34830  0.89212  0.44603  1.0000
  H   H220      1.0  0.24135  0.69827  0.42137  1.0000
  H   H221      1.0  0.35835  0.95534  0.25754  1.0000
  H   H222      1.0  0.01735  0.81198  0.37852  1.0000
  C   C214      1.0  0.33862  0.94130  0.24499  1.0000
  H   H223      1.0  0.31096  0.70161  0.23406  1.0000
  C   C215      1.0  0.25946  0.92335  0.31026  1.0000
  H   H224      1.0  0.32661  0.99312  0.46451  1.0000
  H   H225      1.0  0.39594  0.90800  0.41239  1.0000
  H   H226      1.0  0.46785  0.71355  0.14488  1.0000
  C   C216      1.0  0.24931  0.70439  0.44678  1.0000
  H   H227      1.0  0.22708  0.71306  0.46009  1.0000
  C   C217      1.0  0.27669  0.95289  0.31188  1.0000
  C   C218      1.0  0.02996  0.68503  0.31963  1.0000
  C   C219      1.0  0.34230  0.97423  0.45401  1.0000
  C   C220      1.0  0.50425  0.80184  0.16843  1.0000
  C   C221      1.0  0.00978  0.70979  0.33236  1.0000
  C   C222      1.0  0.06376  0.68615  0.32585  1.0000
  H   H228      1.0  0.11209  0.68289  0.26612  1.0000
  C   C223      1.0  0.36595  0.00027  0.34097  1.0000
  H   H229      1.0  0.34990  0.91794  0.23627  1.0000
  C   C224      1.0  0.26439  0.84370  0.50122  1.0000
  H   H230      1.0  0.10409  0.67661  0.22288  1.0000
  C   C225      1.0  0.28048  0.74714  0.02535  1.0000
  H   H231      1.0  0.24504  0.70863  0.01758  1.0000
  H   H232      1.0  0.34551  0.79616  0.02004  1.0000
  C   C226      1.0  0.32145  0.79067  0.03166  1.0000
  C   C227      1.0  0.21387  0.68126  0.23882  1.0000
  H   H233      1.0  0.25861  0.68171  0.45876  1.0000
  H   H234      1.0  0.26569  0.74279  0.49701  1.0000
  H   H235      1.0  0.30828  0.78588  0.49835  1.0000
  H   H236      1.0  0.16986  0.71696  0.65687  1.0000
  C   C228      1.0  0.05798  0.68794  0.75935  1.0000
  C   C229      1.0  0.26375  0.72788  0.97190  1.0000
  Fe  Fe41      1.0  0.38678  0.79700  0.86781  1.0000
  S   S77       1.0  0.41789  0.76413  0.83669  1.0000
  S   S78       1.0  0.35209  0.83036  0.84102  1.0000
  Fe  Fe42      1.0  0.40611  0.76229  0.93130  1.0000
  S   S79       1.0  0.43915  0.72670  0.90501  1.0000
  C   C230      1.0  0.28815  0.68714  0.88463  1.0000
  Fe  Fe43      1.0  0.45584  0.77080  0.87578  1.0000
  C   C231      1.0  0.38185  0.99241  0.73951  1.0000
  Fe  Fe44      1.0  0.39842  0.72385  0.86840  1.0000
  H   H237      1.0  0.47608  0.73418  0.75756  1.0000
  S   S80       1.0  0.42600  0.80707  0.90514  1.0000
  S   S81       1.0  0.36416  0.75620  0.89663  1.0000
  Fe  Fe45      1.0  0.35019  0.86227  0.66674  1.0000
  S   S82       1.0  0.31524  0.88809  0.70032  1.0000
  S   S83       1.0  0.39487  0.84220  0.69243  1.0000
  Fe  Fe46      1.0  0.30667  0.87334  0.60697  1.0000
  S   S84       1.0  0.26843  0.89980  0.63683  1.0000
  S   S85       1.0  0.30159  0.86894  0.55144  1.0000
  Fe  Fe47      1.0  0.31082  0.92571  0.66081  1.0000
  S   S86       1.0  0.30820  0.98017  0.67318  1.0000
  Fe  Fe48      1.0  0.27671  0.85949  0.67375  1.0000
  S   S87       1.0  0.23648  0.83784  0.70525  1.0000
  S   S88       1.0  0.34877  0.90218  0.62849  1.0000
  S   S89       1.0  0.31204  0.83106  0.64239  1.0000
  C   C232      1.0  0.36462  0.83225  0.79985  1.0000
  C   C233      1.0  0.34183  0.82708  0.77478  1.0000
  C   C234      1.0  0.35157  0.82868  0.74185  1.0000
  C   C235      1.0  0.38388  0.83662  0.73377  1.0000
  C   C236      1.0  0.40689  0.84115  0.75886  1.0000
  C   C237      1.0  0.39734  0.83853  0.79190  1.0000
  H   H238      1.0  0.31667  0.82145  0.78067  1.0000
  H   H239      1.0  0.33392  0.82402  0.72263  1.0000
  H   H240      1.0  0.43177  0.84791  0.75289  1.0000
  H   H241      1.0  0.41503  0.84259  0.81124  1.0000
  H   H242      1.0  0.46496  0.99811  0.77243  1.0000
  H   H243      1.0  0.47568  0.82628  0.82403  1.0000
  H   H244      1.0  0.13876  0.68844  0.71048  1.0000
  H   H245      1.0  0.40056  0.97743  0.75099  1.0000
  H   H246      1.0  0.35766  0.70856  0.95755  1.0000
  C   C238      1.0  0.06132  0.73816  0.72711  1.0000
  C   C239      1.0  0.32221  0.68627  0.88042  1.0000
  H   H247      1.0  0.07542  0.75895  0.71851  1.0000
  C   C240      1.0  0.21932  0.72640  0.70310  1.0000
  C   C241      1.0  0.19984  0.74692  0.72261  1.0000
  C   C242      1.0  0.20525  0.78104  0.72296  1.0000
  C   C243      1.0  0.22994  0.79497  0.70354  1.0000
  C   C244      1.0  0.24888  0.77452  0.68341  1.0000
  C   C245      1.0  0.24345  0.74039  0.68304  1.0000
  H   H248      1.0  0.18026  0.73674  0.73708  1.0000
  H   H249      1.0  0.19012  0.79672  0.73822  1.0000
  H   H250      1.0  0.26765  0.78491  0.66800  1.0000
  H   H251      1.0  0.25826  0.72477  0.66741  1.0000
  H   H252      1.0  0.25279  0.94733  0.70671  1.0000
  H   H253      1.0  0.44612  0.76488  0.76931  1.0000
  H   H254      1.0  0.33813  0.68957  0.90135  1.0000
  H   H255      1.0  0.32257  0.78642  0.96629  1.0000
  H   H256      1.0  0.10131  0.71761  0.75527  1.0000
  H   H257      1.0  0.09924  0.77857  0.60867  1.0000
  C   C246      1.0  0.46926  0.79859  0.72036  1.0000
  C   C247      1.0  0.30488  0.77003  0.97758  1.0000
  C   C248      1.0  0.07610  0.71469  0.74777  1.0000
  C   C249      1.0  0.36075  0.97824  0.71615  1.0000
  H   H258      1.0  0.28945  0.86656  0.80671  1.0000
  H   H259      1.0  0.36333  0.95253  0.70971  1.0000
  H   H260      1.0  0.29173  0.97114  0.74500  1.0000
  H   H261      1.0  0.26543  0.67546  0.80547  1.0000
  C   C250      1.0  0.23104  0.79916  0.54110  1.0000
  C   C251      1.0  0.25416  0.82064  0.55501  1.0000
  C   C252      1.0  0.27108  0.84288  0.53509  1.0000
  C   C253      1.0  0.29124  0.94806  0.75834  1.0000
  H   H262      1.0  0.15734  0.76422  0.62070  1.0000
  H   H263      1.0  0.21840  0.78172  0.55663  1.0000
  H   H264      1.0  0.25917  0.81971  0.58109  1.0000
  S   S90       1.0  0.22478  0.68306  0.86359  1.0000
  S   S91       1.0  0.39776  0.76034  0.98633  1.0000
  H   H265      1.0  0.27789  0.69099  0.90876  1.0000
  C   C254      1.0  0.26739  0.68228  0.85776  1.0000
  C   C255      1.0  0.26626  0.89657  0.76943  1.0000
  S   S92       1.0  0.16736  0.69105  0.78630  1.0000
  C   C256      1.0  0.29011  0.88948  0.79310  1.0000
  H   H266      1.0  0.22164  0.94595  0.73834  1.0000
  C   C257      1.0  0.50167  0.82788  0.81920  1.0000
  C   C258      1.0  0.13758  0.74970  0.63105  1.0000
  H   H267      1.0  0.24730  0.87859  0.76451  1.0000
  S   S93       1.0  0.21374  0.68338  0.70278  1.0000
  H   H268      1.0  0.06808  0.69790  0.66882  1.0000
  C   C259      1.0  0.33348  0.68506  0.99857  1.0000
  C   C260      1.0  0.31536  0.91182  0.79862  1.0000
  H   H269      1.0  0.44315  0.79408  0.71871  1.0000
  H   H270      1.0  0.23317  0.90931  0.71578  1.0000
  N   N21       1.0  0.30909  0.74863  0.78141  1.0000
  C   C261      1.0  0.31591  0.75750  0.81308  1.0000
  C   C262      1.0  0.27747  0.74341  0.77176  1.0000
  C   C263      1.0  0.29064  0.76252  0.83571  1.0000
  C   C264      1.0  0.25161  0.74778  0.79389  1.0000
  C   C265      1.0  0.25828  0.75748  0.82603  1.0000
  C   C266      1.0  0.33584  0.74296  0.75805  1.0000
  H   H271      1.0  0.34102  0.76079  0.82101  1.0000
  H   H272      1.0  0.27214  0.73539  0.74696  1.0000
  H   H273      1.0  0.29628  0.76976  0.86068  1.0000
  H   H274      1.0  0.22662  0.74297  0.78640  1.0000
  H   H275      1.0  0.23846  0.76006  0.84361  1.0000
  H   H276      1.0  0.35838  0.75630  0.76549  1.0000
  H   H277      1.0  0.34145  0.71625  0.75671  1.0000
  H   H278      1.0  0.32904  0.75214  0.73321  1.0000
  H   H279      1.0  0.49679  0.86708  0.78363  1.0000
  C   C267      1.0  0.33557  0.67997  0.84939  1.0000
  C   C268      1.0  0.49017  0.00653  0.77133  1.0000
  C   C269      1.0  0.10502  0.75770  0.62428  1.0000
  N   N22       1.0  0.26739  0.92536  0.75204  1.0000
  H   H280      1.0  0.48379  0.76201  0.79135  1.0000
  C   C270      1.0  0.07993  0.73883  0.63783  1.0000
  H   H281      1.0  0.33456  0.90600  0.81619  1.0000
  C   C271      1.0  0.02860  0.73462  0.71717  1.0000
  N   N23       1.0  0.48792  0.78293  0.74352  1.0000
  H   H282      1.0  0.33531  0.95912  0.78546  1.0000
  C   C272      1.0  0.08781  0.71215  0.65808  1.0000
  C   C273      1.0  0.31585  0.94147  0.78135  1.0000
  C   C274      1.0  0.47271  0.75977  0.76646  1.0000
  C   C275      1.0  0.28581  0.74974  0.95750  1.0000
  C   C276      1.0  0.02502  0.68490  0.75006  1.0000
  H   H283      1.0  0.05447  0.74509  0.63321  1.0000
  C   C277      1.0  0.35563  0.70717  0.98398  1.0000
  H   H284      1.0  0.28856  0.75057  0.93102  1.0000
  C   C278      1.0  0.24242  0.93239  0.72712  1.0000
  C   C279      1.0  0.14453  0.72298  0.65158  1.0000
  N   N24       1.0  0.11978  0.70476  0.66496  1.0000
  C   C280      1.0  0.33624  0.99730  0.70145  1.0000
  H   H285      1.0  0.24903  0.71169  0.95673  1.0000
  C   C281      1.0  0.01043  0.70796  0.72879  1.0000
  C   C282      1.0  0.28094  0.67694  0.82666  1.0000
  C   C283      1.0  0.12790  0.67805  0.68774  1.0000
  S   S94       1.0  0.37799  0.67921  0.84377  1.0000
  H   H286      1.0  0.00816  0.74168  0.79991  1.0000
  C   C284      1.0  0.37406  0.72840  0.00364  1.0000
  S   S95       1.0  0.01124  0.76412  0.69045  1.0000
  C   C285      1.0  0.48331  0.82150  0.69900  1.0000
  H   H287      1.0  0.46804  0.83481  0.68161  1.0000
  H   H288      1.0  0.00803  0.78705  0.75946  1.0000
  C   C286      1.0  0.22435  0.79999  0.50729  1.0000
  C   C287      1.0  0.31492  0.67495  0.82259  1.0000
  C   C288      1.0  0.26115  0.72642  0.00603  1.0000
  Fe  Fe49      1.0  0.67517  0.09388  0.29752  1.0000
  S   S96       1.0  0.65429  0.12328  0.33925  1.0000
  S   S97       1.0  0.67746  0.03815  0.30047  1.0000
  Fe  Fe50      1.0  0.69360  0.15598  0.25949  1.0000
  S   S98       1.0  0.67454  0.18974  0.29853  1.0000
  S   S99       1.0  0.72201  0.17860  0.21814  1.0000
  Fe  Fe51      1.0  0.69894  0.15471  0.33335  1.0000
  S   S100      1.0  0.72743  0.17381  0.37683  1.0000
  Fe  Fe52      1.0  0.63188  0.15518  0.29989  1.0000
  S   S101      1.0  0.57960  0.17334  0.30495  1.0000
  S   S102      1.0  0.72114  0.12330  0.29403  1.0000
  S   S103      1.0  0.64928  0.12332  0.25819  1.0000
  H   H289      1.0  0.60632  0.19985  0.24400  1.0000
  Fe  Fe53      1.0  0.96809  0.26709  0.38219  1.0000
  C   C289      1.0  0.66543  0.29333  0.07173  1.0000
  Fe  Fe54      1.0  0.90381  0.22998  0.37434  1.0000
  S   S104      1.0  0.87545  0.26677  0.40356  1.0000
  S   S105      1.0  0.87972  0.18569  0.35217  1.0000
  C   C290      1.0  0.82736  0.25684  0.31910  1.0000
  Fe  Fe55      1.0  0.91799  0.26498  0.43807  1.0000
  Fe  Fe56      1.0  0.90445  0.30403  0.37576  1.0000
  S   S106      1.0  0.92939  0.26737  0.34316  1.0000
  S   S107      1.0  0.94492  0.22566  0.41038  1.0000
  H   H290      1.0  0.85787  0.22721  0.45863  1.0000
  N   N25       1.0  0.83426  0.24239  0.28953  1.0000
  H   H291      1.0  0.78190  0.02140  0.29888  1.0000
  C   C291      1.0  0.74636  0.05967  0.44666  1.0000
  H   H292      1.0  0.92235  0.33427  0.30124  1.0000
  C   C292      1.0  0.73745  0.29086  0.04169  1.0000
  H   H293      1.0  0.65498  0.24623  0.04964  1.0000
  H   H294      1.0  0.73919  0.26616  0.05147  1.0000
  C   C293      1.0  0.77228  0.23564  0.31692  1.0000
  H   H295      1.0  0.61028  0.24464  0.31767  1.0000
  C   C294      1.0  0.81099  0.22428  0.27358  1.0000
  C   C295      1.0  0.70561  0.02163  0.32896  1.0000
  C   C296      1.0  0.72830  0.04181  0.34482  1.0000
  S   S108      1.0  0.51944  0.26980  0.19814  1.0000
  C   C297      1.0  0.67903  0.24113  0.09658  1.0000
  C   C298      1.0  0.72109  0.11255  0.43701  1.0000
  H   H296      1.0  0.72782  0.06808  0.34080  1.0000
  H   H297      1.0  0.70467  0.30510  0.14311  1.0000
  H   H298      1.0  0.71466  0.00856  0.24082  1.0000
  C   C299      1.0  0.71429  0.22097  0.21547  1.0000
  C   C300      1.0  0.68234  0.23316  0.21794  1.0000
  C   C301      1.0  0.67637  0.26703  0.21481  1.0000
  C   C302      1.0  0.70246  0.28896  0.21064  1.0000
  C   C303      1.0  0.73445  0.27675  0.20890  1.0000
  C   C304      1.0  0.74029  0.24277  0.21058  1.0000
  H   H299      1.0  0.66214  0.21634  0.22129  1.0000
  H   H300      1.0  0.65147  0.27605  0.21523  1.0000
  H   H301      1.0  0.75483  0.29341  0.20647  1.0000
  H   H302      1.0  0.76504  0.23344  0.20860  1.0000
  C   C305      1.0  0.77024  0.17444  0.37198  1.0000
  C   C306      1.0  0.78546  0.15728  0.34643  1.0000
  C   C307      1.0  0.81918  0.16030  0.34106  1.0000
  C   C308      1.0  0.83800  0.18053  0.36128  1.0000
  C   C309      1.0  0.82315  0.19646  0.38791  1.0000
  C   C310      1.0  0.78933  0.19342  0.39328  1.0000
  H   H303      1.0  0.77148  0.14170  0.33063  1.0000
  H   H304      1.0  0.83057  0.14741  0.32077  1.0000
  H   H305      1.0  0.83748  0.21122  0.40435  1.0000
  H   H306      1.0  0.77790  0.20651  0.41341  1.0000
  C   C311      1.0  0.56323  0.19944  0.27447  1.0000
  C   C312      1.0  0.53109  0.21120  0.27806  1.0000
  C   C313      1.0  0.85492  0.22286  0.48454  1.0000
  C   C314      1.0  0.53542  0.24147  0.22681  1.0000
  C   C315      1.0  0.56775  0.23008  0.22341  1.0000
  C   C316      1.0  0.58151  0.20877  0.24696  1.0000
  C   C317      1.0  0.76920  0.02038  0.27475  1.0000
  H   H307      1.0  0.58218  0.23766  0.20244  1.0000
  H   H308      1.0  0.77147  0.11668  0.50202  1.0000
  H   H309      1.0  0.72751  0.17555  0.44941  1.0000
  C   C318      1.0  0.82926  0.20285  0.49576  1.0000
  C   C319      1.0  0.77964  0.22070  0.28696  1.0000
  H   H310      1.0  0.65519  0.30691  0.05120  1.0000
  H   H311      1.0  0.78723  0.02475  0.25483  1.0000
  C   C320      1.0  0.62987  0.32006  0.26362  1.0000
  H   H312      1.0  0.81273  0.19190  0.47821  1.0000
  C   C321      1.0  0.59153  0.28154  0.28436  1.0000
  C   C322      1.0  0.86733  0.24454  0.27575  1.0000
  H   H313      1.0  0.88147  0.22205  0.28228  1.0000
  H   H314      1.0  0.74979  0.03393  0.44017  1.0000
  H   H315      1.0  0.99309  0.32258  0.33978  1.0000
  H   H316      1.0  0.71344  0.16272  0.48965  1.0000
  H   H317      1.0  0.87557  0.13956  0.42217  1.0000
  H   H318      1.0  0.79107  0.26497  0.35680  1.0000
  H   H319      1.0  0.81664  0.21224  0.25049  1.0000
  C   C323      1.0  0.51706  0.23170  0.25410  1.0000
  C   C324      1.0  0.69308  0.25785  0.12293  1.0000
  H   H320      1.0  0.76198  0.31295  0.08313  1.0000
  H   H321      1.0  0.86646  0.24747  0.24861  1.0000
  H   H322      1.0  0.91478  0.32932  0.24094  1.0000
  C   C325      1.0  0.66513  0.25892  0.07076  1.0000
  C   C326      1.0  0.75237  0.02793  0.36523  1.0000
  C   C327      1.0  0.75020  0.31736  0.05977  1.0000
  C   C328      1.0  0.61597  0.26625  0.30303  1.0000
  H   H323      1.0  0.88064  0.26622  0.28546  1.0000
  C   C329      1.0  0.57362  0.32164  0.24295  1.0000
  S   S109      1.0  0.77361  0.33363  0.15323  1.0000
  H   H324      1.0  0.84604  0.27053  0.33215  1.0000
  C   C330      1.0  0.86217  0.33232  0.24330  1.0000
  H   H325      1.0  0.70426  0.12764  0.42288  1.0000
  H   H326      1.0  0.71140  0.06917  0.40809  1.0000
  H   H327      1.0  0.67919  0.21444  0.09603  1.0000
  H   H328      1.0  0.75610  0.17105  0.48226  1.0000
  C   C331      1.0  0.72495  0.07941  0.42857  1.0000
  H   H329      1.0  0.67968  0.31496  0.28052  1.0000
  H   H330      1.0  0.75089  0.04073  0.27473  1.0000
  H   H331      1.0  0.51696  0.20452  0.29954  1.0000
  S   S110      1.0  0.85741  0.33231  0.20046  1.0000
  H   H332      1.0  0.77945  0.05789  0.48782  1.0000
  C   C332      1.0  0.64784  0.27844  0.30191  1.0000
  H   H333      1.0  0.66715  0.26645  0.31578  1.0000
  C   C333      1.0  0.73352  0.16044  0.47140  1.0000
  C   C334      1.0  0.89364  0.33140  0.25687  1.0000
  H   H334      1.0  0.52065  0.12916  0.32114  1.0000
  C   C335      1.0  0.89341  0.15677  0.43343  1.0000
  H   H335      1.0  0.76137  0.20597  0.27442  1.0000
  H   H336      1.0  0.57658  0.31122  0.21785  1.0000
  C   C336      1.0  0.65483  0.30571  0.28234  1.0000
  H   H337      1.0  0.56693  0.27172  0.28513  1.0000
  H   H338      1.0  0.70397  0.24431  0.14319  1.0000
  H   H339      1.0  0.77041  0.04365  0.37664  1.0000
  N   N26       1.0  0.59872  0.30787  0.26475  1.0000
  C   C337      1.0  0.76319  0.07317  0.47324  1.0000
  H   H340      1.0  0.88552  0.18218  0.42727  1.0000
  S   S111      1.0  0.94483  0.30657  0.41318  1.0000
  C   C338      1.0  0.79623  0.25390  0.33311  1.0000
  S   S112      1.0  0.69470  0.33139  0.20656  1.0000
  H   H341      1.0  0.52291  0.14387  0.26241  1.0000
  C   C339      1.0  0.75870  0.10644  0.48103  1.0000
  N   N27       1.0  0.73835  0.12580  0.46255  1.0000
  H   H342      1.0  0.91757  0.15219  0.42169  1.0000
  C   C340      1.0  0.89792  0.33423  0.29095  1.0000
  C   C341      1.0  0.87073  0.33847  0.31141  1.0000
  N   N28       1.0  0.67987  0.30952  0.09736  1.0000
  H   H343      1.0  0.74834  0.23228  0.32799  1.0000
  S   S113      1.0  0.91165  0.25866  0.49296  1.0000
  H   H344      1.0  0.93629  0.18558  0.47301  1.0000
  C   C342      1.0  0.72203  0.29618  0.01133  1.0000
  C   C343      1.0  0.69331  0.29225  0.12286  1.0000
  H   H345      1.0  0.54847  0.31554  0.25146  1.0000
  C   C344      1.0  0.91939  0.16962  0.48595  1.0000
  C   C345      1.0  0.87306  0.13448  0.48578  1.0000
  C   C346      1.0  0.83494  0.33433  0.26407  1.0000
  N   N29       1.0  0.89560  0.15301  0.46918  1.0000
  H   H346      1.0  0.85345  0.12232  0.47269  1.0000
  C   C347      1.0  0.83921  0.33806  0.29803  1.0000
  H   H347      1.0  0.81059  0.33302  0.25399  1.0000
  H   H348      1.0  0.81811  0.34070  0.31390  1.0000
  H   H349      1.0  0.63587  0.34036  0.24738  1.0000
  C   C348      1.0  0.87704  0.23662  0.50679  1.0000
  S   S114      1.0  0.70406  0.26266  0.99064  1.0000
  C   C349      1.0  0.81218  0.26854  0.90482  1.0000
  H   H350      1.0  0.93029  0.32725  0.69263  1.0000
  C   C350      1.0  0.52929  0.05087  0.77150  1.0000
  Fe  Fe57      1.0  0.75518  0.17293  0.66157  1.0000
  S   S115      1.0  0.78928  0.14126  0.69086  1.0000
  S   S116      1.0  0.71662  0.20369  0.68688  1.0000
  Fe  Fe58      1.0  0.79195  0.15968  0.59733  1.0000
  S   S117      1.0  0.82876  0.12705  0.62224  1.0000
  S   S118      1.0  0.79518  0.16841  0.54243  1.0000
  Fe  Fe59      1.0  0.78516  0.10590  0.64888  1.0000
  S   S119      1.0  0.77880  0.05082  0.65468  1.0000
  Fe  Fe60      1.0  0.82865  0.16583  0.66159  1.0000
  S   S120      1.0  0.87155  0.18648  0.68945  1.0000
  S   S121      1.0  0.74814  0.13596  0.62112  1.0000
  S   S122      1.0  0.79483  0.19987  0.63479  1.0000
  H   H351      1.0  0.78926  0.27442  0.81065  1.0000
  S   S123      1.0  0.72637  0.27645  0.89951  1.0000
  H   H352      1.0  0.53771  0.17213  0.90655  1.0000
  Fe  Fe61      1.0  0.63248  0.27049  0.88722  1.0000
  S   S124      1.0  0.66210  0.22947  0.90938  1.0000
  S   S125      1.0  0.57780  0.26817  0.87780  1.0000
  Fe  Fe62      1.0  0.68780  0.26942  0.93782  1.0000
  N   N30       1.0  0.78770  0.26011  0.72878  1.0000
  Fe  Fe63      1.0  0.69809  0.24068  0.86917  1.0000
  S   S126      1.0  0.72503  0.20075  0.84189  1.0000
  H   H353      1.0  0.53464  0.07704  0.77280  1.0000
  S   S127      1.0  0.66668  0.27878  0.84494  1.0000
  C   C351      1.0  0.82549  0.19641  0.52941  1.0000
  C   C352      1.0  0.84711  0.21079  0.55182  1.0000
  C   C353      1.0  0.87277  0.23088  0.54053  1.0000
  S   S128      1.0  0.91758  0.34059  0.78150  1.0000
  C   C354      1.0  0.51636  0.18782  0.90392  1.0000
  H   H354      1.0  0.98511  0.31671  0.75606  1.0000
  H   H355      1.0  0.84450  0.20595  0.57781  1.0000
  H   H356      1.0  0.88974  0.24147  0.55793  1.0000
  H   H357      1.0  0.77627  0.30210  0.75803  1.0000
  C   C355      1.0  0.71986  0.20319  0.72987  1.0000
  C   C356      1.0  0.73158  0.17537  0.74629  1.0000
  C   C357      1.0  0.73411  0.17530  0.78062  1.0000
  C   C358      1.0  0.72428  0.20282  0.79879  1.0000
  C   C359      1.0  0.71274  0.23078  0.78238  1.0000
  C   C360      1.0  0.71033  0.23088  0.74799  1.0000
  H   H358      1.0  0.73757  0.15339  0.73272  1.0000
  H   H359      1.0  0.74282  0.15350  0.79315  1.0000
  H   H360      1.0  0.70595  0.25242  0.79604  1.0000
  H   H361      1.0  0.70129  0.25252  0.73541  1.0000
  H   H362      1.0  0.77628  0.28546  0.95711  1.0000
  C   C361      1.0  0.74860  0.03626  0.68216  1.0000
  C   C362      1.0  0.73004  0.05782  0.70149  1.0000
  C   C363      1.0  0.70658  0.04534  0.72352  1.0000
  H   H363      1.0  0.73388  0.08406  0.69952  1.0000
  H   H364      1.0  0.69234  0.06202  0.73836  1.0000
  H   H365      1.0  0.83336  0.25667  0.89240  1.0000
  Fe  Fe64      1.0  0.69222  0.31392  0.87859  1.0000
  H   H366      1.0  0.85559  0.11839  0.53333  1.0000
  S   S129      1.0  0.51802  0.15255  0.79202  1.0000
  H   H367      1.0  0.79529  0.24864  0.91273  1.0000
  C   C364      1.0  0.80303  0.22876  0.78750  1.0000
  H   H368      1.0  0.93932  0.18201  0.53341  1.0000
  H   H369      1.0  0.60417  0.20521  0.85725  1.0000
  H   H370      1.0  0.67358  0.13308  0.83258  1.0000
  H   H371      1.0  0.80827  0.21622  0.81042  1.0000
  C   C365      1.0  0.86485  0.29824  0.69934  1.0000
  C   C366      1.0  0.87592  0.27911  0.72567  1.0000
  C   C367      1.0  0.87876  0.24483  0.72226  1.0000
  C   C368      1.0  0.86998  0.22954  0.69272  1.0000
  C   C369      1.0  0.85919  0.24872  0.66635  1.0000
  C   C370      1.0  0.85667  0.28298  0.66965  1.0000
  H   H372      1.0  0.88177  0.29054  0.74882  1.0000
  H   H373      1.0  0.88702  0.23005  0.74277  1.0000
  H   H374      1.0  0.85335  0.23727  0.64314  1.0000
  H   H375      1.0  0.84837  0.29768  0.64909  1.0000
  C   C371      1.0  0.56260  0.23711  0.85165  1.0000
  C   C372      1.0  0.53111  0.24034  0.83822  1.0000
  H   H376      1.0  0.92738  0.26893  0.65963  1.0000
  C   C373      1.0  0.53489  0.18561  0.81444  1.0000
  C   C374      1.0  0.56661  0.18259  0.82742  1.0000
  C   C375      1.0  0.58034  0.20818  0.84614  1.0000
  C   C376      1.0  0.86330  0.32215  0.95901  1.0000
  H   H377      1.0  0.58026  0.16007  0.82360  1.0000
  C   C377      1.0  0.81016  0.31552  0.98384  1.0000
  N   N31       1.0  0.64305  0.18327  0.77376  1.0000
  C   C378      1.0  0.64729  0.16357  0.74682  1.0000
  C   C379      1.0  0.65182  0.17232  0.80430  1.0000
  C   C380      1.0  0.66097  0.13213  0.75007  1.0000
  C   C381      1.0  0.66552  0.14104  0.80845  1.0000
  C   C382      1.0  0.67009  0.12084  0.78114  1.0000
  C   C383      1.0  0.62788  0.21578  0.76993  1.0000
  H   H378      1.0  0.64085  0.17243  0.72251  1.0000
  H   H379      1.0  0.89885  0.14804  0.56398  1.0000
  H   H380      1.0  0.66514  0.11698  0.72850  1.0000
  H   H381      1.0  0.68133  0.09680  0.78404  1.0000
  H   H382      1.0  0.63484  0.23255  0.79034  1.0000
  H   H383      1.0  0.63606  0.22764  0.74673  1.0000
  H   H384      1.0  0.60078  0.21336  0.76971  1.0000
  C   C384      1.0  0.89851  0.14872  0.53731  1.0000
  H   H385      1.0  0.78714  0.30187  0.69721  1.0000
  C   C385      1.0  0.85348  0.30154  0.93336  1.0000
  C   C386      1.0  0.79230  0.26138  0.78762  1.0000
  H   H386      1.0  0.81440  0.18663  0.75718  1.0000
  C   C387      1.0  0.80619  0.21204  0.75775  1.0000
  C   C388      1.0  0.80096  0.29534  0.95762  1.0000
  H   H387      1.0  0.57972  0.03625  0.76712  1.0000
  C   C389      1.0  0.92127  0.16766  0.52020  1.0000
  H   H388      1.0  0.79941  0.28456  0.88676  1.0000
  C   C390      1.0  0.77784  0.27619  0.69811  1.0000
  C   C391      1.0  0.72034  0.32810  0.99865  1.0000
  S   S130      1.0  0.65518  0.30981  0.91910  1.0000
  H   H389      1.0  0.51738  0.28552  0.91585  1.0000
  H   H390      1.0  0.79979  0.21463  0.70566  1.0000
  C   C392      1.0  0.55460  0.02771  0.76836  1.0000
  C   C393      1.0  0.78479  0.27681  0.75781  1.0000
  C   C394      1.0  0.79795  0.22807  0.72853  1.0000
  H   H391      1.0  0.78799  0.26323  0.67633  1.0000
  N   N32       1.0  0.96844  0.29860  0.67093  1.0000
  H   H392      1.0  0.51723  0.26266  0.84241  1.0000
  H   H393      1.0  0.64950  0.18822  0.82553  1.0000
  C   C395      1.0  0.87424  0.13198  0.52006  1.0000
  H   H394      1.0  0.75073  0.27607  0.69598  1.0000
  H   H395      1.0  0.87041  0.29691  0.91331  1.0000
  N   N33       1.0  0.82269  0.28837  0.93294  1.0000
  H   H396      1.0  0.88748  0.33313  0.95872  1.0000
  S   S131      1.0  0.86087  0.34118  0.70258  1.0000
  C   C396      1.0  0.95021  0.26781  0.67440  1.0000
  H   H397      1.0  0.82386  0.33422  0.81518  1.0000
  H   H398      1.0  0.70864  0.33249  0.97520  1.0000
  C   C397      1.0  0.70159  0.01134  0.72656  1.0000
  C   C398      1.0  0.84145  0.32909  0.98445  1.0000
  H   H399      1.0  0.53926  0.22954  0.92655  1.0000
  C   C399      1.0  0.51709  0.22035  0.91513  1.0000
  H   H400      1.0  0.76316  0.33859  0.81299  1.0000
  C   C400      1.0  0.51723  0.21465  0.81980  1.0000
  H   H401      1.0  0.79306  0.32089  0.00343  1.0000
  H   H402      1.0  0.94367  0.26376  0.70059  1.0000
  C   C401      1.0  0.99917  0.29862  0.65746  1.0000
  H   H403      1.0  0.96461  0.24610  0.66615  1.0000
  C   C402      1.0  0.95456  0.32728  0.68179  1.0000
  S   S132      1.0  0.87593  0.34551  0.35347  1.0000
  H   H404      1.0  0.84846  0.40098  0.27231  1.0000
  Fe  Fe65      1.0  0.77648  0.42404  0.18545  1.0000
  S   S133      1.0  0.81421  0.40363  0.15091  1.0000
  S   S134      1.0  0.77616  0.47655  0.20440  1.0000
  Fe  Fe66      1.0  0.77180  0.38035  0.12424  1.0000
  S   S135      1.0  0.76400  0.38323  0.06918  1.0000
  H   H405      1.0  0.92678  0.43747  0.29541  1.0000
  C   C403      1.0  0.81413  0.65390  0.21693  1.0000
  S   S136      1.0  0.73393  0.40426  0.15645  1.0000
  S   S137      1.0  0.77719  0.38099  0.21980  1.0000
  H   H406      1.0  0.87180  0.61587  0.18193  1.0000
  H   H407      1.0  0.70425  0.35456  0.10758  1.0000
  Fe  Fe67      1.0  0.90653  0.59353  0.28290  1.0000
  S   S138      1.0  0.93721  0.62172  0.24686  1.0000
  S   S139      1.0  0.90109  0.53875  0.27308  1.0000
  C   C404      1.0  0.68035  0.34557  0.09815  1.0000
  H   H408      1.0  0.79182  0.48266  0.30729  1.0000
  Fe  Fe68      1.0  0.95868  0.64712  0.29103  1.0000
  S   S140      1.0  0.86528  0.62982  0.28276  1.0000
  S   S141      1.0  0.93064  0.61621  0.32732  1.0000
  H   H409      1.0  0.89491  0.47718  0.32652  1.0000
  Fe  Fe69      1.0  0.89714  0.65940  0.24959  1.0000
  H   H410      1.0  0.76748  0.63006  0.22379  1.0000
  H   H411      1.0  0.67749  0.35626  0.07317  1.0000
  C   C405      1.0  0.75772  0.63634  0.06071  1.0000
  H   H412      1.0  0.82798  0.63290  0.22524  1.0000
  Fe  Fe70      1.0  0.81207  0.35882  0.18338  1.0000
  H   H413      1.0  0.77168  0.62643  0.04024  1.0000
  H   H414      1.0  0.79996  0.64359  0.09144  1.0000
  C   C406      1.0  0.81133  0.49376  0.22272  1.0000
  C   C407      1.0  0.84135  0.47714  0.22277  1.0000
  C   C408      1.0  0.86889  0.49160  0.23760  1.0000
  C   C409      1.0  0.86667  0.52276  0.25234  1.0000
  C   C410      1.0  0.83679  0.53962  0.25176  1.0000
  C   C411      1.0  0.80923  0.52512  0.23706  1.0000
  H   H415      1.0  0.84328  0.45305  0.21161  1.0000
  H   H416      1.0  0.89193  0.47841  0.23796  1.0000
  H   H417      1.0  0.83467  0.56346  0.26336  1.0000
  H   H418      1.0  0.78607  0.53813  0.23704  1.0000
  H   H419      1.0  0.87679  0.58883  0.21690  1.0000
  C   C412      1.0  0.84704  0.42371  0.28609  1.0000
  H   H420      1.0  0.90607  0.58851  0.18384  1.0000
  Fe  Fe71      1.0  0.89221  0.65583  0.32293  1.0000
  H   H421      1.0  0.65775  0.63887  0.08791  1.0000
  H   H422      1.0  0.66052  0.35488  0.11437  1.0000
  H   H423      1.0  0.79514  0.42941  0.27755  1.0000
  C   C413      1.0  0.77982  0.65221  0.21585  1.0000
  H   H424      1.0  0.90706  0.40487  0.27365  1.0000
  C   C414      1.0  0.77361  0.64612  0.08938  1.0000
  C   C415      1.0  0.81678  0.43964  0.28907  1.0000
  Fe  Fe72      1.0  0.73870  0.35892  0.18750  1.0000
  H   H425      1.0  0.71207  0.63483  0.03482  1.0000
  C   C416      1.0  0.72176  0.66447  0.11125  1.0000
  H   H426      1.0  0.76763  0.66801  0.13721  1.0000
  C   C417      1.0  0.90605  0.41986  0.29649  1.0000
  N   N34       1.0  0.86017  0.56534  0.17368  1.0000
  C   C418      1.0  0.82731  0.57016  0.16918  1.0000
  C   C419      1.0  0.87446  0.53606  0.16516  1.0000
  C   C420      1.0  0.80799  0.54554  0.15512  1.0000
  C   C421      1.0  0.85592  0.51105  0.15071  1.0000
  C   C422      1.0  0.82248  0.51588  0.14571  1.0000
  C   C423      1.0  0.87963  0.59086  0.18985  1.0000
  H   H427      1.0  0.81574  0.59283  0.17720  1.0000
  H   H428      1.0  0.90018  0.53163  0.17020  1.0000
  H   H429      1.0  0.78173  0.54882  0.15271  1.0000
  H   H430      1.0  0.86711  0.48758  0.14463  1.0000
  H   H431      1.0  0.80751  0.49611  0.13597  1.0000
  H   H432      1.0  0.84223  0.50655  0.33196  1.0000
  C   C424      1.0  0.81493  0.46952  0.30581  1.0000
  C   C425      1.0  0.72396  0.64137  0.05771  1.0000
  H   H433      1.0  0.66462  0.66587  0.05300  1.0000
  C   C426      1.0  0.87297  0.46620  0.31636  1.0000
  C   C427      1.0  0.67119  0.66081  0.07901  1.0000
  N   N35       1.0  0.70654  0.65575  0.08262  1.0000
  C   C428      1.0  0.74803  0.34938  0.04737  1.0000
  C   C429      1.0  0.84314  0.48289  0.31966  1.0000
  C   C430      1.0  0.75553  0.66007  0.11493  1.0000
  N   N36       1.0  0.87466  0.43718  0.29940  1.0000
  H   H434      1.0  0.90939  0.40320  0.31791  1.0000
  H   H435      1.0  0.57548  0.34885  0.24162  1.0000
  C   C431      1.0  0.73339  0.35458  0.01659  1.0000
  Fe  Fe73      1.0  0.94894  0.38556  0.77643  1.0000
  S   S142      1.0  0.91693  0.40959  0.73843  1.0000
  Fe  Fe74      1.0  0.89007  0.36985  0.81942  1.0000
  S   S143      1.0  0.85399  0.39193  0.78427  1.0000
  Fe  Fe75      1.0  0.88409  0.36614  0.74609  1.0000
  Fe  Fe76      1.0  0.88990  0.43317  0.78058  1.0000
  S   S144      1.0  0.87275  0.48645  0.77761  1.0000
  S   S145      1.0  0.92458  0.41285  0.81828  1.0000
  H   H436      1.0  0.89897  0.54983  0.75060  1.0000
  S   S146      1.0  0.77761  0.64499  0.84658  1.0000
  C   C432      1.0  0.73117  0.48306  0.87803  1.0000
  C   C433      1.0  0.75849  0.35438  0.86322  1.0000
  S   S147      1.0  0.74068  0.63893  0.91785  1.0000
  H   H437      1.0  0.88383  0.61584  0.79016  1.0000
  Fe  Fe77      1.0  0.77939  0.61073  0.88965  1.0000
  S   S148      1.0  0.78258  0.55494  0.88556  1.0000
  C   C434      1.0  0.91702  0.56636  0.76260  1.0000
  S   S149      1.0  0.82116  0.63631  0.91458  1.0000
  N   N37       1.0  0.90862  0.57021  0.79741  1.0000
  C   C435      1.0  0.89099  0.59701  0.80757  1.0000
  H   H438      1.0  0.94182  0.55541  0.75980  1.0000
  C   C436      1.0  0.91642  0.54572  0.81912  1.0000
  C   C437      1.0  0.88892  0.57518  0.86265  1.0000
  C   C438      1.0  0.80936  0.35963  0.89345  1.0000
  C   C439      1.0  0.90672  0.54782  0.85204  1.0000
  H   H439      1.0  0.79591  0.44880  0.76956  1.0000
  C   C440      1.0  0.84812  0.50499  0.80830  1.0000
  C   C441      1.0  0.84178  0.48951  0.83832  1.0000
  C   C442      1.0  0.82232  0.50537  0.86218  1.0000
  C   C443      1.0  0.80943  0.53696  0.85644  1.0000
  C   C444      1.0  0.81598  0.55249  0.82651  1.0000
  C   C445      1.0  0.83503  0.53646  0.80250  1.0000
  H   H440      1.0  0.85169  0.46524  0.84307  1.0000
  H   H441      1.0  0.81713  0.49303  0.88515  1.0000
  H   H442      1.0  0.80578  0.57656  0.82155  1.0000
  H   H443      1.0  0.83952  0.54851  0.77925  1.0000
  H   H444      1.0  0.71554  0.50522  0.87460  1.0000
  H   H445      1.0  0.71539  0.46295  0.88754  1.0000
  H   H446      1.0  0.86665  0.62099  0.84823  1.0000
  H   H447      1.0  0.88043  0.57679  0.88788  1.0000
  H   H448      1.0  0.82216  0.36631  0.91570  1.0000
  H   H449      1.0  0.91697  0.59039  0.74949  1.0000
  H   H450      1.0  0.78797  0.40849  0.81478  1.0000
  C   C446      1.0  0.88110  0.60001  0.84035  1.0000
  Fe  Fe78      1.0  0.81752  0.67212  0.87277  1.0000
  C   C447      1.0  0.75109  0.49550  0.82245  1.0000
  C   C448      1.0  0.76000  0.44222  0.84464  1.0000
  H   H451      1.0  0.91205  0.52785  0.86890  1.0000
  C   C449      1.0  0.82704  0.35036  0.86547  1.0000
  H   H452      1.0  0.75719  0.42467  0.86449  1.0000
  H   H453      1.0  0.77213  0.50490  0.77464  1.0000
  H   H454      1.0  0.92904  0.52373  0.81071  1.0000
  C   C450      1.0  0.78155  0.45541  0.79104  1.0000
  C   C451      1.0  0.77735  0.43287  0.81651  1.0000
  S   S150      1.0  0.87394  0.67051  0.69374  1.0000
  H   H455      1.0  0.74217  0.52053  0.82517  1.0000
  S   S151      1.0  0.71605  0.36017  0.86086  1.0000
  H   H456      1.0  0.75011  0.48913  0.89666  1.0000
  N   N38       1.0  0.74715  0.47320  0.84732  1.0000
  C   C452      1.0  0.76814  0.48688  0.79387  1.0000
  S   S152      1.0  0.86997  0.34950  0.86664  1.0000
  S   S153      1.0  0.00404  0.38513  0.76763  1.0000
  H   H457      1.0  0.96109  0.37942  0.68939  1.0000
  C   C453      1.0  0.77510  0.36154  0.89237  1.0000
  H   H458      1.0  0.76154  0.36939  0.91386  1.0000
  H   H459      1.0  0.81501  0.67046  0.79782  1.0000
  C   C454      1.0  0.97176  0.35691  0.67987  1.0000
  C   C455      1.0  0.81033  0.34207  0.83665  1.0000
  Fe  Fe79      1.0  0.78250  0.66719  0.93954  1.0000
  C   C456      1.0  0.84152  0.66732  0.75243  1.0000
  C   C457      1.0  0.77604  0.34417  0.83550  1.0000
  C   C458      1.0  0.00325  0.35710  0.66662  1.0000
  H   H460      1.0  0.82022  0.66056  0.73818  1.0000
  C   C459      1.0  0.87148  0.67257  0.73666  1.0000
  C   C460      1.0  0.83860  0.67266  0.78637  1.0000
  H   H461      1.0  0.84855  0.34521  0.00446  1.0000
  H   H462      1.0  0.73188  0.37926  0.00670  1.0000
  Fe  Fe80      1.0  0.62457  0.75787  0.18611  1.0000
  S   S154      1.0  0.64390  0.79786  0.15327  1.0000
  S   S155      1.0  0.57172  0.75571  0.20398  1.0000
  Fe  Fe81      1.0  0.69054  0.72089  0.18560  1.0000
  S   S156      1.0  0.71432  0.75830  0.15329  1.0000
  C   C461      1.0  0.75725  0.71601  0.04422  1.0000
  Fe  Fe82      1.0  0.68845  0.79474  0.18568  1.0000
  S   S157      1.0  0.71740  0.83584  0.20836  1.0000
  Fe  Fe83      1.0  0.66795  0.75692  0.12419  1.0000
  S   S158      1.0  0.66654  0.75040  0.06859  1.0000
  S   S159      1.0  0.66778  0.75721  0.22017  1.0000
  S   S160      1.0  0.64521  0.71702  0.15477  1.0000
  Fe  Fe84      1.0  0.78658  0.92236  0.40361  1.0000
  S   S161      1.0  0.74577  0.89596  0.42924  1.0000
  S   S162      1.0  0.78457  0.97753  0.39594  1.0000
  Fe  Fe85      1.0  0.82534  0.85853  0.39311  1.0000
  S   S163      1.0  0.78724  0.82786  0.41805  1.0000
  S   S164      1.0  0.87110  0.83411  0.37337  1.0000
  Fe  Fe86      1.0  0.75190  0.85853  0.38911  1.0000
  S   S165      1.0  0.70847  0.83630  0.36340  1.0000
  Fe  Fe87      1.0  0.78580  0.86815  0.45539  1.0000
  C   C462      1.0  0.98400  0.80365  0.45437  1.0000
  S   S166      1.0  0.79008  0.88693  0.36164  1.0000
  S   S167      1.0  0.82651  0.89719  0.43262  1.0000
  C   C463      1.0  0.76682  0.96067  0.28330  1.0000
  H   H463      1.0  0.56962  0.89454  0.31436  1.0000
  H   H464      1.0  0.73879  0.76915  0.24929  1.0000
  C   C464      1.0  0.95475  0.82065  0.44900  1.0000
  C   C465      1.0  0.86767  0.79139  0.36703  1.0000
  C   C466      1.0  0.83714  0.77594  0.36778  1.0000
  C   C467      1.0  0.83500  0.74157  0.36589  1.0000
  C   C468      1.0  0.86329  0.72251  0.36182  1.0000
  C   C469      1.0  0.89374  0.73798  0.35933  1.0000
  C   C470      1.0  0.89594  0.77235  0.36218  1.0000
  H   H465      1.0  0.81508  0.79040  0.36957  1.0000
  H   H466      1.0  0.81132  0.72976  0.36726  1.0000
  H   H467      1.0  0.91573  0.72336  0.35630  1.0000
  H   H468      1.0  0.91964  0.78404  0.36115  1.0000
  H   H469      1.0  0.59574  0.82522  0.31312  1.0000
  S   S168      1.0  0.92163  0.68809  0.28961  1.0000
  H   H470      1.0  0.71764  0.71612  0.27070  1.0000
  H   H471      1.0  0.84513  0.83448  0.47934  1.0000
  C   C471      1.0  0.94833  0.83392  0.41793  1.0000
  C   C472      1.0  0.70038  0.73372  0.04689  1.0000
  H   H472      1.0  0.93721  0.82368  0.46880  1.0000
  H   H473      1.0  0.96970  0.82630  0.34081  1.0000
  N   N39       1.0  0.97042  0.83022  0.39288  1.0000
  C   C473      1.0  0.72564  0.98647  0.25107  1.0000
  C   C474      1.0  0.84501  0.74332  0.27717  1.0000
  H   H474      1.0  0.85887  0.72477  0.29159  1.0000
  C   C475      1.0  0.81193  0.70899  0.19477  1.0000
  H   H475      1.0  0.85492  0.74305  0.25171  1.0000
  C   C476      1.0  0.60711  0.92514  0.33490  1.0000
  H   H476      1.0  0.92557  0.84719  0.41404  1.0000
  C   C477      1.0  0.73045  0.97365  0.35527  1.0000
  H   H477      1.0  0.82423  0.73102  0.18647  1.0000
  H   H478      1.0  0.76393  0.72862  0.18624  1.0000
  C   C478      1.0  0.77763  0.70755  0.19437  1.0000
  C   C479      1.0  0.71501  0.83453  0.25134  1.0000
  C   C480      1.0  0.68533  0.82788  0.26711  1.0000
  C   C481      1.0  0.68365  0.82780  0.30155  1.0000
  C   C482      1.0  0.71163  0.83430  0.32032  1.0000
  C   C483      1.0  0.74150  0.83976  0.30446  1.0000
  C   C484      1.0  0.74310  0.84038  0.27005  1.0000
  H   H479      1.0  0.66350  0.82345  0.25276  1.0000
  H   H480      1.0  0.66062  0.82283  0.31356  1.0000
  H   H481      1.0  0.76349  0.84298  0.31860  1.0000
  H   H482      1.0  0.76621  0.84498  0.25791  1.0000
  C   C485      1.0  0.55527  0.78656  0.22998  1.0000
  C   C486      1.0  0.57248  0.81542  0.23681  1.0000
  C   C487      1.0  0.55796  0.84026  0.25609  1.0000
  N   N40       1.0  0.60307  0.86679  0.34363  1.0000
  H   H483      1.0  0.76297  0.90797  0.28908  1.0000
  C   C488      1.0  0.52610  0.83658  0.26862  1.0000
  H   H484      1.0  0.59688  0.81871  0.22698  1.0000
  H   H485      1.0  0.57148  0.86252  0.26107  1.0000
  C   C489      1.0  0.82275  0.75351  0.46132  1.0000
  S   S169      1.0  0.87325  0.68497  0.20692  1.0000
  H   H486      1.0  0.71293  0.90394  0.25449  1.0000
  C   C490      1.0  0.58691  0.83535  0.33689  1.0000
  H   H487      1.0  0.73127  0.94732  0.35912  1.0000
  N   N41       1.0  0.80989  0.73614  0.27664  1.0000
  C   C491      1.0  0.79844  0.70692  0.28872  1.0000
  C   C492      1.0  0.78882  0.75845  0.26288  1.0000
  H   H488      1.0  0.78855  0.96223  0.29854  1.0000
  C   C493      1.0  0.75532  0.75176  0.26090  1.0000
  C   C494      1.0  0.74344  0.72203  0.27304  1.0000
  C   C495      1.0  0.70671  0.98752  0.33431  1.0000
  C   C496      1.0  0.69601  0.72222  0.01460  1.0000
  H   H489      1.0  0.59185  0.81701  0.35651  1.0000
  C   C497      1.0  0.75241  0.92990  0.27816  1.0000
  H   H490      1.0  0.97878  0.86686  0.35682  1.0000
  H   H491      1.0  0.66955  0.89720  0.38266  1.0000
  H   H492      1.0  0.81515  0.68905  0.29938  1.0000
  H   H493      1.0  0.77706  0.77645  0.47564  1.0000
  C   C498      1.0  0.71069  0.95609  0.24533  1.0000
  C   C499      1.0  0.75354  0.99387  0.37058  1.0000
  C   C500      1.0  0.63078  0.86746  0.36245  1.0000
  C   C501      1.0  0.87534  0.72806  0.44764  1.0000
  H   H494      1.0  0.59763  0.94753  0.32387  1.0000
  C   C502      1.0  0.76507  0.69944  0.28710  1.0000
  H   H495      1.0  0.82000  0.76029  0.43570  1.0000
  H   H496      1.0  0.89877  0.72104  0.45963  1.0000
  H   H497      1.0  0.64055  0.84496  0.37299  1.0000
  H   H498      1.0  0.98371  0.70908  0.32790  1.0000
  H   H499      1.0  0.78095  0.71370  0.05584  1.0000
  H   H500      1.0  0.86680  0.70693  0.43256  1.0000
  C   C503      1.0  0.64729  0.89703  0.36806  1.0000
  C   C504      1.0  0.96379  0.84441  0.36044  1.0000
  H   H501      1.0  0.68964  0.97173  0.32163  1.0000
  H   H502      1.0  0.79793  0.78138  0.25283  1.0000
  H   H503      1.0  0.98927  0.79313  0.47831  1.0000
  H   H504      1.0  0.84951  0.76769  0.28865  1.0000
  H   H505      1.0  0.55989  0.83855  0.33551  1.0000
  C   C505      1.0  0.72425  0.92766  0.25892  1.0000
  H   H506      1.0  0.68869  0.95463  0.23050  1.0000
  C   C506      1.0  0.83028  0.68232  0.20638  1.0000
  H   H507      1.0  0.88057  0.74911  0.43103  1.0000
  H   H508      1.0  0.64772  0.94919  0.35864  1.0000
  H   H509      1.0  0.89196  0.80229  0.50149  1.0000
  C   C507      1.0  0.52343  0.78282  0.24259  1.0000
  H   H510      1.0  0.73510  0.73993  0.08607  1.0000
  C   C508      1.0  0.73123  0.73080  0.06148  1.0000
  H   H511      1.0  0.93753  0.85111  0.35748  1.0000
  C   C509      1.0  0.59134  0.89508  0.32965  1.0000
  H   H512      1.0  0.66293  0.68272  0.09311  1.0000
  N   N42       1.0  0.85015  0.73712  0.47169  1.0000
  C   C510      1.0  0.75267  0.70359  0.01237  1.0000
  C   C511      1.0  0.63524  0.92606  0.35432  1.0000
  C   C512      1.0  0.76142  0.67910  0.20465  1.0000
  N   N43       1.0  0.75325  0.98847  0.26998  1.0000
  C   C513      1.0  0.99947  0.81426  0.39815  1.0000
  C   C514      1.0  0.79820  0.76234  0.48366  1.0000
  H   H513      1.0  0.75614  0.67597  0.29596  1.0000
  H   H514      1.0  0.53022  0.80749  0.16788  1.0000
  C   C515      1.0  0.84546  0.82730  0.50493  1.0000
  H   H515      1.0  0.50995  0.76054  0.23747  1.0000
  H   H516      1.0  0.51186  0.75054  0.15880  1.0000
  S   S170      1.0  0.86013  0.67946  0.36124  1.0000
  H   H517      1.0  0.70795  0.67558  0.13117  1.0000
  C   C516      1.0  0.50878  0.80781  0.26160  1.0000
  S   S171      1.0  0.50966  0.86763  0.29442  1.0000
  S   S172      1.0  0.71843  0.67612  0.20309  1.0000
  C   C517      1.0  0.85363  0.72850  0.50402  1.0000
  H   H518      1.0  0.92233  0.68472  0.74319  1.0000
  H   H519      1.0  0.57265  0.95197  0.78366  1.0000
  Fe  Fe88      1.0  0.95793  0.75932  0.67561  1.0000
  S   S173      1.0  0.93839  0.72266  0.63936  1.0000
  S   S174      1.0  0.78435  0.85591  0.50963  1.0000
  Fe  Fe89      1.0  0.89031  0.78990  0.68714  1.0000
  S   S175      1.0  0.86532  0.75569  0.65225  1.0000
  S   S176      1.0  0.86402  0.82530  0.72049  1.0000
  Fe  Fe90      1.0  0.89703  0.71695  0.67528  1.0000
  Fe  Fe91      1.0  0.90859  0.76509  0.61952  1.0000
  S   S177      1.0  0.90484  0.77428  0.56469  1.0000
  S   S178      1.0  0.91870  0.75048  0.71279  1.0000
  S   S179      1.0  0.93154  0.80247  0.65303  1.0000
  Fe  Fe92      1.0  0.67750  0.87922  0.80144  1.0000
  S   S180      1.0  0.65481  0.84638  0.76377  1.0000
  S   S181      1.0  0.69697  0.85721  0.84827  1.0000
  Fe  Fe93      1.0  0.66815  0.94118  0.75936  1.0000
  S   S182      1.0  0.64465  0.91243  0.71881  1.0000
  H   H520      1.0  0.58135  0.75221  0.88752  1.0000
  Fe  Fe94      1.0  0.61729  0.88663  0.75930  1.0000
  S   S183      1.0  0.56216  0.88076  0.75985  1.0000
  Fe  Fe95      1.0  0.68488  0.87559  0.72820  1.0000
  S   S184      1.0  0.71433  0.85055  0.68838  1.0000
  S   S185      1.0  0.63821  0.91778  0.79941  1.0000
  S   S186      1.0  0.71014  0.90626  0.76614  1.0000
  H   H521      1.0  0.57227  0.95746  0.73975  1.0000
  C   C518      1.0  0.87203  0.80924  0.51752  1.0000
  H   H522      1.0  0.97385  0.81904  0.72125  1.0000
  H   H523      1.0  0.71607  0.96358  0.70903  1.0000
  C   C519      1.0  0.79031  0.92416  0.69815  1.0000
  C   C520      1.0  0.54744  0.85337  0.79012  1.0000
  C   C521      1.0  0.56900  0.83232  0.80656  1.0000
  C   C522      1.0  0.55699  0.80885  0.82875  1.0000
  H   H524      1.0  0.67225  0.72447  0.00310  1.0000
  H   H525      1.0  0.78327  0.76146  0.53441  1.0000
  H   H526      1.0  0.59497  0.83369  0.80178  1.0000
  H   H527      1.0  0.57387  0.79215  0.84057  1.0000
  C   C523      1.0  0.87258  0.79949  0.55058  1.0000
  C   C524      1.0  0.92897  0.76678  0.80713  1.0000
  C   C525      1.0  0.84641  0.80803  0.57109  1.0000
  S   S187      1.0  0.50967  0.77599  0.86285  1.0000
  H   H528      1.0  0.84641  0.80033  0.59649  1.0000
  C   C526      1.0  0.75572  0.84261  0.69768  1.0000
  C   C527      1.0  0.76808  0.84819  0.72920  1.0000
  C   C528      1.0  0.80138  0.84306  0.73587  1.0000
  C   C529      1.0  0.82245  0.83160  0.71125  1.0000
  C   C530      1.0  0.81006  0.82532  0.67984  1.0000
  C   C531      1.0  0.77676  0.83088  0.67307  1.0000
  H   H529      1.0  0.75204  0.85616  0.74865  1.0000
  H   H530      1.0  0.81075  0.84764  0.76031  1.0000
  H   H531      1.0  0.82621  0.81680  0.66057  1.0000
  H   H532      1.0  0.76738  0.82645  0.64861  1.0000
  C   C532      1.0  0.69856  0.74476  0.85353  1.0000
  C   C533      1.0  0.72208  0.76357  0.86982  1.0000
  C   C534      1.0  0.72129  0.79800  0.86809  1.0000
  C   C535      1.0  0.69695  0.81400  0.84998  1.0000
  C   C536      1.0  0.67272  0.79538  0.83443  1.0000
  C   C537      1.0  0.67354  0.76084  0.83620  1.0000
  H   H533      1.0  0.74058  0.75186  0.88434  1.0000
  H   H534      1.0  0.73971  0.81226  0.88077  1.0000
  H   H535      1.0  0.65295  0.80752  0.82165  1.0000
  H   H536      1.0  0.65472  0.74656  0.82419  1.0000
  C   C538      1.0  0.52337  0.80661  0.83534  1.0000
  N   N44       1.0  0.64432  0.79761  0.91673  1.0000
  H   H537      1.0  0.79887  0.83096  0.57407  1.0000
  S   S188      1.0  0.86267  0.69113  0.84693  1.0000
  H   H538      1.0  0.98516  0.70505  0.72142  1.0000
  C   C539      1.0  0.51686  0.82753  0.70075  1.0000
  H   H539      1.0  0.96769  0.84843  0.75414  1.0000
  H   H540      1.0  0.56199  0.81521  0.72527  1.0000
  H   H541      1.0  0.81710  0.74791  0.70878  1.0000
  C   C540      1.0  0.60495  0.75777  0.89850  1.0000
  H   H542      1.0  0.83288  0.73085  0.55275  1.0000
  H   H543      1.0  0.82382  0.75039  0.81403  1.0000
  H   H544      1.0  0.52804  0.84586  0.68499  1.0000
  H   H545      1.0  0.53580  0.77564  0.76317  1.0000
  C   C541      1.0  0.53595  0.81025  0.72335  1.0000
  H   H546      1.0  0.72442  0.90452  0.60834  1.0000
  C   C542      1.0  0.92955  0.79213  0.78384  1.0000
  H   H547      1.0  0.79717  0.95059  0.69875  1.0000
  N   N45       1.0  0.95764  0.79889  0.76676  1.0000
  H   H548      1.0  0.67288  0.72039  0.92922  1.0000
  H   H549      1.0  0.90725  0.80593  0.77900  1.0000
  C   C543      1.0  0.62612  0.73241  0.90775  1.0000
  H   H550      1.0  0.71819  0.69754  0.97294  1.0000
  C   C544      1.0  0.65603  0.73993  0.92240  1.0000
  C   C545      1.0  0.81955  0.82556  0.55837  1.0000
  C   C546      1.0  0.77775  0.76613  0.79298  1.0000
  C   C547      1.0  0.61450  0.79046  0.90323  1.0000
  C   C548      1.0  0.89888  0.68152  0.75514  1.0000
  H   H551      1.0  0.90654  0.76089  0.82021  1.0000
  H   H552      1.0  0.73334  0.92097  0.66600  1.0000
  H   H553      1.0  0.77189  0.88832  0.57349  1.0000
  H   H554      1.0  0.87555  0.71600  0.51253  1.0000
  C   C549      1.0  0.57423  0.97053  0.76365  1.0000
  C   C550      1.0  0.51604  0.98404  0.76828  1.0000
  H   H555      1.0  0.68095  0.83478  0.92116  1.0000
  H   H556      1.0  0.76667  0.77081  0.81674  1.0000
  H   H557      1.0  0.95729  0.72885  0.83102  1.0000
  S   S189      1.0  0.78388  0.70575  0.90034  1.0000
  C   C551      1.0  0.51369  0.85107  0.79645  1.0000
  H   H558      1.0  0.61953  0.70695  0.90336  1.0000
  N   N46       1.0  0.78508  0.91360  0.66412  1.0000
  C   C552      1.0  0.81135  0.90464  0.64521  1.0000
  C   C553      1.0  0.81010  0.75478  0.79160  1.0000
  C   C554      1.0  0.71996  0.98978  0.70704  1.0000
  H   H559      1.0  0.83580  0.90431  0.65558  1.0000
  C   C555      1.0  0.80619  0.75302  0.73253  1.0000
  C   C556      1.0  0.81899  0.83527  0.52528  1.0000
  H   H560      1.0  0.76787  0.92071  0.71324  1.0000
  H   H561      1.0  0.68815  0.77847  0.93810  1.0000
  C   C557      1.0  0.74327  0.00226  0.68482  1.0000
  C   C558      1.0  0.74901  0.90475  0.61837  1.0000
  C   C559      1.0  0.77389  0.76432  0.73480  1.0000
  H   H562      1.0  0.59892  0.98199  0.76494  1.0000
  C   C560      1.0  0.82941  0.73665  0.52695  1.0000
  S   S190      1.0  0.67217  0.99651  0.75479  1.0000
  C   C561      1.0  0.95744  0.74868  0.81315  1.0000
  C   C562      1.0  0.52098  0.78799  0.74478  1.0000
  H   H563      1.0  0.75720  0.98567  0.66949  1.0000
  H   H564      1.0  0.71017  0.76349  0.77525  1.0000
  H   H565      1.0  0.71762  0.79310  0.74295  1.0000
  C   C563      1.0  0.77561  0.89550  0.59893  1.0000
  C   C564      1.0  0.80702  0.89538  0.61238  1.0000
  N   N47       1.0  0.76034  0.77138  0.76475  1.0000
  H   H566      1.0  0.81002  0.90941  0.70993  1.0000
  H   H567      1.0  0.76000  0.76808  0.71241  1.0000
  C   C565      1.0  0.75424  0.91405  0.65103  1.0000
  H   H568      1.0  0.59801  0.81006  0.89576  1.0000
  H   H569      1.0  0.84967  0.74034  0.75952  1.0000
  S   S191      1.0  0.69906  0.70139  0.85545  1.0000
  C   C566      1.0  0.65386  0.83203  0.92142  1.0000
  C   C567      1.0  0.82450  0.74876  0.76109  1.0000
  C   C568      1.0  0.72660  0.78356  0.76694  1.0000
  H   H570      1.0  0.72502  0.80432  0.78467  1.0000
  Fe  Fe96      1.0  0.74378  0.67634  0.87712  1.0000
  C   C569      1.0  0.66466  0.77287  0.92703  1.0000
  C   C570      1.0  0.98572  0.78152  0.77284  1.0000
  H   H571      1.0  0.64458  0.84767  0.90098  1.0000
  C   C571      1.0  0.95815  0.82566  0.74263  1.0000
  C   C572      1.0  0.72199  0.70707  0.99744  1.0000
  H   H572      1.0  0.93330  0.83072  0.73270  1.0000
  H   H573      1.0  0.64413  0.84133  0.94514  1.0000
  H   H574      1.0  0.82782  0.88802  0.59745  1.0000
  C   C573      1.0  0.80164  0.75384  0.51668  1.0000
  H   H575      1.0  0.91734  0.69285  0.80330  1.0000
  S   S192      1.0  0.78493  0.68136  0.99343  1.0000
  C   C574      1.0  0.89603  0.68632  0.78911  1.0000
  C   C575      1.0  0.86577  0.68253  0.80474  1.0000
  C   C576      1.0  0.98600  0.75596  0.79585  1.0000
  H   H576      1.0  0.51069  0.95790  0.76704  1.0000
  N   N48       1.0  0.54775  0.99477  0.76694  1.0000
