data_image0
_chemical_formula_structural       FeS2FeSCFeSFeS3FeS2FeS2FeHFeS4C5HCH2CHC2HCHNHSH2C3HC2HCH2C6H4CHC4H3C3H4NHC3HC2HFeHCSC2SH3C2H6CHCHC2HSHCSHC2FeC2HCNC2NSC3SCH2NH2CHSH2NH2CHCH2CHFeH3CH3CHCH2CHC2HCHNHNFeS2FeSHFeSFeS3FeS2FeS2FeCFeS4HC6H2CH5SH2CNHC3H2CH2SHC6H5C5H4C4H3CHCFeHCHCH3C3HCHNHCHC2NC2HCH3CSHCSH3C4HNC3SH2FeHFeCH2C2FeC5H2CH2CH3CHSHC2H2CSCS2H3NC4HC6HCH5CSHCHC2H3C2H2CHN2CH2CHC4H3C2H3CH4C2FeS2HSHCSCFeSCSHFeSCFeSCFeSFeHS2HCHS2FeSFeS2H3CFeHC6H4CH2C5H3C4HC3HC3H3C2HSC6H4CSHNC4Fe2C2H6NCHCH3SFeH2S4HFeHCH2CNC3NC6H8CH2C3FeSHSHC2HCFeC2H2CNCH7CNHC3HCHCFeS4H2SHFeSHSCFeSHFeSCFeSFeHS2H3SCFeSFeSC3HCH2C6HNH2NC7H2C4H2CH2NC3H2C4FeC6H5FeNSCHN2C5HC2H4CSCH2SH5SC2HC4H4SH4CHFeSHFeSCHC2HCHCHSH2S2HC4H4CH3CHCFeCFeH2CH2CFeNFeS2C4SHCHCFeS2HSHC2SCSH2C2SCHSCSCHSH2C3HCHCH2SHFeH3SFeHCHC2NHC2HC6H4SC3NSCSCS2FeCSHC2H3CH3C5HC3NC3H2CH8CH2CHC2H2FeC2HSCHCHCFe3SCFeCHCHCNHS2H4CH3CSCFeHC2NCHS2H2CH5FeH2CHSHNSC3SC4HFeS2C2FeSCSHS2C2SHCSH5SH4CNHSHFeHCH4C2H2CHSH2NC2HC6H3S2HFeH2FeH2CSCFeSH2FeHSCH2C2NC2FeNHFeHC3H2SC2HC2H2SCFeCHC4SC3SC2H4C3HCHC4FeCNCHCH2C3H4CH2CHSH5C2H2CHFeCSHCSFeSFeS2FeSCS2FeSHSFeS2FeCFe2S2FeS2FeSFeSFeS3C2FeC5H2C6SH3C6H3C6H2C3H4NSCH3SH3C5H4SCHC2NH2C2HCH2CHC3HNHSH4CHSHC3H2CHNC6HSH6NC3H5NC6H7FeH2CH2SCHC4H2CH2SH2C2HSC3HFe2H3CH6C2SCHC2HCNCHC3HC2HCH3C5HSFeSFe2SCFeSFeSHSFeS2FeHFe2S2FeS2FeSFeSFeS2C8H3C6H4C6H3C6H3CH5CHCH2S2FeSH2C2NH2NSHSC2HCH2C3HCH6NC5HCH5CSH3C3HC2HSHCFeHNC6H4CH3NC6H7CNC6H2CHC2H2NFeH2NSCH3CHS3CS2H2CHC4SH3C2H5CFeSC2SCSFeSHNFeS2FeS2FeCFeS3CSNC2HFeSHCFeH2C3SHSNHCHSH2FeHCNC6H3SC6H6CH3C6H4C6H6CH2CHCH4SNCHC2HSHCH6SC3HC3H2SHC2HSHCHC3SC2H2C2HC2SC2SCSFeSCHFeS2FeS2FeCFeS3HSH2CHFeCSH2NH2SCSC4NHCNH3CH2C2H2SH2SC7H8C8H4C6H5FeC4HSHFeH2CH2CFeC2H2CHC2S2HFeC2HCHCNHCHCHCH3CHC2SCHCHCSHNC4H8C2NH3SC2H4C6S2CFeH3CH2SCSHCFeS2FeS2FeSFeHS2C4HC3HC4HCH2C2HSCH3CHCHCHS2FeCFeHFeH2SCHFeS3H4C2HCH4CHCH3C3NCNCH2Fe2HCHC2SC2FeCSHCSHNC6H3CH4NC2FeHSCHCHCH5SHFeCSCSCH2NC2HFeC2HSHC3NCH3C3HC4FeC2SC3S2H3SH2CFeHSHCFeS2FeS2FeSFeCS2C3H2C3H2C3H2CHC2FeSH6SHCSH2C4SHFeCHSC2HCHCFeH3C5H3CHCHCH2S2HNCH2CSHC2HCFeSH3CNC2HCSHC4H3C4HFeH3C2H4C3NHC2HFeCNCHSH2C2HCSCH3NCHFeH2CH2C3H2CNC2H3CHCSH2CHCHCHC3HCSH2C2HC2H2CHCNC2H3NCHCH3FeSFeS2HCS4CH3SCFeH2SC7H4C6HC3NHC6H3SHSHCFeH2NHSHC2HCHSCHCH2C2SHCH2Fe2HSCHC2HSC3FeH2FeHCSCHCH5FeCH3C2HSCHNSNCSNC6HFeH2SHC3SH3FeC3H3CHC2HNCH5CHC3H6SC2FeSFeS2Fe2S4CHC2HS3CHFeC6H4C2HCHCHCH2CHC6H2CHC2FeSH2C2HCH2CFeSH4C2HCNHC2SCSCHC2H2SC2HCH2CH2NHC3HSHSHCH2Fe2C2HSH2CH2C2SCNCH4C2HSFeCSCFeCSH3NCH3C2H5NH2CH2C2H2CHSHC3FeS2FeHFeS4NH2CFeS2FeS2FeSFeS3CS2C6H4CHCH2CHC6H4C6H4CHC2H3CHNH2C3H4NC6H2CH3NH2SH3SC2HCHCHCHCHFeH4C2H2CSC2FeH2C2HCH2SCH2CH2CHC2S2H2NH3FeCHC2H2FeS2FeHFeS3HCFeHCFeS2FeS2FeSFeS3HCFeC5H4C2H3C9H4C6H4CFeHC2H2SH2CNHC3HCHCHNH3SC2H2SHNC6H2SHCHSCH2NSCSHCHCH2NH2NC5HCH5CHCH7C3H3CHS2CH2CH2C3NHCFeS2FeSFeSFeSFe2SFeSHSFeS2NCHFeHFeS3H2C3H2CSC6H3C6H4C4H3C4H6SC2H2CH3CNC6HC2H4S3H2CH2CNHC2H3CHC2SCNHCHCH2CHSHNC6HCHFeH5FeNH2C3SHS3CFeCHCHSH3NHNCH3C2HCFeC2HC2H3CSC2SCHSFe2HSCHC5SHC4H2C2HCH6C6HC2H6S2H5C2HS2FeSFeSHS2FeSFeHSHFeS2FeCHFeSFeS3FeC3H2NC8H3C6H4C6HC5H3CHC4HCHSH2C3HC2H2SH2CHCSNC6H2CH5CH2NH3C2HCHCNC6H5FeHSH2SH2SHS2Fe2NC2FeHSHS2CH2SC2HCH2C3H2CHFeCFeH2C4HC2HCH2NH2SHS2HCH2C2HSC3NFeC5H2CSNC2HCH2CSH2C2H5CH3FeSCFeHFeHS2HSH2FeH2SCSC2H2C2H2NHCFeSFeSHSHFeS2FeSFeS3CSHC3HC5H2C2HC4H3SC2SCH2CH2C6H4C2HCH3C3HFeC2HCSH2NHS2C2SH3FeNHC3NHCHCH3C6H7C4FeCHC2H7FeHCNCSHC2HC4HFeSHFeCFeS3CNH4CS3NHSCSFeHCH2Fe2SFeH2SHFeS2FeSFeS3C4SH2C5H2C6SCHCHCSCHCHC9H5FeC2HNSCHC4H3CHCH3SCSFeCHCSCHCH3C3H3CHCH2NHCNC6H2C2H2CHCH4CH6FeC2H3CHSCHC3H3C2SH3
_chemical_formula_sum              "Fe256 S512 C1536 H1536 N128"
_cell_length_a       62.5702
_cell_length_b       62.6421
_cell_length_c       48.4144
_cell_angle_alpha    90.1792
_cell_angle_beta     90.319
_cell_angle_gamma    85.3926

_space_group_name_H-M_alt    "P 1"
_space_group_IT_number       1

loop_
  _space_group_symop_operation_xyz
  'x, y, z'

loop_
  _atom_site_type_symbol
  _atom_site_label
  _atom_site_symmetry_multiplicity
  _atom_site_fract_x
  _atom_site_fract_y
  _atom_site_fract_z
  _atom_site_occupancy
  Fe  Fe1       1.0  0.11759  0.26193  0.32132  1.0000
  S   S1        1.0  0.10041  0.23168  0.32072  1.0000
  S   S2        1.0  0.15339  0.26351  0.32039  1.0000
  Fe  Fe2       1.0  0.07644  0.29146  0.32025  1.0000
  S   S3        1.0  0.05624  0.26365  0.32017  1.0000
  C   C1        1.0  0.14841  0.24103  0.43087  1.0000
  Fe  Fe3       1.0  0.07921  0.24930  0.35231  1.0000
  S   S4        1.0  0.06430  0.23626  0.39069  1.0000
  Fe  Fe4       1.0  0.07928  0.24896  0.28871  1.0000
  S   S5        1.0  0.06397  0.23792  0.24918  1.0000
  S   S6        1.0  0.09783  0.27847  0.35477  1.0000
  S   S7        1.0  0.09816  0.27771  0.28691  1.0000
  Fe  Fe5       1.0  0.05599  0.21666  0.07278  1.0000
  S   S8        1.0  0.08206  0.19000  0.06953  1.0000
  S   S9        1.0  0.02100  0.20960  0.06805  1.0000
  Fe  Fe6       1.0  0.08881  0.25046  0.08168  1.0000
  S   S10       1.0  0.11615  0.22570  0.07732  1.0000
  S   S11       1.0  0.10161  0.28226  0.09131  1.0000
  Fe  Fe7       1.0  0.09764  0.21307  0.04191  1.0000
  H   H1        1.0  0.06306  0.26632  0.19398  1.0000
  Fe  Fe8       1.0  0.09696  0.20644  0.10555  1.0000
  S   S12       1.0  0.11262  0.19481  0.14564  1.0000
  S   S13       1.0  0.07131  0.23936  0.04426  1.0000
  S   S14       1.0  0.06989  0.23164  0.11061  1.0000
  S   S15       1.0  0.17383  0.27710  0.18366  1.0000
  C   C2        1.0  0.19953  0.25687  0.09413  1.0000
  C   C3        1.0  0.12332  0.27928  0.11478  1.0000
  C   C4        1.0  0.12406  0.26323  0.13489  1.0000
  C   C5        1.0  0.13993  0.26246  0.15558  1.0000
  C   C6        1.0  0.15587  0.27697  0.15550  1.0000
  H   H2        1.0  0.11752  0.25737  0.43968  1.0000
  C   C7        1.0  0.13936  0.29371  0.11452  1.0000
  H   H3        1.0  0.11188  0.25192  0.13522  1.0000
  H   H4        1.0  0.13975  0.25062  0.17180  1.0000
  C   C8        1.0  0.00172  0.14332  0.04080  1.0000
  H   H5        1.0  0.01536  0.17478  0.14945  1.0000
  C   C9        1.0  0.20237  0.22930  0.35830  1.0000
  C   C10       1.0  0.04006  0.14423  0.48740  1.0000
  H   H6        1.0  0.06267  0.27772  0.15990  1.0000
  C   C11       1.0  0.18996  0.19917  0.29958  1.0000
  H   H7        1.0  0.08077  0.25472  0.16766  1.0000
  N   N1        1.0  0.19736  0.23512  0.26856  1.0000
  H   H8        1.0  0.03194  0.12998  0.48255  1.0000
  S   S16       1.0  0.20734  0.19460  0.39260  1.0000
  H   H9        1.0  0.18703  0.18557  0.31248  1.0000
  H   H10       1.0  0.23048  0.22760  0.27770  1.0000
  C   C12       1.0  0.07888  0.22873  0.42095  1.0000
  C   C13       1.0  0.06974  0.23412  0.44667  1.0000
  C   C14       1.0  0.09921  0.21415  0.47053  1.0000
  H   H11       1.0  0.15894  0.24682  0.09766  1.0000
  C   C15       1.0  0.10830  0.20853  0.44477  1.0000
  C   C16       1.0  0.09835  0.21605  0.42004  1.0000
  H   H12       1.0  0.05464  0.24382  0.44753  1.0000
  C   C17       1.0  0.17683  0.22965  0.27223  1.0000
  H   H13       1.0  0.21657  0.25292  0.24230  1.0000
  H   H14       1.0  0.10532  0.21143  0.40029  1.0000
  C   C18       1.0  0.07815  0.22458  0.22182  1.0000
  C   C19       1.0  0.10055  0.22104  0.22179  1.0000
  C   C20       1.0  0.11112  0.21162  0.19854  1.0000
  C   C21       1.0  0.09935  0.20584  0.17523  1.0000
  C   C22       1.0  0.07699  0.20903  0.17565  1.0000
  C   C23       1.0  0.06647  0.21835  0.19878  1.0000
  H   H15       1.0  0.10971  0.22567  0.23953  1.0000
  H   H16       1.0  0.12842  0.20904  0.19847  1.0000
  H   H17       1.0  0.06772  0.20401  0.15824  1.0000
  H   H18       1.0  0.04916  0.22086  0.19873  1.0000
  C   C24       1.0  0.16229  0.21924  0.12391  1.0000
  H   H19       1.0  0.02878  0.30199  0.33372  1.0000
  C   C25       1.0  0.19025  0.24480  0.34279  1.0000
  C   C26       1.0  0.16803  0.24407  0.34038  1.0000
  C   C27       1.0  0.15797  0.22764  0.35327  1.0000
  C   C28       1.0  0.17016  0.21194  0.36855  1.0000
  H   H20       1.0  0.19818  0.25733  0.33262  1.0000
  H   H21       1.0  0.14082  0.22697  0.35150  1.0000
  H   H22       1.0  0.16234  0.19932  0.37869  1.0000
  C   C29       1.0  0.02338  0.14689  0.04465  1.0000
  C   C30       1.0  0.02941  0.16709  0.05286  1.0000
  C   C31       1.0  0.01388  0.18408  0.05708  1.0000
  H   H23       1.0  0.01440  0.13667  0.10838  1.0000
  H   H24       1.0  0.13886  0.30617  0.09905  1.0000
  H   H25       1.0  0.03556  0.13383  0.04168  1.0000
  H   H26       1.0  0.04609  0.16933  0.05617  1.0000
  N   N2        1.0  0.19153  0.23911  0.10958  1.0000
  H   H27       1.0  0.18679  0.27006  0.09087  1.0000
  C   C32       1.0  0.17580  0.28827  0.41176  1.0000
  C   C33       1.0  0.17015  0.23603  0.10909  1.0000
  C   C34       1.0  0.21083  0.20495  0.29589  1.0000
  H   H28       1.0  0.13961  0.24385  0.00179  1.0000
  C   C35       1.0  0.22241  0.30428  0.45395  1.0000
  C   C36       1.0  0.06196  0.14260  0.49350  1.0000
  H   H29       1.0  0.16791  0.30378  0.13455  1.0000
  Fe  Fe9       1.0  0.23740  0.24419  0.45881  1.0000
  H   H30       1.0  0.20579  0.25108  0.07378  1.0000
  C   C37       1.0  0.99599  0.28769  0.27087  1.0000
  S   S17       1.0  0.23020  0.25379  0.17673  1.0000
  C   C38       1.0  0.01788  0.28154  0.26918  1.0000
  C   C39       1.0  0.21425  0.22307  0.28020  1.0000
  S   S18       1.0  0.11326  0.20540  0.00041  1.0000
  H   H31       1.0  0.20954  0.19741  0.15000  1.0000
  H   H32       1.0  0.16336  0.23973  0.26409  1.0000
  H   H33       1.0  0.22421  0.19581  0.30577  1.0000
  C   C40       1.0  0.08002  0.22722  0.47130  1.0000
  C   C41       1.0  0.20565  0.22519  0.12358  1.0000
  H   H34       1.0  0.17031  0.19235  0.15050  1.0000
  H   H35       1.0  0.12734  0.28694  0.23521  1.0000
  H   H36       1.0  0.09685  0.26615  0.22190  1.0000
  H   H37       1.0  0.20190  0.26823  0.26877  1.0000
  H   H38       1.0  0.00807  0.19429  0.12275  1.0000
  H   H39       1.0  0.20964  0.30030  0.36045  1.0000
  C   C42       1.0  0.12408  0.30736  0.19946  1.0000
  H   H40       1.0  0.07295  0.23202  0.49079  1.0000
  C   C43       1.0  0.18887  0.29261  0.43435  1.0000
  H   H41       1.0  0.15648  0.20760  0.29109  1.0000
  C   C44       1.0  0.20338  0.29860  0.38114  1.0000
  C   C45       1.0  0.10110  0.27913  0.20877  1.0000
  H   H42       1.0  0.23160  0.30882  0.40096  1.0000
  S   S19       1.0  0.22313  0.24692  0.41663  1.0000
  H   H43       1.0  0.02629  0.20362  0.00515  1.0000
  C   C46       1.0  0.03213  0.29675  0.26265  1.0000
  S   S20       1.0  0.99515  0.11722  0.03200  1.0000
  H   H44       1.0  0.21267  0.26383  0.10573  1.0000
  C   C47       1.0  0.20121  0.25482  0.25379  1.0000
  C   C48       1.0  0.15586  0.29231  0.13453  1.0000
  Fe  Fe10      1.0  0.20848  0.28389  0.17764  1.0000
  C   C49       1.0  0.17283  0.21149  0.28754  1.0000
  C   C50       1.0  0.21581  0.30327  0.40417  1.0000
  H   H45       1.0  0.21956  0.22995  0.35996  1.0000
  C   C51       1.0  0.18319  0.29119  0.38499  1.0000
  N   N3        1.0  0.99401  0.16446  0.11887  1.0000
  C   C52       1.0  0.16742  0.23163  0.44220  1.0000
  C   C53       1.0  0.13270  0.25070  0.44821  1.0000
  N   N4        1.0  0.09006  0.28366  0.18474  1.0000
  S   S21       1.0  0.22733  0.29874  0.21133  1.0000
  C   C54       1.0  0.09560  0.29985  0.16796  1.0000
  C   C55       1.0  0.19831  0.20819  0.13860  1.0000
  C   C56       1.0  0.19234  0.21293  0.37137  1.0000
  S   S22       1.0  0.21659  0.25868  0.49306  1.0000
  C   C57       1.0  0.17642  0.20532  0.13885  1.0000
  H   H46       1.0  0.12313  0.19841  0.44391  1.0000
  H   H47       1.0  0.22268  0.22728  0.12338  1.0000
  N   N5        1.0  0.15480  0.24118  0.48776  1.0000
  H   H48       1.0  0.16013  0.28252  0.41487  1.0000
  H   H49       1.0  0.08747  0.30288  0.14831  1.0000
  C   C58       1.0  0.11827  0.29089  0.21648  1.0000
  H   H50       1.0  0.18512  0.22430  0.47955  1.0000
  S   S23       1.0  0.22537  0.29941  0.14305  1.0000
  H   H51       1.0  0.18835  0.25910  0.23836  1.0000
  H   H52       1.0  0.18336  0.28961  0.45510  1.0000
  N   N6        1.0  0.20850  0.30027  0.43033  1.0000
  H   H53       1.0  0.14528  0.21723  0.12414  1.0000
  H   H54       1.0  0.17339  0.28751  0.36726  1.0000
  C   C59       1.0  0.07325  0.27001  0.17614  1.0000
  H   H55       1.0  0.04925  0.29227  0.26228  1.0000
  C   C60       1.0  0.01185  0.17696  0.12709  1.0000
  H   H56       1.0  0.21346  0.30496  0.47377  1.0000
  H   H57       1.0  0.02656  0.17206  0.11510  1.0000
  C   C61       1.0  0.17038  0.23186  0.47087  1.0000
  H   H58       1.0  0.01143  0.16536  0.48425  1.0000
  Fe  Fe11      1.0  0.23332  0.21218  0.41215  1.0000
  H   H59       1.0  0.23540  0.29116  0.45560  1.0000
  H   H60       1.0  0.02387  0.26508  0.27328  1.0000
  H   H61       1.0  0.14561  0.24042  0.40874  1.0000
  C   C62       1.0  0.13604  0.25031  0.47682  1.0000
  H   H62       1.0  0.17964  0.22378  0.42896  1.0000
  H   H63       1.0  0.13788  0.31606  0.20471  1.0000
  H   H64       1.0  0.07106  0.12712  0.49299  1.0000
  C   C63       1.0  0.99806  0.14369  0.11029  1.0000
  H   H65       1.0  0.12323  0.25670  0.49026  1.0000
  C   C64       1.0  0.11262  0.31200  0.17512  1.0000
  H   H66       1.0  0.05776  0.17466  0.00506  1.0000
  H   H67       1.0  0.02687  0.21086  0.47603  1.0000
  C   C65       1.0  0.02849  0.16428  0.48861  1.0000
  H   H68       1.0  0.24112  0.30061  0.03471  1.0000
  C   C66       1.0  0.02244  0.31807  0.32873  1.0000
  C   C67       1.0  0.02422  0.31790  0.25743  1.0000
  H   H69       1.0  0.22972  0.31975  0.45149  1.0000
  C   C68       1.0  0.00029  0.32359  0.33036  1.0000
  H   H70       1.0  0.10334  0.25829  0.99646  1.0000
  N   N7        1.0  0.00270  0.32376  0.25892  1.0000
  H   H71       1.0  0.11746  0.32429  0.16128  1.0000
  N   N8        1.0  0.03843  0.18214  0.49602  1.0000
  Fe  Fe12      1.0  0.11738  0.25555  0.81793  1.0000
  S   S24       1.0  0.10151  0.22530  0.82632  1.0000
  S   S25       1.0  0.15311  0.25747  0.81663  1.0000
  Fe  Fe13      1.0  0.07522  0.28215  0.80657  1.0000
  S   S26       1.0  0.05609  0.25419  0.81466  1.0000
  H   H72       1.0  0.18764  0.28430  0.80430  1.0000
  Fe  Fe14      1.0  0.07841  0.24715  0.85081  1.0000
  S   S27       1.0  0.06398  0.23950  0.89216  1.0000
  Fe  Fe15      1.0  0.08095  0.23513  0.78950  1.0000
  S   S28       1.0  0.06879  0.21354  0.75651  1.0000
  S   S29       1.0  0.09570  0.27693  0.84474  1.0000
  S   S30       1.0  0.09880  0.26346  0.77910  1.0000
  Fe  Fe16      1.0  0.05570  0.20848  0.57527  1.0000
  S   S31       1.0  0.08463  0.18530  0.56936  1.0000
  S   S32       1.0  0.02137  0.19960  0.56941  1.0000
  Fe  Fe17      1.0  0.08386  0.24611  0.58543  1.0000
  S   S33       1.0  0.11412  0.22557  0.57866  1.0000
  S   S34       1.0  0.08568  0.28075  0.59706  1.0000
  Fe  Fe18      1.0  0.09672  0.21146  0.54315  1.0000
  C   C69       1.0  0.07875  0.22436  0.97136  1.0000
  Fe  Fe19      1.0  0.09839  0.20242  0.60568  1.0000
  S   S35       1.0  0.11688  0.19115  0.64369  1.0000
  S   S36       1.0  0.06734  0.23401  0.54780  1.0000
  S   S37       1.0  0.06853  0.22358  0.61356  1.0000
  S   S38       1.0  0.06124  0.31401  0.78943  1.0000
  H   H73       1.0  0.09371  0.26862  0.96398  1.0000
  C   C70       1.0  0.10987  0.29011  0.60957  1.0000
  C   C71       1.0  0.12771  0.27640  0.61764  1.0000
  C   C72       1.0  0.14615  0.28495  0.62890  1.0000
  C   C73       1.0  0.14660  0.30719  0.63225  1.0000
  C   C74       1.0  0.22929  0.27468  0.57229  1.0000
  C   C75       1.0  0.11064  0.31221  0.61272  1.0000
  H   H74       1.0  0.12720  0.25926  0.61573  1.0000
  H   H75       1.0  0.15976  0.27441  0.63542  1.0000
  C   C76       1.0  0.02327  0.31292  0.81811  1.0000
  H   H76       1.0  0.17471  0.24142  0.52367  1.0000
  H   H77       1.0  0.22915  0.22615  0.56754  1.0000
  H   H78       1.0  0.04898  0.24585  0.71718  1.0000
  H   H79       1.0  0.21969  0.22889  0.86019  1.0000
  H   H80       1.0  0.17372  0.23015  0.97996  1.0000
  S   S39       1.0  0.22959  0.31940  0.64074  1.0000
  H   H81       1.0  0.13564  0.21773  0.77678  1.0000
  H   H82       1.0  0.19323  0.30284  0.76032  1.0000
  C   C77       1.0  0.20245  0.22878  0.86001  1.0000
  N   N9        1.0  0.08779  0.28719  0.69381  1.0000
  H   H83       1.0  0.02920  0.29707  0.82480  1.0000
  C   C78       1.0  0.07883  0.23124  0.92184  1.0000
  C   C79       1.0  0.10011  0.22248  0.92055  1.0000
  C   C80       1.0  0.11058  0.21447  0.94471  1.0000
  H   H84       1.0  0.00928  0.20160  0.50250  1.0000
  H   H85       1.0  0.07012  0.22467  0.99054  1.0000
  C   C81       1.0  0.06831  0.23225  0.94734  1.0000
  H   H86       1.0  0.10830  0.22143  0.90091  1.0000
  H   H87       1.0  0.12695  0.20749  0.94359  1.0000
  S   S40       1.0  0.20784  0.20389  0.90602  1.0000
  H   H88       1.0  0.05180  0.23883  0.94843  1.0000
  C   C82       1.0  0.08245  0.20838  0.72509  1.0000
  C   C83       1.0  0.10363  0.21341  0.72129  1.0000
  C   C84       1.0  0.11418  0.20812  0.69624  1.0000
  C   C85       1.0  0.10336  0.19852  0.67459  1.0000
  C   C86       1.0  0.08195  0.19426  0.67810  1.0000
  C   C87       1.0  0.07165  0.19889  0.70338  1.0000
  H   H89       1.0  0.11192  0.22101  0.73775  1.0000
  H   H90       1.0  0.13071  0.21147  0.69349  1.0000
  H   H91       1.0  0.07353  0.18674  0.66159  1.0000
  H   H92       1.0  0.05527  0.19500  0.70615  1.0000
  H   H93       1.0  0.01312  0.18028  0.99428  1.0000
  C   C88       1.0  0.23776  0.24606  0.78798  1.0000
  C   C89       1.0  0.19025  0.24048  0.84007  1.0000
  C   C90       1.0  0.16787  0.24106  0.84043  1.0000
  C   C91       1.0  0.15774  0.22884  0.85985  1.0000
  C   C92       1.0  0.17006  0.21648  0.87926  1.0000
  H   H94       1.0  0.19821  0.24925  0.82452  1.0000
  H   H95       1.0  0.14045  0.22915  0.86024  1.0000
  H   H96       1.0  0.16224  0.20727  0.89454  1.0000
  H   H97       1.0  0.10929  0.28487  0.98622  1.0000
  C   C93       1.0  0.19243  0.21691  0.87975  1.0000
  C   C94       1.0  0.01571  0.17354  0.55909  1.0000
  C   C95       1.0  0.03142  0.15640  0.55989  1.0000
  C   C96       1.0  0.02663  0.13600  0.55069  1.0000
  H   H98       1.0  0.09295  0.26764  0.65783  1.0000
  H   H99       1.0  0.22015  0.27914  0.59063  1.0000
  H   H100      1.0  0.04732  0.15883  0.56750  1.0000
  C   C97       1.0  0.05958  0.25767  0.71039  1.0000
  H   H101      1.0  0.22967  0.23160  0.78579  1.0000
  C   C98       1.0  0.02624  0.20311  0.49659  1.0000
  Fe  Fe20      1.0  0.20123  0.30517  0.65957  1.0000
  H   H102      1.0  0.11741  0.29453  0.67622  1.0000
  C   C99       1.0  0.07682  0.29028  0.71809  1.0000
  H   H103      1.0  0.14890  0.24927  0.75163  1.0000
  C   C100      1.0  0.19537  0.20053  0.78985  1.0000
  H   H104      1.0  0.08908  0.16005  0.50521  1.0000
  H   H105      1.0  0.07915  0.30404  0.73117  1.0000
  H   H106      1.0  0.23450  0.31968  0.84379  1.0000
  C   C101      1.0  0.21863  0.27099  0.54730  1.0000
  C   C102      1.0  0.07569  0.17014  0.96754  1.0000
  C   C103      1.0  0.20711  0.29002  0.85268  1.0000
  H   H107      1.0  0.99311  0.31207  0.83921  1.0000
  C   C104      1.0  0.00282  0.32147  0.82630  1.0000
  H   H108      1.0  0.06845  0.24091  0.67268  1.0000
  N   N10       1.0  0.03992  0.18713  0.97020  1.0000
  H   H109      1.0  0.08994  0.16294  0.97784  1.0000
  C   C105      1.0  0.00613  0.13254  0.54053  1.0000
  H   H110      1.0  0.15531  0.22930  0.72505  1.0000
  C   C106      1.0  0.07058  0.25484  0.68548  1.0000
  C   C107      1.0  0.15245  0.21273  0.78006  1.0000
  N   N11       1.0  0.20999  0.30166  0.82692  1.0000
  C   C108      1.0  0.99506  0.17002  0.54939  1.0000
  C   C109      1.0  0.16566  0.24466  0.94063  1.0000
  H   H111      1.0  0.17523  0.24649  0.73719  1.0000
  C   C110      1.0  0.10246  0.30281  0.68468  1.0000
  H   H112      1.0  0.09700  0.32291  0.60663  1.0000
  H   H113      1.0  0.05768  0.18700  0.90425  1.0000
  H   H114      1.0  0.06782  0.19480  0.50742  1.0000
  C   C111      1.0  0.20183  0.30717  0.77877  1.0000
  S   S41       1.0  0.21556  0.27123  0.65701  1.0000
  H   H115      1.0  0.23879  0.20344  0.58858  1.0000
  C   C112      1.0  0.14254  0.24778  0.98040  1.0000
  S   S42       1.0  0.21270  0.31050  0.70286  1.0000
  H   H116      1.0  0.18446  0.18118  0.82288  1.0000
  H   H117      1.0  0.02590  0.19852  0.93209  1.0000
  H   H118      1.0  0.20129  0.27279  0.54650  1.0000
  C   C113      1.0  0.05752  0.17701  0.98287  1.0000
  C   C114      1.0  0.02124  0.19434  0.98692  1.0000
  C   C115      1.0  0.07571  0.17356  0.93907  1.0000
  C   C116      1.0  0.19883  0.29664  0.80372  1.0000
  H   H119      1.0  0.15282  0.26035  0.90388  1.0000
  N   N12       1.0  0.16787  0.22148  0.76481  1.0000
  C   C117      1.0  0.05759  0.18361  0.92625  1.0000
  C   C118      1.0  0.10747  0.26836  0.97867  1.0000
  C   C119      1.0  0.07203  0.16096  0.50053  1.0000
  S   S43       1.0  0.11239  0.20499  0.50131  1.0000
  H   H120      1.0  0.00942  0.20498  0.97515  1.0000
  H   H121      1.0  0.20126  0.22169  0.75640  1.0000
  Fe  Fe21      1.0  0.23801  0.22073  0.91200  1.0000
  H   H122      1.0  0.03901  0.12289  0.55105  1.0000
  Fe  Fe22      1.0  0.24248  0.32171  0.68388  1.0000
  C   C120      1.0  0.16184  0.23995  0.96821  1.0000
  H   H123      1.0  0.09468  0.31308  0.66822  1.0000
  H   H124      1.0  0.14795  0.25322  0.52846  1.0000
  C   C121      1.0  0.03969  0.19028  0.94221  1.0000
  C   C122      1.0  0.17978  0.19206  0.80611  1.0000
  Fe  Fe23      1.0  0.22921  0.27758  0.69923  1.0000
  C   C123      1.0  0.06259  0.27556  0.72676  1.0000
  C   C124      1.0  0.15008  0.25684  0.92546  1.0000
  C   C125      1.0  0.09993  0.21546  0.97025  1.0000
  C   C126      1.0  0.23926  0.25977  0.76535  1.0000
  C   C127      1.0  0.16150  0.23738  0.74354  1.0000
  H   H125      1.0  0.21818  0.27525  0.85304  1.0000
  H   H126      1.0  0.05427  0.27783  0.74632  1.0000
  C   C128      1.0  0.18908  0.21516  0.76898  1.0000
  H   H127      1.0  0.18063  0.23874  0.93104  1.0000
  H   H128      1.0  0.21074  0.29983  0.87101  1.0000
  C   C129      1.0  0.13089  0.26429  0.93823  1.0000
  H   H129      1.0  0.08996  0.16898  0.92708  1.0000
  H   H130      1.0  0.14587  0.19169  0.81367  1.0000
  H   H131      1.0  0.15245  0.22454  0.52544  1.0000
  C   C130      1.0  0.15765  0.24003  0.51782  1.0000
  H   H132      1.0  0.03286  0.21374  0.51238  1.0000
  S   S44       1.0  0.22639  0.25397  0.73403  1.0000
  H   H133      1.0  0.21224  0.19607  0.79366  1.0000
  C   C131      1.0  0.08459  0.26991  0.67736  1.0000
  C   C132      1.0  0.22472  0.31665  0.82582  1.0000
  H   H134      1.0  0.19035  0.28554  0.85465  1.0000
  H   H135      1.0  0.11874  0.27356  0.92622  1.0000
  C   C133      1.0  0.15815  0.19798  0.80100  1.0000
  S   S45       1.0  0.00173  0.10721  0.52647  1.0000
  C   C134      1.0  0.12879  0.32065  0.62403  1.0000
  S   S46       1.0  0.16803  0.31938  0.64813  1.0000
  S   S47       1.0  0.23307  0.25655  0.91200  1.0000
  H   H136      1.0  0.99307  0.14131  0.59849  1.0000
  H   H137      1.0  0.10728  0.31320  0.70189  1.0000
  H   H138      1.0  0.00861  0.14993  0.64379  1.0000
  N   N13       1.0  0.12732  0.25968  0.96536  1.0000
  C   C135      1.0  0.23030  0.26458  0.52363  1.0000
  C   C136      1.0  0.05993  0.18069  0.50169  1.0000
  C   C137      1.0  0.21642  0.32287  0.77763  1.0000
  C   C138      1.0  0.24288  0.21900  0.58000  1.0000
  H   H139      1.0  0.03813  0.62565  0.44310  1.0000
  C   C139      1.0  0.02514  0.63812  0.44412  1.0000
  C   C140      1.0  0.03621  0.33321  0.32018  1.0000
  C   C141      1.0  0.03130  0.58430  0.99737  1.0000
  C   C142      1.0  0.00504  0.61530  0.99768  1.0000
  C   C143      1.0  0.02775  0.35416  0.31425  1.0000
  C   C144      1.0  0.01511  0.64477  0.37613  1.0000
  H   H140      1.0  0.03836  0.36600  0.30781  1.0000
  C   C145      1.0  0.00555  0.35975  0.31603  1.0000
  H   H141      1.0  0.03551  0.32970  0.25303  1.0000
  H   H142      1.0  0.00657  0.35730  0.25665  1.0000
  H   H143      1.0  0.03154  0.63779  0.37589  1.0000
  H   H144      1.0  0.02894  0.57961  0.01923  1.0000
  H   H145      1.0  0.00084  0.61584  0.44792  1.0000
  C   C146      1.0  0.00397  0.63251  0.44698  1.0000
  S   S48       1.0  0.06368  0.32605  0.31463  1.0000
  H   H146      1.0  0.00192  0.61403  0.37986  1.0000
  C   C147      1.0  0.99451  0.34569  0.25193  1.0000
  H   H147      1.0  0.99910  0.37580  0.31091  1.0000
  C   C148      1.0  0.99844  0.63123  0.37838  1.0000
  C   C149      1.0  0.00476  0.63457  0.92339  1.0000
  H   H148      1.0  0.03843  0.62776  0.91505  1.0000
  H   H149      1.0  0.03770  0.35474  0.77983  1.0000
  H   H150      1.0  0.00140  0.61795  0.92286  1.0000
  C   C150      1.0  0.00298  0.49401  0.78642  1.0000
  C   C151      1.0  0.02576  0.64019  0.91886  1.0000
  H   H151      1.0  0.04828  0.65347  0.97960  1.0000
  H   H152      1.0  0.99728  0.54636  0.73859  1.0000
  C   C152      1.0  0.00061  0.49758  0.81473  1.0000
  H   H153      1.0  0.12897  0.33781  0.62659  1.0000
  N   N14       1.0  0.02584  0.60736  0.99409  1.0000
  N   N15       1.0  0.99381  0.53136  0.77779  1.0000
  C   C153      1.0  0.00752  0.35406  0.80119  1.0000
  H   H154      1.0  0.00663  0.47785  0.77866  1.0000
  H   H155      1.0  0.05779  0.61460  0.98461  1.0000
  C   C154      1.0  0.02798  0.34542  0.79282  1.0000
  H   H156      1.0  0.00151  0.36990  0.79454  1.0000
  C   C155      1.0  0.99483  0.34202  0.81787  1.0000
  C   C156      1.0  0.04133  0.62083  0.98796  1.0000
  C   C157      1.0  0.99908  0.51110  0.76808  1.0000
  C   C158      1.0  0.03613  0.64289  0.98544  1.0000
  H   H157      1.0  0.21919  0.33095  0.75831  1.0000
  H   H158      1.0  0.99974  0.50791  0.74606  1.0000
  H   H159      1.0  0.00247  0.48419  0.82897  1.0000
  C   C159      1.0  0.01495  0.65110  0.98919  1.0000
  C   C160      1.0  0.22798  0.32765  0.80127  1.0000
  H   H160      1.0  0.99880  0.34975  0.71275  1.0000
  H   H161      1.0  0.23990  0.33927  0.80033  1.0000
  H   H162      1.0  0.02065  0.57509  0.98422  1.0000
  C   C161      1.0  0.99511  0.51827  0.82446  1.0000
  H   H163      1.0  0.99548  0.59620  0.51694  1.0000
  H   H164      1.0  0.00388  0.62324  0.51485  1.0000
  H   H165      1.0  0.04813  0.57949  0.99147  1.0000
  H   H166      1.0  0.00016  0.32520  0.75317  1.0000
  C   C162      1.0  0.03591  0.32480  0.80122  1.0000
  C   C163      1.0  0.99924  0.63724  0.99521  1.0000
  Fe  Fe24      1.0  0.08057  0.80053  0.15915  1.0000
  S   S49       1.0  0.10897  0.81851  0.14853  1.0000
  S   S50       1.0  0.08722  0.76497  0.16100  1.0000
  H   H167      1.0  0.14862  0.80958  0.45136  1.0000
  S   S51       1.0  0.22103  0.73548  0.10484  1.0000
  H   H168      1.0  0.02840  0.68771  0.35184  1.0000
  C   C164      1.0  0.16852  0.76743  0.21342  1.0000
  S   S52       1.0  0.22161  0.74677  0.03880  1.0000
  C   C165      1.0  0.06691  0.76709  0.06362  1.0000
  Fe  Fe25      1.0  0.20211  0.75743  0.07573  1.0000
  S   S53       1.0  0.16648  0.75605  0.07208  1.0000
  C   C166      1.0  0.14411  0.71354  0.05270  1.0000
  S   S54       1.0  0.21994  0.78641  0.08483  1.0000
  H   H169      1.0  0.02554  0.85079  0.17853  1.0000
  Fe  Fe26      1.0  0.07040  0.73737  0.39248  1.0000
  S   S55       1.0  0.08286  0.70324  0.38618  1.0000
  C   C167      1.0  0.07328  0.74938  0.26855  1.0000
  Fe  Fe27      1.0  0.08636  0.73826  0.45172  1.0000
  S   S56       1.0  0.10021  0.70414  0.44998  1.0000
  C   C168      1.0  0.01270  0.67566  0.44328  1.0000
  Fe  Fe28      1.0  0.11238  0.71263  0.40827  1.0000
  S   S57       1.0  0.14411  0.69760  0.39276  1.0000
  Fe  Fe29      1.0  0.06953  0.69756  0.42827  1.0000
  H   H170      1.0  0.13015  0.78194  0.47698  1.0000
  S   S58       1.0  0.10096  0.74730  0.41140  1.0000
  S   S59       1.0  0.05457  0.73124  0.43320  1.0000
  H   H171      1.0  0.05453  0.77927  0.26193  1.0000
  C   C169      1.0  0.01484  0.80357  0.05724  1.0000
  H   H172      1.0  0.21080  0.72053  0.43040  1.0000
  S   S60       1.0  0.20542  0.78659  0.33945  1.0000
  S   S61       1.0  0.23286  0.73220  0.35852  1.0000
  Fe  Fe30      1.0  0.22233  0.80054  0.30385  1.0000
  S   S62       1.0  0.20610  0.80588  0.26192  1.0000
  Fe  Fe31      1.0  0.22078  0.81010  0.36652  1.0000
  S   S63       1.0  0.20200  0.82009  0.40469  1.0000
  S   S64       1.0  0.99996  0.81368  0.17943  1.0000
  H   H173      1.0  0.00707  0.75212  0.12737  1.0000
  H   H174      1.0  0.02155  0.77330  0.03640  1.0000
  H   H175      1.0  0.00674  0.83089  0.08352  1.0000
  C   C170      1.0  0.15034  0.76396  0.17067  1.0000
  Fe  Fe32      1.0  0.23587  0.76650  0.34651  1.0000
  H   H176      1.0  0.01597  0.69232  0.44181  1.0000
  C   C171      1.0  0.16815  0.70884  0.38398  1.0000
  C   C172      1.0  0.18476  0.69485  0.37365  1.0000
  C   C173      1.0  0.20424  0.70241  0.36576  1.0000
  C   C174      1.0  0.20743  0.72417  0.36778  1.0000
  C   C175      1.0  0.19089  0.73841  0.37829  1.0000
  C   C176      1.0  0.17120  0.73073  0.38641  1.0000
  H   H177      1.0  0.18260  0.67792  0.37183  1.0000
  H   H178      1.0  0.21693  0.69126  0.35800  1.0000
  H   H179      1.0  0.19337  0.75519  0.38066  1.0000
  H   H180      1.0  0.15849  0.74165  0.39456  1.0000
  C   C177      1.0  0.23892  0.77787  0.18358  1.0000
  H   H181      1.0  0.16890  0.74899  0.13730  1.0000
  H   H182      1.0  0.04419  0.67196  0.37694  1.0000
  C   C178      1.0  0.21867  0.79475  0.23191  1.0000
  C   C179      1.0  0.21111  0.80133  0.20562  1.0000
  C   C180      1.0  0.22115  0.79286  0.18149  1.0000
  C   C181      1.0  0.18188  0.70150  0.04524  1.0000
  C   C182      1.0  0.02828  0.68066  0.37285  1.0000
  H   H183      1.0  0.19755  0.81314  0.20389  1.0000
  H   H184      1.0  0.21552  0.79836  0.16135  1.0000
  H   H185      1.0  0.11071  0.72488  0.05756  1.0000
  C   C183      1.0  0.00878  0.85633  0.18047  1.0000
  C   C184      1.0  0.20854  0.79663  0.45248  1.0000
  C   C185      1.0  0.21594  0.81246  0.43531  1.0000
  C   C186      1.0  0.18747  0.75057  0.17479  1.0000
  H   H186      1.0  0.14649  0.71070  0.07463  1.0000
  C   C187      1.0  0.05384  0.76952  0.30474  1.0000
  C   C188      1.0  0.15786  0.71366  0.00706  1.0000
  C   C189      1.0  0.06907  0.75795  0.01464  1.0000
  H   H187      1.0  0.23502  0.84229  0.26761  1.0000
  C   C190      1.0  0.08017  0.73379  0.28811  1.0000
  C   C191      1.0  0.07387  0.73600  0.31585  1.0000
  C   C192      1.0  0.06095  0.75404  0.32436  1.0000
  H   H188      1.0  0.09017  0.71982  0.28162  1.0000
  H   H189      1.0  0.07881  0.72364  0.33055  1.0000
  H   H190      1.0  0.06011  0.72648  0.00396  1.0000
  C   C193      1.0  0.06207  0.73782  0.02051  1.0000
  C   C194      1.0  0.05728  0.73245  0.04786  1.0000
  H   H191      1.0  0.12013  0.76881  0.21631  1.0000
  S   S65       1.0  0.05345  0.75770  0.35929  1.0000
  C   C195      1.0  0.12480  0.80311  0.12486  1.0000
  C   C196      1.0  0.11560  0.78762  0.10884  1.0000
  C   C197      1.0  0.12849  0.77363  0.09215  1.0000
  C   C198      1.0  0.15069  0.77499  0.09148  1.0000
  C   C199      1.0  0.15990  0.79081  0.10698  1.0000
  C   C200      1.0  0.14693  0.80496  0.12355  1.0000
  H   H192      1.0  0.09851  0.78630  0.10953  1.0000
  H   H193      1.0  0.12120  0.76152  0.08017  1.0000
  H   H194      1.0  0.17701  0.79197  0.10664  1.0000
  H   H195      1.0  0.15412  0.81689  0.13599  1.0000
  C   C201      1.0  0.05961  0.74709  0.06948  1.0000
  S   S66       1.0  0.05637  0.66538  0.43613  1.0000
  H   H196      1.0  0.01008  0.82379  0.24348  1.0000
  N   N16       1.0  0.15044  0.77092  0.19748  1.0000
  C   C202      1.0  0.16825  0.81718  0.48633  1.0000
  C   C203      1.0  0.16889  0.75393  0.15881  1.0000
  C   C204      1.0  0.18719  0.75699  0.20240  1.0000
  C   C205      1.0  0.13074  0.78119  0.20950  1.0000
  Fe  Fe33      1.0  0.24105  0.77402  0.04983  1.0000
  Fe  Fe34      1.0  0.24053  0.76364  0.11166  1.0000
  C   C206      1.0  0.21810  0.79239  0.47853  1.0000
  C   C207      1.0  0.07152  0.77253  0.03628  1.0000
  H   H197      1.0  0.13592  0.76644  0.15816  1.0000
  H   H198      1.0  0.18182  0.68406  0.04927  1.0000
  H   H199      1.0  0.21205  0.78046  0.49182  1.0000
  H   H200      1.0  0.20915  0.79765  0.00314  1.0000
  H   H201      1.0  0.19514  0.78796  0.44585  1.0000
  H   H202      1.0  0.13421  0.79154  0.22738  1.0000
  N   N17       1.0  0.01078  0.66653  0.37525  1.0000
  C   C208      1.0  0.12093  0.72597  0.01520  1.0000
  H   H203      1.0  0.05156  0.71697  0.05226  1.0000
  C   C209      1.0  0.05995  0.76721  0.27688  1.0000
  H   H204      1.0  0.18589  0.70981  0.06473  1.0000
  H   H205      1.0  0.06861  0.77853  0.08007  1.0000
  H   H206      1.0  0.02641  0.69377  0.38839  1.0000
  S   S67       1.0  0.09250  0.75887  0.48900  1.0000
  Fe  Fe35      1.0  0.03397  0.79898  0.17380  1.0000
  H   H207      1.0  0.20212  0.74318  0.16578  1.0000
  H   H208      1.0  0.00998  0.75202  0.07573  1.0000
  S   S68       1.0  0.05091  0.79964  0.13301  1.0000
  S   S69       1.0  0.05202  0.74040  0.10320  1.0000
  S   S70       1.0  0.08217  0.74617  0.23417  1.0000
  S   S71       1.0  0.03719  0.76298  0.17684  1.0000
  H   H209      1.0  0.13812  0.77700  0.03001  1.0000
  Fe  Fe36      1.0  0.05633  0.76406  0.13785  1.0000
  H   H210      1.0  0.20156  0.75443  0.21498  1.0000
  C   C210      1.0  0.23338  0.82345  0.44388  1.0000
  H   H211      1.0  0.01489  0.88966  0.18443  1.0000
  H   H212      1.0  0.16873  0.77298  0.23467  1.0000
  C   C211      1.0  0.23512  0.80396  0.48743  1.0000
  N   N18       1.0  0.16086  0.70997  0.03473  1.0000
  C   C212      1.0  0.00061  0.80116  0.10326  1.0000
  C   C213      1.0  0.00724  0.81361  0.08144  1.0000
  C   C214      1.0  0.01543  0.78133  0.05499  1.0000
  N   N19       1.0  0.13803  0.72630  0.32824  1.0000
  C   C215      1.0  0.15757  0.73014  0.31760  1.0000
  C   C216      1.0  0.12527  0.74256  0.34007  1.0000
  C   C217      1.0  0.16479  0.75069  0.31869  1.0000
  C   C218      1.0  0.13196  0.76330  0.34148  1.0000
  C   C219      1.0  0.15186  0.76736  0.33070  1.0000
  C   C220      1.0  0.13046  0.70483  0.32571  1.0000
  H   H213      1.0  0.16783  0.71719  0.30865  1.0000
  H   H214      1.0  0.10987  0.73956  0.34873  1.0000
  H   H215      1.0  0.18049  0.75355  0.31072  1.0000
  H   H216      1.0  0.12174  0.77608  0.35094  1.0000
  H   H217      1.0  0.15732  0.78336  0.33187  1.0000
  H   H218      1.0  0.14367  0.69239  0.33040  1.0000
  H   H219      1.0  0.11756  0.70240  0.34080  1.0000
  H   H220      1.0  0.12423  0.70238  0.30453  1.0000
  C   C221      1.0  0.00271  0.87833  0.18385  1.0000
  H   H221      1.0  0.04368  0.78343  0.31116  1.0000
  H   H222      1.0  0.12188  0.79171  0.19412  1.0000
  C   C222      1.0  0.22723  0.71300  0.43434  1.0000
  C   C223      1.0  0.13793  0.72200  0.99701  1.0000
  C   C224      1.0  0.24156  0.84475  0.24665  1.0000
  Fe  Fe37      1.0  0.06780  0.76726  0.19980  1.0000
  S   S72       1.0  0.06334  0.80322  0.19985  1.0000
  H   H223      1.0  0.07699  0.78812  0.03192  1.0000
  S   S73       1.0  0.23407  0.82717  0.33005  1.0000
  H   H224      1.0  0.19495  0.70407  0.03044  1.0000
  C   C225      1.0  0.23608  0.77939  0.23380  1.0000
  C   C226      1.0  0.14232  0.79065  0.48715  1.0000
  H   H225      1.0  0.17632  0.82906  0.47490  1.0000
  C   C227      1.0  0.24288  0.81926  0.46985  1.0000
  Fe  Fe38      1.0  0.24263  0.72743  0.06876  1.0000
  C   C228      1.0  0.12391  0.72170  0.04324  1.0000
  C   C229      1.0  0.15258  0.80620  0.47285  1.0000
  H   H226      1.0  0.22579  0.69837  0.44688  1.0000
  H   H227      1.0  0.10546  0.73224  0.00741  1.0000
  C   C230      1.0  0.00886  0.76937  0.07732  1.0000
  N   N20       1.0  0.24030  0.72832  0.44809  1.0000
  C   C231      1.0  0.99794  0.83674  0.24783  1.0000
  H   H228      1.0  0.22788  0.84381  0.23206  1.0000
  H   H229      1.0  0.23913  0.83574  0.43083  1.0000
  H   H230      1.0  0.02039  0.81295  0.04030  1.0000
  H   H231      1.0  0.24187  0.77385  0.25369  1.0000
  H   H232      1.0  0.23454  0.70798  0.41421  1.0000
  H   H233      1.0  0.02005  0.86136  0.24649  1.0000
  H   H234      1.0  0.23741  0.75020  0.41429  1.0000
  C   C232      1.0  0.14236  0.77750  0.00832  1.0000
  N   N21       1.0  0.00196  0.77929  0.10123  1.0000
  H   H235      1.0  0.17529  0.76582  0.01505  1.0000
  C   C233      1.0  0.00353  0.85782  0.24947  1.0000
  C   C234      1.0  0.16319  0.77112  0.99988  1.0000
  C   C235      1.0  0.02959  0.65965  0.44193  1.0000
  H   H236      1.0  0.99480  0.80910  0.12202  1.0000
  C   C236      1.0  0.99316  0.84157  0.18050  1.0000
  H   H237      1.0  0.99488  0.77548  0.14410  1.0000
  C   C237      1.0  0.99539  0.76631  0.12436  1.0000
  Fe  Fe39      1.0  0.07969  0.78922  0.66995  1.0000
  S   S74       1.0  0.11488  0.79316  0.67431  1.0000
  S   S75       1.0  0.06897  0.75595  0.67030  1.0000
  S   S76       1.0  0.01504  0.84138  0.65484  1.0000
  S   S77       1.0  0.22220  0.72979  0.59911  1.0000
  H   H238      1.0  0.00209  0.80825  0.61736  1.0000
  H   H239      1.0  0.22574  0.83707  0.73623  1.0000
  S   S78       1.0  0.21940  0.74770  0.53545  1.0000
  H   H240      1.0  0.02679  0.83030  0.59880  1.0000
  Fe  Fe40      1.0  0.20068  0.75296  0.57450  1.0000
  S   S79       1.0  0.16497  0.75229  0.57166  1.0000
  H   H241      1.0  0.08208  0.72749  0.61435  1.0000
  S   S80       1.0  0.21643  0.78234  0.58766  1.0000
  C   C238      1.0  0.09009  0.70810  0.56630  1.0000
  Fe  Fe41      1.0  0.08641  0.73760  0.88399  1.0000
  S   S81       1.0  0.09913  0.70306  0.88573  1.0000
  H   H242      1.0  0.24065  0.74915  0.91494  1.0000
  Fe  Fe42      1.0  0.08059  0.74060  0.94667  1.0000
  S   S82       1.0  0.09291  0.70644  0.95317  1.0000
  C   C239      1.0  0.16841  0.77206  0.97187  1.0000
  Fe  Fe43      1.0  0.11827  0.71275  0.92225  1.0000
  S   S83       1.0  0.15256  0.70078  0.93177  1.0000
  Fe  Fe44      1.0  0.07249  0.69939  0.91631  1.0000
  H   H243      1.0  0.10937  0.72908  0.62441  1.0000
  S   S84       1.0  0.10760  0.74738  0.91863  1.0000
  S   S85       1.0  0.05814  0.73354  0.91175  1.0000
  H   H244      1.0  0.13524  0.77010  0.71857  1.0000
  H   H245      1.0  0.22483  0.68881  0.89499  1.0000
  H   H246      1.0  0.07365  0.70653  0.57252  1.0000
  S   S86       1.0  0.20647  0.77998  0.84005  1.0000
  C   C240      1.0  0.02831  0.82029  0.58045  1.0000
  Fe  Fe45      1.0  0.22421  0.79240  0.80403  1.0000
  S   S87       1.0  0.20841  0.79725  0.76180  1.0000
  Fe  Fe46      1.0  0.22228  0.80375  0.86640  1.0000
  S   S88       1.0  0.20402  0.81582  0.90437  1.0000
  C   C241      1.0  0.03261  0.79499  0.53341  1.0000
  C   C242      1.0  0.09585  0.70427  0.53871  1.0000
  C   C243      1.0  0.15942  0.78203  0.92387  1.0000
  H   H247      1.0  0.18473  0.76738  0.96556  1.0000
  C   C244      1.0  0.03468  0.80881  0.80603  1.0000
  H   H248      1.0  0.08741  0.78285  0.79652  1.0000
  H   H249      1.0  0.14683  0.77671  0.90973  1.0000
  C   C245      1.0  0.17393  0.70796  0.91109  1.0000
  C   C246      1.0  0.19280  0.69439  0.91077  1.0000
  C   C247      1.0  0.21058  0.69978  0.89561  1.0000
  C   C248      1.0  0.21011  0.71927  0.88150  1.0000
  C   C249      1.0  0.19126  0.73306  0.88198  1.0000
  C   C250      1.0  0.17304  0.72724  0.89635  1.0000
  H   H250      1.0  0.19356  0.67941  0.92197  1.0000
  N   N22       1.0  0.02267  0.79148  0.80588  1.0000
  H   H251      1.0  0.19060  0.74807  0.87120  1.0000
  H   H252      1.0  0.15845  0.73772  0.89641  1.0000
  N   N23       1.0  0.17385  0.81249  0.51314  1.0000
  C   C251      1.0  0.15218  0.75121  0.82422  1.0000
  C   C252      1.0  0.16368  0.79748  0.52742  1.0000
  C   C253      1.0  0.22094  0.78629  0.73148  1.0000
  C   C254      1.0  0.21062  0.78928  0.70572  1.0000
  C   C255      1.0  0.22053  0.78124  0.68126  1.0000
  C   C256      1.0  0.04349  0.82463  0.56054  1.0000
  C   C257      1.0  0.04566  0.81182  0.53692  1.0000
  H   H253      1.0  0.19497  0.79793  0.70457  1.0000
  H   H254      1.0  0.21248  0.78370  0.66155  1.0000
  C   C258      1.0  0.09827  0.71874  0.61368  1.0000
  C   C259      1.0  0.13188  0.71244  0.54990  1.0000
  C   C260      1.0  0.20684  0.80670  0.95998  1.0000
  C   C261      1.0  0.21810  0.81068  0.93577  1.0000
  H   H255      1.0  0.12087  0.79156  0.94591  1.0000
  H   H256      1.0  0.17710  0.77037  0.78896  1.0000
  C   C262      1.0  0.16205  0.76633  0.77986  1.0000
  H   H257      1.0  0.18954  0.80823  0.95964  1.0000
  H   H258      1.0  0.04433  0.81221  0.82396  1.0000
  N   N24       1.0  0.01599  0.80335  0.57719  1.0000
  C   C263      1.0  0.04887  0.73788  0.78806  1.0000
  C   C264      1.0  0.06073  0.73943  0.81270  1.0000
  C   C265      1.0  0.07452  0.75575  0.81588  1.0000
  H   H259      1.0  0.03791  0.72546  0.78583  1.0000
  H   H260      1.0  0.05894  0.72820  0.82932  1.0000
  C   C266      1.0  0.07746  0.75574  0.51909  1.0000
  C   C267      1.0  0.06012  0.74298  0.51930  1.0000
  C   C268      1.0  0.04845  0.74081  0.54373  1.0000
  C   C269      1.0  0.12865  0.75103  0.78345  1.0000
  Fe  Fe47      1.0  0.03428  0.81019  0.66469  1.0000
  C   C270      1.0  0.12903  0.78224  0.64573  1.0000
  C   C271      1.0  0.11788  0.77529  0.62275  1.0000
  C   C272      1.0  0.12907  0.76660  0.59985  1.0000
  C   C273      1.0  0.15149  0.76429  0.60011  1.0000
  C   C274      1.0  0.16275  0.77111  0.62314  1.0000
  C   C275      1.0  0.15150  0.78023  0.64589  1.0000
  H   H261      1.0  0.10060  0.77670  0.62264  1.0000
  H   H262      1.0  0.12032  0.76156  0.58199  1.0000
  H   H263      1.0  0.18007  0.76920  0.62361  1.0000
  H   H264      1.0  0.16021  0.78554  0.66368  1.0000
  H   H265      1.0  0.16175  0.79915  0.91972  1.0000
  Fe  Fe48      1.0  0.23637  0.75910  0.84810  1.0000
  N   N25       1.0  0.10480  0.71436  0.58504  1.0000
  S   S89       1.0  0.05945  0.79987  0.63343  1.0000
  C   C276      1.0  0.02192  0.77819  0.83069  1.0000
  H   H266      1.0  0.01877  0.76146  0.82527  1.0000
  N   N26       1.0  0.15334  0.77941  0.95282  1.0000
  N   N27       1.0  0.14736  0.75657  0.79525  1.0000
  C   C277      1.0  0.05107  0.75238  0.76639  1.0000
  C   C278      1.0  0.24034  0.80007  0.98545  1.0000
  C   C279      1.0  0.12393  0.75591  0.75576  1.0000
  C   C280      1.0  0.21791  0.80087  0.98462  1.0000
  C   C281      1.0  0.03494  0.82218  0.78292  1.0000
  H   H267      1.0  0.11717  0.74293  0.79549  1.0000
  C   C282      1.0  0.02271  0.81780  0.75970  1.0000
  C   C283      1.0  0.01787  0.79086  0.55397  1.0000
  H   H268      1.0  0.01758  0.69430  0.92507  1.0000
  H   H269      1.0  0.99540  0.82221  0.70188  1.0000
  H   H270      1.0  0.16792  0.79397  0.54879  1.0000
  H   H271      1.0  0.13558  0.72524  0.97519  1.0000
  C   C284      1.0  0.13286  0.78566  0.96093  1.0000
  S   S90       1.0  0.07521  0.76538  0.98066  1.0000
  C   C285      1.0  0.01406  0.67768  0.92443  1.0000
  H   H272      1.0  0.07568  0.77248  0.58622  1.0000
  H   H273      1.0  0.04464  0.83578  0.78294  1.0000
  S   S91       1.0  0.01996  0.77853  0.66518  1.0000
  H   H274      1.0  0.12131  0.70453  0.50893  1.0000
  H   H275      1.0  0.02284  0.82798  0.74159  1.0000
  H   H276      1.0  0.00275  0.78142  0.60433  1.0000
  H   H277      1.0  0.10893  0.75182  0.74655  1.0000
  H   H278      1.0  0.06702  0.77966  0.75292  1.0000
  S   S92       1.0  0.03920  0.74822  0.59829  1.0000
  C   C286      1.0  0.07678  0.77015  0.79415  1.0000
  C   C287      1.0  0.19038  0.82396  0.52711  1.0000
  H   H279      1.0  0.22741  0.86361  0.75027  1.0000
  C   C288      1.0  0.06527  0.76835  0.76940  1.0000
  C   C289      1.0  0.11680  0.70682  0.53042  1.0000
  C   C290      1.0  0.01057  0.78713  0.78322  1.0000
  C   C291      1.0  0.05406  0.75137  0.56801  1.0000
  H   H280      1.0  0.11079  0.78971  0.99509  1.0000
  H   H281      1.0  0.13731  0.74882  0.83601  1.0000
  H   H282      1.0  0.09789  0.70350  0.62522  1.0000
  H   H283      1.0  0.16303  0.73629  0.82542  1.0000
  S   S93       1.0  0.08880  0.75925  0.84679  1.0000
  H   H284      1.0  0.17470  0.77255  0.91881  1.0000
  H   H285      1.0  0.00909  0.78496  0.84468  1.0000
  H   H286      1.0  0.16001  0.76439  0.83460  1.0000
  H   H287      1.0  0.13992  0.77424  0.52596  1.0000
  C   C292      1.0  0.08294  0.76642  0.54330  1.0000
  H   H288      1.0  0.00838  0.77719  0.55165  1.0000
  Fe  Fe49      1.0  0.04662  0.76764  0.63620  1.0000
  S   S94       1.0  0.03469  0.75128  0.73675  1.0000
  H   H289      1.0  0.09628  0.77640  0.54320  1.0000
  Fe  Fe50      1.0  0.04371  0.76998  0.69928  1.0000
  S   S95       1.0  0.05589  0.80272  0.70125  1.0000
  C   C293      1.0  0.07130  0.76422  0.56771  1.0000
  H   H290      1.0  0.16950  0.77927  0.74002  1.0000
  C   C294      1.0  0.15788  0.77136  0.75210  1.0000
  C   C295      1.0  0.13866  0.76618  0.74006  1.0000
  H   H291      1.0  0.13751  0.72025  0.59233  1.0000
  C   C296      1.0  0.12564  0.71586  0.57737  1.0000
  H   H292      1.0  0.03507  0.73088  0.54382  1.0000
  C   C297      1.0  0.24118  0.77510  0.73250  1.0000
  H   H293      1.0  0.14825  0.71449  0.54376  1.0000
  S   S96       1.0  0.23365  0.72563  0.86424  1.0000
  H   H294      1.0  0.18286  0.83596  0.54173  1.0000
  H   H295      1.0  0.20032  0.83224  0.51217  1.0000
  S   S97       1.0  0.05770  0.66734  0.91647  1.0000
  S   S98       1.0  0.23621  0.81935  0.82930  1.0000
  H   H296      1.0  0.08401  0.69989  0.52368  1.0000
  C   C298      1.0  0.03058  0.66170  0.91972  1.0000
  C   C299      1.0  0.01052  0.80012  0.75977  1.0000
  C   C300      1.0  0.23222  0.84636  0.75357  1.0000
  C   C301      1.0  0.00037  0.79858  0.59830  1.0000
  H   H297      1.0  0.23389  0.76402  0.94571  1.0000
  H   H298      1.0  0.22459  0.84142  0.77298  1.0000
  H   H299      1.0  0.05365  0.83769  0.56362  1.0000
  H   H300      1.0  0.00140  0.79617  0.74157  1.0000
  C   C302      1.0  0.14780  0.78631  0.51465  1.0000
  H   H301      1.0  0.03752  0.77726  0.84196  1.0000
  H   H302      1.0  0.20163  0.81255  0.53868  1.0000
  H   H303      1.0  0.00138  0.77316  0.78278  1.0000
  C   C303      1.0  0.24047  0.81011  0.93680  1.0000
  H   H304      1.0  0.17082  0.71018  0.99252  1.0000
  C   C304      1.0  0.12705  0.78470  0.98874  1.0000
  Fe  Fe51      1.0  0.23690  0.77528  0.55014  1.0000
  C   C305      1.0  0.24099  0.77041  0.68238  1.0000
  Fe  Fe52      1.0  0.23956  0.75882  0.60987  1.0000
  H   H305      1.0  0.05762  0.81471  0.52149  1.0000
  H   H306      1.0  0.03441  0.78473  0.51531  1.0000
  C   C306      1.0  0.99445  0.85089  0.67751  1.0000
  H   H307      1.0  0.05574  0.73477  0.50065  1.0000
  H   H308      1.0  0.01058  0.66808  0.98643  1.0000
  C   C307      1.0  0.99293  0.67205  0.92867  1.0000
  Fe  Fe53      1.0  0.40699  0.05447  0.45509  1.0000
  N   N28       1.0  0.35739  0.13806  0.39163  1.0000
  Fe  Fe54      1.0  0.37650  0.09488  0.45733  1.0000
  S   S99       1.0  0.34159  0.10605  0.45012  1.0000
  S   S100      1.0  0.39275  0.07653  0.42242  1.0000
  C   C308      1.0  0.26649  0.24976  0.32695  1.0000
  C   C309      1.0  0.30795  0.23778  0.04645  1.0000
  C   C310      1.0  0.45899  0.06348  0.34514  1.0000
  C   C311      1.0  0.24910  0.26890  0.01848  1.0000
  S   S101      1.0  0.25903  0.24846  0.10847  1.0000
  H   H309      1.0  0.24603  0.28953  0.26945  1.0000
  C   C312      1.0  0.34631  0.11959  0.38220  1.0000
  H   H310      1.0  0.34589  0.11904  0.35930  1.0000
  C   C313      1.0  0.34619  0.15763  0.39433  1.0000
  Fe  Fe55      1.0  0.27660  0.21727  0.43846  1.0000
  S   S102      1.0  0.26945  0.25293  0.44407  1.0000
  S   S103      1.0  0.30904  0.20451  0.45522  1.0000
  H   H311      1.0  0.46285  0.15684  0.11079  1.0000
  S   S104      1.0  0.45689  0.05135  0.14837  1.0000
  H   H312      1.0  0.48733  0.18584  0.18947  1.0000
  C   C314      1.0  0.37028  0.00500  0.20311  1.0000
  C   C315      1.0  0.42309  0.00314  0.46989  1.0000
  S   S105      1.0  0.26549  0.21718  0.39404  1.0000
  C   C316      1.0  0.31028  0.30936  0.25272  1.0000
  S   S106      1.0  0.27093  0.28310  0.17546  1.0000
  H   H313      1.0  0.39119  0.00749  0.26472  1.0000
  H   H314      1.0  0.38851  0.06346  0.18526  1.0000
  C   C317      1.0  0.25423  0.24740  0.02516  1.0000
  C   C318      1.0  0.26829  0.24381  0.29904  1.0000
  S   S107      1.0  0.25650  0.27836  0.36914  1.0000
  C   C319      1.0  0.48076  0.12109  0.09161  1.0000
  H   H315      1.0  0.44042  0.09496  0.13508  1.0000
  S   S108      1.0  0.35019  0.00119  0.29146  1.0000
  C   C320      1.0  0.47244  0.99706  0.43153  1.0000
  S   S109      1.0  0.48067  0.08500  0.21252  1.0000
  C   C321      1.0  0.44570  0.06307  0.06652  1.0000
  H   H316      1.0  0.47508  0.13260  0.07598  1.0000
  S   S110      1.0  0.26353  0.24958  0.24352  1.0000
  H   H317      1.0  0.41436  0.05385  0.17302  1.0000
  H   H318      1.0  0.45086  0.12542  0.34347  1.0000
  C   C322      1.0  0.38985  0.15334  0.40533  1.0000
  C   C323      1.0  0.36053  0.02333  0.27543  1.0000
  C   C324      1.0  0.37847  0.17325  0.40877  1.0000
  H   H319      1.0  0.32103  0.29488  0.25274  1.0000
  C   C325      1.0  0.44146  0.08577  0.11635  1.0000
  H   H320      1.0  0.33184  0.04359  0.28368  1.0000
  C   C326      1.0  0.30133  0.27696  0.04664  1.0000
  H   H321      1.0  0.27248  0.23871  0.34276  1.0000
  H   H322      1.0  0.29004  0.28836  0.03509  1.0000
  S   S111      1.0  0.44080  0.05680  0.22614  1.0000
  H   H323      1.0  0.46203  0.99998  0.02041  1.0000
  Fe  Fe56      1.0  0.25025  0.26965  0.20780  1.0000
  H   H324      1.0  0.34540  0.07593  0.26320  1.0000
  H   H325      1.0  0.39380  0.02587  0.01752  1.0000
  H   H326      1.0  0.26093  0.22462  0.05798  1.0000
  S   S112      1.0  0.46776  0.14759  0.20485  1.0000
  Fe  Fe57      1.0  0.41967  0.08702  0.22821  1.0000
  H   H327      1.0  0.39134  0.05197  0.15098  1.0000
  C   C327      1.0  0.39715  0.05068  0.17265  1.0000
  H   H328      1.0  0.48482  0.11538  0.16045  1.0000
  C   C328      1.0  0.38121  0.02241  0.26435  1.0000
  C   C329      1.0  0.31236  0.21787  0.00381  1.0000
  N   N29       1.0  0.30451  0.25648  0.03192  1.0000
  H   H329      1.0  0.34736  0.19079  0.40618  1.0000
  C   C330      1.0  0.38909  0.04099  0.25316  1.0000
  C   C331      1.0  0.37621  0.06040  0.25261  1.0000
  H   H330      1.0  0.40499  0.04007  0.24481  1.0000
  C   C332      1.0  0.33229  0.13327  0.45340  1.0000
  C   C333      1.0  0.34537  0.14841  0.46408  1.0000
  C   C334      1.0  0.33779  0.17015  0.46517  1.0000
  C   C335      1.0  0.31725  0.17693  0.45520  1.0000
  C   C336      1.0  0.30406  0.16178  0.44481  1.0000
  C   C337      1.0  0.31153  0.13999  0.44408  1.0000
  H   H331      1.0  0.36132  0.14339  0.47144  1.0000
  H   H332      1.0  0.34806  0.18180  0.47329  1.0000
  H   H333      1.0  0.28817  0.16684  0.43719  1.0000
  H   H334      1.0  0.30128  0.12832  0.43595  1.0000
  S   S113      1.0  0.38496  0.08428  0.23877  1.0000
  C   C338      1.0  0.48609  0.11137  0.13868  1.0000
  C   C339      1.0  0.26102  0.25809  0.27817  1.0000
  C   C340      1.0  0.41656  0.00636  0.05642  1.0000
  N   N30       1.0  0.39384  0.02942  0.18368  1.0000
  S   S114      1.0  0.43175  0.10044  0.18894  1.0000
  C   C341      1.0  0.43933  0.08503  0.06612  1.0000
  S   S115      1.0  0.43842  0.10003  0.03528  1.0000
  C   C342      1.0  0.30506  0.25629  0.00367  1.0000
  S   S116      1.0  0.47441  0.06017  0.29182  1.0000
  S   S117      1.0  0.40700  0.01920  0.44723  1.0000
  Fe  Fe58      1.0  0.24847  0.27002  0.14436  1.0000
  C   C343      1.0  0.24518  0.28395  0.03978  1.0000
  S   S118      1.0  0.44193  0.10513  0.25403  1.0000
  H   H335      1.0  0.29420  0.27488  0.06737  1.0000
  C   C344      1.0  0.34782  0.04274  0.27504  1.0000
  C   C345      1.0  0.25639  0.24119  0.05296  1.0000
  H   H336      1.0  0.40697  0.15133  0.40959  1.0000
  H   H337      1.0  0.32904  0.15941  0.39051  1.0000
  H   H338      1.0  0.35435  0.10438  0.39030  1.0000
  C   C346      1.0  0.46167  0.09686  0.32099  1.0000
  H   H339      1.0  0.46665  0.10559  0.30327  1.0000
  H   H340      1.0  0.44819  0.05447  0.04724  1.0000
  H   H341      1.0  0.38661  0.18688  0.41599  1.0000
  C   C347      1.0  0.37400  0.02532  0.19312  1.0000
  C   C348      1.0  0.44862  0.06407  0.11695  1.0000
  C   C349      1.0  0.35651  0.17549  0.40308  1.0000
  C   C350      1.0  0.37901  0.13584  0.39655  1.0000
  C   C351      1.0  0.40707  0.99306  0.19326  1.0000
  H   H342      1.0  0.45868  0.14628  0.14452  1.0000
  C   C352      1.0  0.42988  0.99319  0.07370  1.0000
  C   C353      1.0  0.45038  0.05264  0.09191  1.0000
  C   C354      1.0  0.31172  0.21818  0.03262  1.0000
  N   N31       1.0  0.40652  0.05064  0.31621  1.0000
  C   C355      1.0  0.38810  0.04635  0.32946  1.0000
  C   C356      1.0  0.42198  0.03451  0.31063  1.0000
  C   C357      1.0  0.38453  0.02536  0.33686  1.0000
  H   H343      1.0  0.48403  0.15655  0.13636  1.0000
  H   H344      1.0  0.36950  0.02187  0.34630  1.0000
  C   C358      1.0  0.40979  0.07278  0.30859  1.0000
  H   H345      1.0  0.37578  0.05909  0.33369  1.0000
  H   H346      1.0  0.43664  0.03791  0.30024  1.0000
  H   H347      1.0  0.28246  0.29295  0.24162  1.0000
  H   H348      1.0  0.31409  0.20334  0.04412  1.0000
  H   H349      1.0  0.46145  0.04620  0.34573  1.0000
  H   H350      1.0  0.39484  0.08096  0.29988  1.0000
  H   H351      1.0  0.41482  0.08177  0.32699  1.0000
  H   H352      1.0  0.42229  0.07342  0.29246  1.0000
  C   C359      1.0  0.25777  0.27021  0.33422  1.0000
  H   H353      1.0  0.27545  0.22806  0.29363  1.0000
  H   H354      1.0  0.42596  0.01680  0.17573  1.0000
  C   C360      1.0  0.45292  0.10811  0.34395  1.0000
  H   H355      1.0  0.35472  0.00196  0.21141  1.0000
  C   C361      1.0  0.47082  0.14754  0.12800  1.0000
  C   C362      1.0  0.46455  0.07450  0.32130  1.0000
  H   H356      1.0  0.30728  0.23790  0.06886  1.0000
  H   H357      1.0  0.38802  0.12045  0.39397  1.0000
  Fe  Fe59      1.0  0.45431  0.07088  0.18812  1.0000
  C   C363      1.0  0.44685  0.09715  0.36748  1.0000
  C   C364      1.0  0.44990  0.07475  0.36807  1.0000
  H   H358      1.0  0.32966  0.12041  0.39032  1.0000
  S   S119      1.0  0.40356  0.11565  0.46393  1.0000
  C   C365      1.0  0.44978  0.99426  0.00705  1.0000
  H   H359      1.0  0.36108  0.03795  0.19367  1.0000
  C   C366      1.0  0.25345  0.25642  0.07419  1.0000
  H   H360      1.0  0.44544  0.06617  0.38624  1.0000
  C   C367      1.0  0.41891  0.01332  0.31769  1.0000
  Fe  Fe60      1.0  0.46361  0.07505  0.25096  1.0000
  Fe  Fe61      1.0  0.42075  0.09550  0.43114  1.0000
  Fe  Fe62      1.0  0.45751  0.11430  0.21444  1.0000
  S   S120      1.0  0.39211  0.07246  0.99660  1.0000
  C   C368      1.0  0.35552  0.06108  0.26350  1.0000
  Fe  Fe63      1.0  0.25583  0.25205  0.40100  1.0000
  C   C369      1.0  0.41025  0.01357  0.18341  1.0000
  H   H361      1.0  0.44524  0.00779  0.40657  1.0000
  C   C370      1.0  0.43686  0.09616  0.09116  1.0000
  H   H362      1.0  0.43216  0.11317  0.09101  1.0000
  C   C371      1.0  0.39997  0.00874  0.33071  1.0000
  N   N32       1.0  0.39882  0.99877  0.04435  1.0000
  H   H363      1.0  0.45624  0.03593  0.09206  1.0000
  S   S121      1.0  0.43660  0.07198  0.46132  1.0000
  S   S122      1.0  0.43543  0.11215  0.39546  1.0000
  H   H364      1.0  0.25719  0.23568  0.00892  1.0000
  H   H365      1.0  0.24505  0.28961  0.08382  1.0000
  H   H366      1.0  0.42087  0.02244  0.05207  1.0000
  H   H367      1.0  0.37975  0.00342  0.00791  1.0000
  C   C372      1.0  0.25185  0.27845  0.28535  1.0000
  H   H368      1.0  0.49267  0.26847  0.46973  1.0000
  H   H369      1.0  0.29672  0.32005  0.18084  1.0000
  H   H370      1.0  0.31690  0.28408  0.04917  1.0000
  C   C373      1.0  0.38508  0.01260  0.02606  1.0000
  S   S123      1.0  0.38809  0.07074  0.48949  1.0000
  C   C374      1.0  0.28859  0.30826  0.24654  1.0000
  Fe  Fe64      1.0  0.24664  0.31149  0.17675  1.0000
  H   H371      1.0  0.43096  0.00050  0.31257  1.0000
  C   C375      1.0  0.25049  0.28459  0.31334  1.0000
  C   C376      1.0  0.24734  0.27775  0.06759  1.0000
  N   N33       1.0  0.47932  0.12614  0.11912  1.0000
  C   C377      1.0  0.48877  0.10064  0.08313  1.0000
  H   H372      1.0  0.37083  0.01961  0.03744  1.0000
  S   S124      1.0  0.24511  0.20873  0.45595  1.0000
  S   S125      1.0  0.49088  0.30784  0.43948  1.0000
  H   H373      1.0  0.49041  0.23136  0.46255  1.0000
  H   H374      1.0  0.47810  0.01292  0.43350  1.0000
  C   C378      1.0  0.43927  0.01153  0.48567  1.0000
  H   H375      1.0  0.24377  0.30047  0.31884  1.0000
  H   H376      1.0  0.39700  0.99232  0.33550  1.0000
  H   H377      1.0  0.48896  0.09644  0.06134  1.0000
  H   H378      1.0  0.44442  0.99890  0.08230  1.0000
  H   H379      1.0  0.44152  0.02844  0.48486  1.0000
  Fe  Fe65      1.0  0.41665  0.09008  0.49365  1.0000
  H   H380      1.0  0.49019  0.18933  0.25846  1.0000
  H   H381      1.0  0.49206  0.15108  0.27124  1.0000
  C   C379      1.0  0.45388  0.99403  0.41623  1.0000
  H   H382      1.0  0.30440  0.13376  0.95927  1.0000
  S   S126      1.0  0.26537  0.27403  0.60528  1.0000
  H   H383      1.0  0.45382  0.03854  0.84435  1.0000
  N   N34       1.0  0.39669  0.04326  0.81039  1.0000
  S   S127      1.0  0.39207  0.07613  0.92882  1.0000
  C   C380      1.0  0.35111  0.01624  0.75339  1.0000
  C   C381      1.0  0.44482  0.09032  0.86614  1.0000
  C   C382      1.0  0.33762  0.03428  0.74626  1.0000
  S   S128      1.0  0.40335  0.01886  0.95480  1.0000
  C   C383      1.0  0.46214  0.12301  0.59650  1.0000
  C   C384      1.0  0.26336  0.26647  0.54968  1.0000
  C   C385      1.0  0.39174  0.03925  0.66924  1.0000
  C   C386      1.0  0.25041  0.27812  0.76832  1.0000
  H   H384      1.0  0.31504  0.12319  0.89496  1.0000
  Fe  Fe66      1.0  0.28585  0.22039  0.92158  1.0000
  S   S129      1.0  0.28437  0.25638  0.92205  1.0000
  S   S130      1.0  0.31979  0.20526  0.92672  1.0000
  C   C387      1.0  0.48810  0.14827  0.70016  1.0000
  C   C388      1.0  0.32220  0.15416  0.87986  1.0000
  Fe  Fe67      1.0  0.26241  0.25492  0.88550  1.0000
  S   S131      1.0  0.26565  0.27780  0.84986  1.0000
  C   C389      1.0  0.46374  0.99205  0.93404  1.0000
  S   S132      1.0  0.26597  0.21903  0.88277  1.0000
  H   H385      1.0  0.37702  0.04206  0.65640  1.0000
  S   S133      1.0  0.26001  0.28904  0.68344  1.0000
  S   S134      1.0  0.43843  0.06857  0.96258  1.0000
  C   C390      1.0  0.44909  0.99297  0.91216  1.0000
  C   C391      1.0  0.47146  0.11056  0.64159  1.0000
  S   S135      1.0  0.42665  0.09647  0.68661  1.0000
  H   H386      1.0  0.26775  0.29739  0.79637  1.0000
  C   C392      1.0  0.25702  0.26978  0.81697  1.0000
  S   S136      1.0  0.46472  0.05093  0.78882  1.0000
  H   H387      1.0  0.24509  0.23026  0.59744  1.0000
  H   H388      1.0  0.39255  0.13435  0.91073  1.0000
  H   H389      1.0  0.38386  0.00382  0.75985  1.0000
  H   H390      1.0  0.25191  0.28867  0.75090  1.0000
  H   H391      1.0  0.40902  0.07274  0.82136  1.0000
  S   S137      1.0  0.46143  0.14252  0.70761  1.0000
  H   H392      1.0  0.44964  0.05745  0.54330  1.0000
  H   H393      1.0  0.36373  0.05469  0.81353  1.0000
  H   H394      1.0  0.36620  0.99321  0.52820  1.0000
  H   H395      1.0  0.45960  0.03764  0.58664  1.0000
  C   C393      1.0  0.24662  0.25104  0.81368  1.0000
  N   N35       1.0  0.36495  0.13876  0.88510  1.0000
  H   H396      1.0  0.31301  0.20687  0.51787  1.0000
  S   S138      1.0  0.33922  0.99237  0.76038  1.0000
  H   H397      1.0  0.26185  0.25767  0.50663  1.0000
  Fe  Fe68      1.0  0.40689  0.05386  0.96094  1.0000
  H   H398      1.0  0.43787  0.13847  0.65337  1.0000
  C   C394      1.0  0.37602  0.00788  0.68828  1.0000
  H   H399      1.0  0.28069  0.26472  0.55050  1.0000
  H   H400      1.0  0.41723  0.06241  0.78791  1.0000
  H   H401      1.0  0.39822  0.13869  0.87479  1.0000
  H   H402      1.0  0.39065  0.07431  0.79219  1.0000
  C   C395      1.0  0.42052  0.00140  0.97439  1.0000
  C   C396      1.0  0.38189  0.03717  0.74765  1.0000
  H   H403      1.0  0.39893  0.03822  0.74883  1.0000
  H   H404      1.0  0.45961  0.15478  0.64640  1.0000
  C   C397      1.0  0.45047  0.10048  0.84181  1.0000
  H   H405      1.0  0.36029  0.01651  0.68696  1.0000
  S   S139      1.0  0.43336  0.05137  0.72116  1.0000
  H   H406      1.0  0.32043  0.03328  0.74557  1.0000
  H   H407      1.0  0.46536  0.00433  0.51445  1.0000
  N   N36       1.0  0.26221  0.21589  0.56298  1.0000
  C   C398      1.0  0.34613  0.05367  0.73999  1.0000
  C   C399      1.0  0.36826  0.05523  0.74049  1.0000
  H   H408      1.0  0.33545  0.06750  0.73458  1.0000
  C   C400      1.0  0.33837  0.13724  0.95734  1.0000
  C   C401      1.0  0.35406  0.15135  0.95213  1.0000
  C   C402      1.0  0.34803  0.17242  0.94369  1.0000
  C   C403      1.0  0.32632  0.17953  0.94042  1.0000
  C   C404      1.0  0.31057  0.16573  0.94669  1.0000
  C   C405      1.0  0.38129  0.99330  0.53935  1.0000
  H   H409      1.0  0.37082  0.14592  0.95408  1.0000
  H   H410      1.0  0.48040  0.18244  0.70054  1.0000
  H   H411      1.0  0.29379  0.17109  0.94429  1.0000
  S   S140      1.0  0.43488  0.09836  0.75257  1.0000
  S   S141      1.0  0.37788  0.08014  0.73226  1.0000
  H   H412      1.0  0.37244  0.16992  0.87260  1.0000
  Fe  Fe69      1.0  0.44840  0.06636  0.68492  1.0000
  H   H413      1.0  0.48812  0.26293  0.85234  1.0000
  H   H414      1.0  0.30555  0.16047  0.87878  1.0000
  Fe  Fe70      1.0  0.42243  0.09243  0.93295  1.0000
  H   H415      1.0  0.46881  0.00672  0.94303  1.0000
  H   H416      1.0  0.38998  0.11346  0.88553  1.0000
  C   C406      1.0  0.45690  0.08848  0.81832  1.0000
  S   S142      1.0  0.43677  0.10636  0.89493  1.0000
  C   C407      1.0  0.31661  0.14461  0.95515  1.0000
  Fe  Fe71      1.0  0.45180  0.10869  0.71452  1.0000
  S   S143      1.0  0.25818  0.21874  0.95081  1.0000
  H   H417      1.0  0.45002  0.11778  0.84113  1.0000
  H   H418      1.0  0.33445  0.18395  0.86800  1.0000
  Fe  Fe72      1.0  0.38007  0.09649  0.96454  1.0000
  H   H419      1.0  0.31535  0.20284  0.99267  1.0000
  S   S144      1.0  0.40936  0.11476  0.96646  1.0000
  C   C408      1.0  0.26073  0.20773  0.53684  1.0000
  H   H420      1.0  0.49104  0.08064  0.64427  1.0000
  H   H421      1.0  0.28283  0.22715  0.59417  1.0000
  C   C409      1.0  0.25270  0.26249  0.52481  1.0000
  C   C410      1.0  0.27900  0.20427  0.52038  1.0000
  N   N37       1.0  0.46088  0.12531  0.62459  1.0000
  C   C411      1.0  0.41382  0.00682  0.68309  1.0000
  C   C412      1.0  0.29882  0.20927  0.53072  1.0000
  Fe  Fe73      1.0  0.25533  0.25462  0.94854  1.0000
  N   N38       1.0  0.39390  0.01731  0.67998  1.0000
  H   H422      1.0  0.36028  0.18311  0.93905  1.0000
  Fe  Fe74      1.0  0.24488  0.28583  0.64140  1.0000
  H   H423      1.0  0.30206  0.27104  0.99206  1.0000
  C   C413      1.0  0.48457  0.30302  0.97190  1.0000
  C   C414      1.0  0.30023  0.21741  0.55749  1.0000
  C   C415      1.0  0.44332  0.06331  0.56291  1.0000
  H   H424      1.0  0.35310  0.10993  0.89999  1.0000
  H   H425      1.0  0.40562  0.04263  0.65612  1.0000
  S   S145      1.0  0.47440  0.07896  0.71169  1.0000
  C   C416      1.0  0.38745  0.13099  0.88924  1.0000
  C   C417      1.0  0.44905  0.05217  0.58751  1.0000
  H   H426      1.0  0.46168  0.09660  0.80000  1.0000
  C   C418      1.0  0.33846  0.16735  0.87374  1.0000
  C   C419      1.0  0.30911  0.23703  0.98927  1.0000
  H   H427      1.0  0.41380  0.10582  0.59077  1.0000
  H   H428      1.0  0.39077  0.05086  0.68666  1.0000
  S   S146      1.0  0.45212  0.04797  0.64422  1.0000
  C   C420      1.0  0.40368  0.06422  0.80270  1.0000
  Fe  Fe75      1.0  0.41302  0.08205  0.72426  1.0000
  C   C421      1.0  0.44853  0.14380  0.63685  1.0000
  H   H429      1.0  0.47046  0.11242  0.66380  1.0000
  C   C422      1.0  0.44236  0.06057  0.61331  1.0000
  C   C423      1.0  0.41149  0.02605  0.81281  1.0000
  C   C424      1.0  0.45269  0.05583  0.84348  1.0000
  C   C425      1.0  0.37552  0.04114  0.81585  1.0000
  S   S147      1.0  0.34534  0.10996  0.96440  1.0000
  C   C426      1.0  0.36864  0.02127  0.82349  1.0000
  C   C427      1.0  0.44589  0.06790  0.86695  1.0000
  C   C428      1.0  0.45787  0.06612  0.81889  1.0000
  S   S148      1.0  0.42867  0.10046  0.53548  1.0000
  C   C429      1.0  0.42886  0.07944  0.61405  1.0000
  C   C430      1.0  0.28167  0.22048  0.57353  1.0000
  H   H430      1.0  0.42807  0.01447  0.67704  1.0000
  H   H431      1.0  0.31555  0.22149  0.56570  1.0000
  H   H432      1.0  0.42825  0.02772  0.80833  1.0000
  H   H433      1.0  0.42293  0.08579  0.63337  1.0000
  C   C431      1.0  0.42336  0.09066  0.58966  1.0000
  C   C432      1.0  0.41488  0.00859  0.54795  1.0000
  C   C433      1.0  0.48335  0.09269  0.63064  1.0000
  H   H434      1.0  0.43822  0.15282  0.62141  1.0000
  C   C434      1.0  0.37333  0.01768  0.75424  1.0000
  H   H435      1.0  0.44180  0.05992  0.88576  1.0000
  C   C435      1.0  0.34911  0.12582  0.89161  1.0000
  C   C436      1.0  0.25936  0.28305  0.79406  1.0000
  C   C437      1.0  0.32752  0.13325  0.88885  1.0000
  C   C438      1.0  0.35990  0.15937  0.87659  1.0000
  Fe  Fe76      1.0  0.45596  0.06792  0.74849  1.0000
  C   C439      1.0  0.43089  0.08294  0.56405  1.0000
  N   N39       1.0  0.42071  0.99254  0.56627  1.0000
  C   C440      1.0  0.40519  0.00599  0.82067  1.0000
  H   H436      1.0  0.48138  0.29516  0.95246  1.0000
  C   C441      1.0  0.38362  0.00365  0.82602  1.0000
  H   H437      1.0  0.44266  0.00837  0.90418  1.0000
  H   H438      1.0  0.45343  0.13438  0.58287  1.0000
  C   C442      1.0  0.47405  0.10542  0.58482  1.0000
  C   C443      1.0  0.43641  0.00888  0.99153  1.0000
  C   C444      1.0  0.25168  0.27212  0.57361  1.0000
  H   H439      1.0  0.35175  0.01944  0.82689  1.0000
  H   H440      1.0  0.45393  0.99785  0.56605  1.0000
  H   H441      1.0  0.28290  0.31567  0.64216  1.0000
  H   H442      1.0  0.47429  0.10325  0.56255  1.0000
  C   C445      1.0  0.48459  0.09012  0.60205  1.0000
  H   H443      1.0  0.44065  0.00189  0.59906  1.0000
  H   H444      1.0  0.29924  0.31340  0.61161  1.0000
  C   C446      1.0  0.28620  0.32333  0.62215  1.0000
  H   H445      1.0  0.30973  0.23695  0.96693  1.0000
  S   S149      1.0  0.24919  0.27787  0.98405  1.0000
  H   H446      1.0  0.27789  0.19781  0.49963  1.0000
  H   H447      1.0  0.42566  0.02086  0.54356  1.0000
  H   H448      1.0  0.41689  0.99229  0.82238  1.0000
  H   H449      1.0  0.24525  0.24047  0.83101  1.0000
  H   H450      1.0  0.24532  0.20408  0.52845  1.0000
  C   C447      1.0  0.45283  0.99788  0.50226  1.0000
  C   C448      1.0  0.39527  0.00902  0.53386  1.0000
  H   H451      1.0  0.39113  0.02123  0.51842  1.0000
  H   H452      1.0  0.27171  0.32306  0.60878  1.0000
  C   C449      1.0  0.47210  0.32146  0.97983  1.0000
  H   H453      1.0  0.43837  0.02585  0.99286  1.0000
  Fe  Fe77      1.0  0.42250  0.08917  0.99605  1.0000
  C   C450      1.0  0.44168  0.99191  0.58002  1.0000
  S   S150      1.0  0.40417  0.63154  0.04696  1.0000
  H   H454      1.0  0.42692  0.54492  0.23277  1.0000
  C   C451      1.0  0.39404  0.59419  0.41959  1.0000
  S   S151      1.0  0.42801  0.60771  0.29789  1.0000
  Fe  Fe78      1.0  0.36848  0.62980  0.04746  1.0000
  S   S152      1.0  0.35824  0.55043  0.03656  1.0000
  Fe  Fe79      1.0  0.43283  0.42158  0.45449  1.0000
  S   S153      1.0  0.40479  0.40214  0.46018  1.0000
  S   S154      1.0  0.43014  0.60089  0.10943  1.0000
  Fe  Fe80      1.0  0.40417  0.46326  0.45316  1.0000
  S   S155      1.0  0.37373  0.44697  0.45836  1.0000
  C   C452      1.0  0.39422  0.58610  0.17501  1.0000
  S   S156      1.0  0.40936  0.57998  0.03938  1.0000
  S   S157      1.0  0.37094  0.41310  0.02956  1.0000
  Fe  Fe81      1.0  0.38865  0.42336  0.42759  1.0000
  S   S158      1.0  0.37318  0.40752  0.39150  1.0000
  H   H455      1.0  0.31433  0.63947  0.04567  1.0000
  S   S159      1.0  0.41758  0.44117  0.41993  1.0000
  Fe  Fe82      1.0  0.44966  0.54743  0.29837  1.0000
  S   S160      1.0  0.41473  0.55756  0.29798  1.0000
  S   S161      1.0  0.46410  0.51326  0.29977  1.0000
  Fe  Fe83      1.0  0.46236  0.59359  0.29862  1.0000
  C   C453      1.0  0.37126  0.51158  0.01315  1.0000
  Fe  Fe84      1.0  0.42259  0.58227  0.32928  1.0000
  Fe  Fe85      1.0  0.42280  0.58188  0.26661  1.0000
  S   S162      1.0  0.45717  0.57006  0.33251  1.0000
  S   S163      1.0  0.45748  0.56981  0.26454  1.0000
  Fe  Fe86      1.0  0.36128  0.44620  0.18211  1.0000
  S   S164      1.0  0.38431  0.41701  0.18397  1.0000
  S   S165      1.0  0.35498  0.46381  0.14154  1.0000
  Fe  Fe87      1.0  0.35335  0.44459  0.24499  1.0000
  S   S166      1.0  0.37528  0.41486  0.24989  1.0000
  Fe  Fe88      1.0  0.39687  0.43195  0.22242  1.0000
  S   S167      1.0  0.43162  0.43468  0.23292  1.0000
  Fe  Fe89      1.0  0.35951  0.40378  0.21111  1.0000
  S   S168      1.0  0.35083  0.36967  0.20391  1.0000
  S   S169      1.0  0.37560  0.46204  0.21869  1.0000
  S   S170      1.0  0.37014  0.60279  0.07813  1.0000
  C   C454      1.0  0.32445  0.36356  0.19554  1.0000
  C   C455      1.0  0.32050  0.34220  0.19013  1.0000
  Fe  Fe90      1.0  0.40429  0.60848  0.01167  1.0000
  C   C456      1.0  0.28237  0.35230  0.18453  1.0000
  C   C457      1.0  0.28640  0.37372  0.18946  1.0000
  C   C458      1.0  0.30732  0.37934  0.19498  1.0000
  C   C459      1.0  0.40008  0.64216  0.16073  1.0000
  C   C460      1.0  0.38286  0.55072  0.48852  1.0000
  H   H456      1.0  0.27318  0.38599  0.18941  1.0000
  H   H457      1.0  0.31005  0.39583  0.19931  1.0000
  C   C461      1.0  0.45380  0.49200  0.28140  1.0000
  C   C462      1.0  0.46817  0.47481  0.27360  1.0000
  C   C463      1.0  0.46102  0.45746  0.25888  1.0000
  C   C464      1.0  0.43931  0.45678  0.25229  1.0000
  C   C465      1.0  0.42464  0.47358  0.26104  1.0000
  C   C466      1.0  0.43192  0.49134  0.27531  1.0000
  S   S171      1.0  0.46734  0.40796  0.45047  1.0000
  H   H458      1.0  0.47243  0.44450  0.25250  1.0000
  H   H459      1.0  0.40777  0.47303  0.25672  1.0000
  H   H460      1.0  0.42064  0.50436  0.28181  1.0000
  C   C467      1.0  0.36442  0.42289  0.36247  1.0000
  C   C468      1.0  0.36550  0.44512  0.36169  1.0000
  C   C469      1.0  0.35859  0.45671  0.33791  1.0000
  C   C470      1.0  0.35112  0.44606  0.31462  1.0000
  C   C471      1.0  0.35022  0.42384  0.31544  1.0000
  C   C472      1.0  0.35661  0.41235  0.33937  1.0000
  H   H461      1.0  0.37132  0.45337  0.37953  1.0000
  H   H462      1.0  0.34407  0.41556  0.29784  1.0000
  H   H463      1.0  0.35558  0.39520  0.33994  1.0000
  C   C473      1.0  0.37077  0.42964  0.05915  1.0000
  C   C474      1.0  0.37999  0.42148  0.08378  1.0000
  C   C475      1.0  0.37581  0.43215  0.10902  1.0000
  C   C476      1.0  0.36220  0.45098  0.10992  1.0000
  C   C477      1.0  0.35367  0.45963  0.08511  1.0000
  C   C478      1.0  0.35793  0.44901  0.05983  1.0000
  H   H464      1.0  0.38969  0.40638  0.08351  1.0000
  H   H465      1.0  0.38281  0.42548  0.12776  1.0000
  C   C479      1.0  0.48468  0.33582  0.44037  1.0000
  C   C480      1.0  0.42999  0.59090  0.19193  1.0000
  C   C481      1.0  0.43659  0.59444  0.16474  1.0000
  H   H466      1.0  0.44125  0.59173  0.20887  1.0000
  H   H467      1.0  0.45297  0.59790  0.16083  1.0000
  H   H468      1.0  0.37872  0.58750  0.41719  1.0000
  H   H469      1.0  0.37856  0.51801  0.21356  1.0000
  N   N40       1.0  0.41265  0.51931  0.21257  1.0000
  S   S172      1.0  0.39934  0.58553  0.36477  1.0000
  C   C482      1.0  0.34041  0.39168  0.09190  1.0000
  H   H470      1.0  0.38949  0.60078  0.46293  1.0000
  H   H471      1.0  0.33365  0.32988  0.19051  1.0000
  H   H472      1.0  0.35976  0.50479  0.02646  1.0000
  S   S173      1.0  0.34254  0.46064  0.28483  1.0000
  H   H473      1.0  0.32447  0.41121  0.06009  1.0000
  H   H474      1.0  0.43794  0.60487  0.38256  1.0000
  H   H475      1.0  0.31412  0.43240  0.14390  1.0000
  C   C483      1.0  0.46316  0.34376  0.44302  1.0000
  C   C484      1.0  0.45758  0.36589  0.44508  1.0000
  C   C485      1.0  0.47354  0.38027  0.44493  1.0000
  C   C486      1.0  0.33472  0.40340  0.13816  1.0000
  C   C487      1.0  0.37292  0.53376  0.01301  1.0000
  H   H476      1.0  0.41435  0.63799  0.17303  1.0000
  H   H477      1.0  0.44098  0.37172  0.44735  1.0000
  H   H478      1.0  0.33786  0.40141  0.16006  1.0000
  H   H479      1.0  0.44805  0.52321  0.35543  1.0000
  S   S174      1.0  0.33575  0.43251  0.20795  1.0000
  C   C488      1.0  0.32110  0.42080  0.12915  1.0000
  H   H480      1.0  0.43819  0.48762  0.33968  1.0000
  C   C489      1.0  0.31719  0.42355  0.10094  1.0000
  C   C490      1.0  0.42709  0.49765  0.35219  1.0000
  N   N41       1.0  0.30446  0.34755  0.25831  1.0000
  H   H481      1.0  0.46374  0.52727  0.23070  1.0000
  H   H482      1.0  0.41834  0.64751  0.12398  1.0000
  C   C491      1.0  0.48373  0.65088  0.31470  1.0000
  C   C492      1.0  0.45395  0.49953  0.20904  1.0000
  H   H483      1.0  0.46721  0.64698  0.31569  1.0000
  C   C493      1.0  0.35864  0.37128  0.12980  1.0000
  H   H484      1.0  0.42253  0.54630  0.38343  1.0000
  H   H485      1.0  0.34632  0.64544  0.16478  1.0000
  C   C494      1.0  0.43266  0.51769  0.36101  1.0000
  H   H486      1.0  0.37456  0.49875  0.10876  1.0000
  C   C495      1.0  0.42958  0.52939  0.22291  1.0000
  C   C496      1.0  0.29956  0.33657  0.18467  1.0000
  C   C497      1.0  0.39025  0.51554  0.46793  1.0000
  H   H487      1.0  0.48504  0.47506  0.27856  1.0000
  N   N42       1.0  0.34439  0.38929  0.11960  1.0000
  H   H488      1.0  0.44271  0.49444  0.02592  1.0000
  S   S175      1.0  0.25560  0.34582  0.17974  1.0000
  H   H489      1.0  0.32959  0.36871  0.25848  1.0000
  H   H490      1.0  0.33491  0.33003  0.26318  1.0000
  H   H491      1.0  0.40388  0.38645  0.35084  1.0000
  H   H492      1.0  0.36808  0.49226  0.47833  1.0000
  C   C498      1.0  0.40247  0.64764  0.13299  1.0000
  H   H493      1.0  0.34830  0.38078  0.07701  1.0000
  S   S176      1.0  0.36847  0.60869  0.00979  1.0000
  H   H494      1.0  0.30330  0.38165  0.25505  1.0000
  C   C499      1.0  0.28312  0.34657  0.25260  1.0000
  C   C500      1.0  0.41961  0.61087  0.44875  1.0000
  C   C501      1.0  0.40768  0.59520  0.39685  1.0000
  H   H495      1.0  0.36951  0.37677  0.14617  1.0000
  H   H496      1.0  0.35906  0.47393  0.33747  1.0000
  C   C502      1.0  0.32680  0.40887  0.08216  1.0000
  H   H497      1.0  0.27549  0.65166  0.04773  1.0000
  N   N43       1.0  0.43031  0.40514  0.35862  1.0000
  C   C503      1.0  0.44218  0.42108  0.34935  1.0000
  C   C504      1.0  0.41338  0.39899  0.34340  1.0000
  C   C505      1.0  0.43690  0.43157  0.32440  1.0000
  C   C506      1.0  0.40774  0.40906  0.31838  1.0000
  C   C507      1.0  0.41948  0.42551  0.30895  1.0000
  C   C508      1.0  0.43616  0.39383  0.38438  1.0000
  H   H498      1.0  0.45581  0.42578  0.36123  1.0000
  S   S177      1.0  0.42652  0.62210  0.48061  1.0000
  H   H499      1.0  0.44633  0.44415  0.31692  1.0000
  H   H500      1.0  0.39420  0.40425  0.30649  1.0000
  H   H501      1.0  0.41507  0.43344  0.28962  1.0000
  H   H502      1.0  0.44723  0.40275  0.39725  1.0000
  H   H503      1.0  0.42161  0.39192  0.39698  1.0000
  H   H504      1.0  0.44417  0.37775  0.37980  1.0000
  N   N44       1.0  0.39877  0.52374  0.38396  1.0000
  C   C509      1.0  0.39314  0.50410  0.37537  1.0000
  C   C510      1.0  0.40722  0.49074  0.35941  1.0000
  C   C511      1.0  0.38344  0.53800  0.39944  1.0000
  H   H505      1.0  0.37775  0.49863  0.38106  1.0000
  H   H506      1.0  0.40269  0.47518  0.35269  1.0000
  H   H507      1.0  0.37381  0.54864  0.38494  1.0000
  H   H508      1.0  0.37268  0.52876  0.41213  1.0000
  H   H509      1.0  0.39198  0.54815  0.41398  1.0000
  N   N45       1.0  0.39560  0.50681  0.07635  1.0000
  C   C512      1.0  0.40260  0.48601  0.07069  1.0000
  C   C513      1.0  0.40546  0.52326  0.06466  1.0000
  C   C514      1.0  0.41988  0.48125  0.05292  1.0000
  C   C515      1.0  0.42271  0.51908  0.04664  1.0000
  C   C516      1.0  0.42984  0.49792  0.04061  1.0000
  C   C517      1.0  0.37643  0.51155  0.09327  1.0000
  H   H510      1.0  0.39469  0.47293  0.07964  1.0000
  H   H511      1.0  0.39947  0.53973  0.06844  1.0000
  H   H512      1.0  0.42521  0.46474  0.04831  1.0000
  H   H513      1.0  0.43000  0.53217  0.03669  1.0000
  H   H514      1.0  0.36821  0.62160  0.20285  1.0000
  H   H515      1.0  0.37721  0.52688  0.10468  1.0000
  H   H516      1.0  0.36198  0.51300  0.07972  1.0000
  Fe  Fe91      1.0  0.37341  0.58169  0.04032  1.0000
  H   H517      1.0  0.38809  0.54170  0.19784  1.0000
  H   H518      1.0  0.34309  0.47416  0.08553  1.0000
  C   C518      1.0  0.43326  0.61202  0.42598  1.0000
  H   H519      1.0  0.46994  0.49143  0.20869  1.0000
  H   H520      1.0  0.35034  0.45521  0.04104  1.0000
  S   S178      1.0  0.39926  0.58465  0.23094  1.0000
  C   C519      1.0  0.40872  0.58701  0.19710  1.0000
  H   H521      1.0  0.36891  0.36388  0.11314  1.0000
  C   C520      1.0  0.40009  0.60176  0.44553  1.0000
  C   C521      1.0  0.42739  0.60401  0.40007  1.0000
  C   C522      1.0  0.45045  0.51961  0.22147  1.0000
  C   C523      1.0  0.42195  0.59411  0.14271  1.0000
  H   H522      1.0  0.43914  0.47375  0.18875  1.0000
  H   H523      1.0  0.30719  0.43735  0.09362  1.0000
  C   C524      1.0  0.41818  0.53065  0.37686  1.0000
  H   H524      1.0  0.45073  0.33270  0.44353  1.0000
  H   H525      1.0  0.39335  0.63159  0.21134  1.0000
  S   S179      1.0  0.42282  0.43531  0.00146  1.0000
  H   H526      1.0  0.44839  0.61905  0.42847  1.0000
  H   H527      1.0  0.38873  0.53835  0.23478  1.0000
  C   C525      1.0  0.31272  0.36814  0.26545  1.0000
  C   C526      1.0  0.40081  0.58963  0.14786  1.0000
  H   H528      1.0  0.40897  0.54238  0.46077  1.0000
  S   S180      1.0  0.40630  0.49846  0.44632  1.0000
  C   C527      1.0  0.39527  0.53675  0.47128  1.0000
  C   C528      1.0  0.43667  0.48963  0.19782  1.0000
  C   C529      1.0  0.39092  0.52979  0.21467  1.0000
  H   H529      1.0  0.40267  0.49202  0.19097  1.0000
  Fe  Fe92      1.0  0.40586  0.60302  0.07475  1.0000
  Fe  Fe93      1.0  0.39280  0.42760  0.49059  1.0000
  H   H530      1.0  0.38946  0.58929  0.13103  1.0000
  H   H531      1.0  0.34898  0.35894  0.13888  1.0000
  H   H532      1.0  0.37773  0.58307  0.17893  1.0000
  C   C530      1.0  0.41601  0.49990  0.19957  1.0000
  H   H533      1.0  0.37293  0.64052  0.42614  1.0000
  H   H534      1.0  0.46704  0.64245  0.38914  1.0000
  H   H535      1.0  0.46776  0.34673  0.01005  1.0000
  H   H536      1.0  0.31204  0.37070  0.28815  1.0000
  H   H537      1.0  0.27237  0.36105  0.25201  1.0000
  H   H538      1.0  0.38678  0.56709  0.49069  1.0000
  C   C531      1.0  0.36398  0.65180  0.12821  1.0000
  C   C532      1.0  0.37234  0.50849  0.48130  1.0000
  S   S181      1.0  0.42231  0.44559  0.48737  1.0000
  C   C533      1.0  0.31799  0.32926  0.25865  1.0000
  H   H539      1.0  0.40103  0.65525  0.45485  1.0000
  C   C534      1.0  0.27490  0.32697  0.24649  1.0000
  C   C535      1.0  0.36854  0.64959  0.44471  1.0000
  H   H540      1.0  0.33470  0.64611  0.44040  1.0000
  C   C536      1.0  0.34712  0.65275  0.45271  1.0000
  N   N46       1.0  0.38009  0.64145  0.17189  1.0000
  C   C537      1.0  0.37763  0.63583  0.20103  1.0000
  H   H541      1.0  0.47964  0.60726  0.36857  1.0000
  C   C538      1.0  0.36216  0.64612  0.15601  1.0000
  C   C539      1.0  0.47692  0.33191  0.00430  1.0000
  C   C540      1.0  0.48390  0.63885  0.38456  1.0000
  H   H542      1.0  0.36938  0.64946  0.21248  1.0000
  C   C541      1.0  0.30936  0.65606  0.05013  1.0000
  C   C542      1.0  0.38429  0.65259  0.11674  1.0000
  H   H543      1.0  0.25809  0.32642  0.24112  1.0000
  C   C543      1.0  0.49097  0.61904  0.37322  1.0000
  H   H544      1.0  0.34979  0.65547  0.11551  1.0000
  H   H545      1.0  0.38591  0.65690  0.09522  1.0000
  H   H546      1.0  0.38439  0.48089  0.99793  1.0000
  C   C544      1.0  0.38520  0.49805  0.99699  1.0000
  C   C545      1.0  0.40419  0.58662  0.94303  1.0000
  C   C546      1.0  0.28078  0.38200  0.63792  1.0000
  C   C547      1.0  0.43694  0.58394  0.66463  1.0000
  C   C548      1.0  0.43347  0.60323  0.92155  1.0000
  H   H547      1.0  0.34555  0.62417  0.92090  1.0000
  S   S182      1.0  0.35174  0.56017  0.52731  1.0000
  Fe  Fe94      1.0  0.43693  0.41096  0.97111  1.0000
  S   S183      1.0  0.40639  0.39499  0.96550  1.0000
  Fe  Fe95      1.0  0.39175  0.42102  0.99342  1.0000
  Fe  Fe96      1.0  0.41397  0.45536  0.96441  1.0000
  S   S184      1.0  0.38157  0.44310  0.95822  1.0000
  C   C549      1.0  0.44457  0.36920  0.51614  1.0000
  Fe  Fe97      1.0  0.37067  0.58824  0.53762  1.0000
  S   S185      1.0  0.38003  0.41577  0.53115  1.0000
  Fe  Fe98      1.0  0.39927  0.41865  0.93094  1.0000
  S   S186      1.0  0.38951  0.40823  0.88811  1.0000
  H   H548      1.0  0.33098  0.65167  0.61457  1.0000
  S   S187      1.0  0.43107  0.43261  0.93459  1.0000
  Fe  Fe99      1.0  0.45836  0.54642  0.78647  1.0000
  S   S188      1.0  0.42298  0.55409  0.78898  1.0000
  S   S189      1.0  0.47588  0.51476  0.77547  1.0000
  Fe  Fe100     1.0  0.46873  0.59128  0.80460  1.0000
  H   H549      1.0  0.45143  0.53241  0.72344  1.0000
  Fe  Fe101     1.0  0.43001  0.57103  0.82852  1.0000
  Fe  Fe102     1.0  0.42946  0.58515  0.76882  1.0000
  S   S190      1.0  0.46505  0.56070  0.82774  1.0000
  S   S191      1.0  0.46459  0.57604  0.76294  1.0000
  Fe  Fe103     1.0  0.36950  0.44809  0.68329  1.0000
  S   S192      1.0  0.39027  0.41732  0.68353  1.0000
  S   S193      1.0  0.37045  0.46792  0.64419  1.0000
  Fe  Fe104     1.0  0.35973  0.44423  0.74559  1.0000
  S   S194      1.0  0.37942  0.41291  0.74870  1.0000
  Fe  Fe105     1.0  0.40299  0.42938  0.72357  1.0000
  S   S195      1.0  0.43789  0.42937  0.73459  1.0000
  Fe  Fe106     1.0  0.36380  0.40478  0.70864  1.0000
  S   S196      1.0  0.35314  0.37140  0.70122  1.0000
  S   S197      1.0  0.38400  0.46096  0.72185  1.0000
  C   C550      1.0  0.36886  0.37727  0.82353  1.0000
  C   C551      1.0  0.32580  0.36622  0.70191  1.0000
  C   C552      1.0  0.32006  0.34535  0.69673  1.0000
  C   C553      1.0  0.38774  0.54240  0.99565  1.0000
  C   C554      1.0  0.28229  0.35721  0.70116  1.0000
  C   C555      1.0  0.28807  0.37796  0.70704  1.0000
  C   C556      1.0  0.30972  0.38249  0.70728  1.0000
  C   C557      1.0  0.31833  0.37067  0.63303  1.0000
  H   H550      1.0  0.38706  0.47888  0.59114  1.0000
  H   H551      1.0  0.27569  0.39067  0.71091  1.0000
  H   H552      1.0  0.31390  0.39861  0.71135  1.0000
  C   C558      1.0  0.46399  0.49172  0.76441  1.0000
  C   C559      1.0  0.47755  0.47470  0.75426  1.0000
  C   C560      1.0  0.46926  0.45573  0.74553  1.0000
  C   C561      1.0  0.44727  0.45348  0.74681  1.0000
  C   C562      1.0  0.43356  0.47036  0.75751  1.0000
  C   C563      1.0  0.44192  0.48955  0.76626  1.0000
  H   H553      1.0  0.30629  0.40289  0.64321  1.0000
  H   H554      1.0  0.47997  0.44276  0.73753  1.0000
  H   H555      1.0  0.41666  0.46851  0.75953  1.0000
  H   H556      1.0  0.43137  0.50255  0.77442  1.0000
  C   C564      1.0  0.38011  0.42653  0.86232  1.0000
  C   C565      1.0  0.36041  0.43863  0.86505  1.0000
  C   C566      1.0  0.35076  0.44919  0.84194  1.0000
  C   C567      1.0  0.36072  0.44767  0.81601  1.0000
  C   C568      1.0  0.38115  0.43696  0.81392  1.0000
  C   C569      1.0  0.39061  0.42613  0.83681  1.0000
  H   H557      1.0  0.35198  0.43874  0.88453  1.0000
  H   H558      1.0  0.38953  0.43658  0.79449  1.0000
  H   H559      1.0  0.40578  0.41672  0.83443  1.0000
  C   C570      1.0  0.37821  0.43059  0.56239  1.0000
  C   C571      1.0  0.37053  0.42083  0.58602  1.0000
  C   C572      1.0  0.36852  0.43199  0.61126  1.0000
  C   C573      1.0  0.37410  0.45312  0.61308  1.0000
  C   C574      1.0  0.38222  0.46278  0.58961  1.0000
  C   C575      1.0  0.38426  0.45159  0.56429  1.0000
  H   H560      1.0  0.36590  0.40458  0.58476  1.0000
  H   H561      1.0  0.36227  0.42435  0.62916  1.0000
  H   H562      1.0  0.39037  0.45919  0.54627  1.0000
  C   C576      1.0  0.43219  0.58603  0.69287  1.0000
  H   H563      1.0  0.36709  0.35427  0.75985  1.0000
  H   H564      1.0  0.44403  0.58053  0.70809  1.0000
  H   H565      1.0  0.45247  0.57683  0.65826  1.0000
  H   H566      1.0  0.33505  0.45763  0.84386  1.0000
  H   H567      1.0  0.34646  0.40246  0.83791  1.0000
  C   C577      1.0  0.40062  0.50676  0.98051  1.0000
  H   H568      1.0  0.44617  0.61394  0.92274  1.0000
  C   C578      1.0  0.42819  0.47454  0.67602  1.0000
  H   H569      1.0  0.30596  0.40118  0.79327  1.0000
  H   H570      1.0  0.45437  0.37608  0.93081  1.0000
  S   S198      1.0  0.43384  0.60293  0.80886  1.0000
  S   S199      1.0  0.40677  0.63318  0.55590  1.0000
  Fe  Fe107     1.0  0.40478  0.61524  0.51599  1.0000
  S   S200      1.0  0.46902  0.39387  0.98239  1.0000
  H   H571      1.0  0.32884  0.64219  0.96238  1.0000
  H   H572      1.0  0.47131  0.64602  0.81382  1.0000
  C   C579      1.0  0.46998  0.36833  0.93587  1.0000
  C   C580      1.0  0.48085  0.37453  0.95951  1.0000
  N   N47       1.0  0.37932  0.65718  0.96972  1.0000
  H   H573      1.0  0.42731  0.46227  0.69239  1.0000
  H   H574      1.0  0.48149  0.45423  0.83616  1.0000
  N   N48       1.0  0.29177  0.34533  0.62690  1.0000
  S   S201      1.0  0.36884  0.61898  0.51359  1.0000
  H   H575      1.0  0.41348  0.38094  0.53152  1.0000
  S   S202      1.0  0.34215  0.43517  0.70674  1.0000
  C   C581      1.0  0.42995  0.59220  0.89682  1.0000
  C   C582      1.0  0.42184  0.59131  0.64462  1.0000
  H   H576      1.0  0.40133  0.50394  0.81861  1.0000
  C   C583      1.0  0.29837  0.34085  0.69623  1.0000
  H   H577      1.0  0.38885  0.35237  0.80329  1.0000
  H   H578      1.0  0.33506  0.37411  0.63430  1.0000
  C   C584      1.0  0.35975  0.52260  0.49839  1.0000
  C   C585      1.0  0.32115  0.40919  0.79329  1.0000
  C   C586      1.0  0.45754  0.40929  0.52932  1.0000
  H   H579      1.0  0.38943  0.53007  0.82698  1.0000
  C   C587      1.0  0.38728  0.51264  0.82872  1.0000
  H   H580      1.0  0.37516  0.53757  0.87177  1.0000
  H   H581      1.0  0.42680  0.54803  0.57942  1.0000
  H   H582      1.0  0.37820  0.37673  0.84256  1.0000
  H   H583      1.0  0.38401  0.62796  0.91083  1.0000
  H   H584      1.0  0.41332  0.53582  0.96652  1.0000
  H   H585      1.0  0.41506  0.55163  0.72282  1.0000
  N   N49       1.0  0.38566  0.50614  0.85765  1.0000
  C   C588      1.0  0.37889  0.52091  0.87730  1.0000
  C   C589      1.0  0.38990  0.48506  0.86460  1.0000
  C   C590      1.0  0.37668  0.51478  0.90483  1.0000
  C   C591      1.0  0.38780  0.47837  0.89194  1.0000
  C   C592      1.0  0.38095  0.49333  0.91205  1.0000
  H   H586      1.0  0.47062  0.34695  0.90084  1.0000
  C   C593      1.0  0.34484  0.37957  0.77521  1.0000
  H   H587      1.0  0.39470  0.47324  0.84893  1.0000
  H   H588      1.0  0.37166  0.52654  0.92050  1.0000
  H   H589      1.0  0.39122  0.46166  0.89749  1.0000
  H   H590      1.0  0.37897  0.48834  0.93325  1.0000
  H   H591      1.0  0.43955  0.35364  0.51025  1.0000
  C   C594      1.0  0.27585  0.36101  0.63238  1.0000
  S   S203      1.0  0.41929  0.49026  0.96170  1.0000
  H   H592      1.0  0.41594  0.47168  0.65996  1.0000
  H   H593      1.0  0.38802  0.56483  0.91724  1.0000
  H   H594      1.0  0.33562  0.38046  0.75620  1.0000
  C   C595      1.0  0.39701  0.60249  0.68123  1.0000
  C   C596      1.0  0.31282  0.34986  0.62750  1.0000
  C   C597      1.0  0.46562  0.37426  0.51139  1.0000
  H   H595      1.0  0.38495  0.53492  0.69997  1.0000
  C   C598      1.0  0.40182  0.60056  0.65295  1.0000
  C   C599      1.0  0.35093  0.39196  0.82072  1.0000
  H   H596      1.0  0.37249  0.50910  0.81730  1.0000
  S   S204      1.0  0.40650  0.58342  0.53689  1.0000
  H   H597      1.0  0.45918  0.32808  0.96659  1.0000
  C   C600      1.0  0.37643  0.63595  0.92862  1.0000
  Fe  Fe108     1.0  0.40509  0.60152  0.57686  1.0000
  H   H598      1.0  0.40525  0.64929  0.94211  1.0000
  N   N50       1.0  0.37408  0.52030  0.57143  1.0000
  C   C601      1.0  0.37578  0.53561  0.59135  1.0000
  C   C602      1.0  0.39087  0.51491  0.55406  1.0000
  C   C603      1.0  0.39483  0.54559  0.59475  1.0000
  C   C604      1.0  0.41006  0.52478  0.55664  1.0000
  C   C605      1.0  0.41209  0.54003  0.57734  1.0000
  C   C606      1.0  0.35390  0.51009  0.56859  1.0000
  H   H599      1.0  0.36226  0.54031  0.60455  1.0000
  H   H600      1.0  0.38942  0.50315  0.53782  1.0000
  H   H601      1.0  0.39610  0.55787  0.61041  1.0000
  H   H602      1.0  0.42310  0.52090  0.54234  1.0000
  C   C607      1.0  0.40157  0.52897  0.97943  1.0000
  H   H603      1.0  0.34918  0.50355  0.58880  1.0000
  H   H604      1.0  0.34107  0.52205  0.56112  1.0000
  H   H605      1.0  0.35526  0.49655  0.55365  1.0000
  N   N51       1.0  0.46205  0.48117  0.85202  1.0000
  C   C608      1.0  0.45777  0.47108  0.87618  1.0000
  C   C609      1.0  0.45652  0.50262  0.84894  1.0000
  C   C610      1.0  0.44835  0.48267  0.89832  1.0000
  C   C611      1.0  0.44696  0.51465  0.87065  1.0000
  C   C612      1.0  0.44288  0.50458  0.89550  1.0000
  C   C613      1.0  0.47183  0.46882  0.82891  1.0000
  H   H606      1.0  0.46184  0.45400  0.87861  1.0000
  H   H607      1.0  0.45974  0.51061  0.82973  1.0000
  H   H608      1.0  0.44551  0.47476  0.91769  1.0000
  H   H609      1.0  0.44299  0.53173  0.86838  1.0000
  H   H610      1.0  0.43564  0.51376  0.91263  1.0000
  H   H611      1.0  0.33244  0.33263  0.69284  1.0000
  H   H612      1.0  0.47681  0.36234  0.50187  1.0000
  C   C614      1.0  0.37481  0.36364  0.80154  1.0000
  N   N52       1.0  0.42467  0.49603  0.68810  1.0000
  C   C615      1.0  0.44134  0.50512  0.70077  1.0000
  C   C616      1.0  0.40457  0.50643  0.68788  1.0000
  C   C617      1.0  0.43819  0.52531  0.71325  1.0000
  C   C618      1.0  0.40086  0.52664  0.70019  1.0000
  C   C619      1.0  0.41779  0.53606  0.71298  1.0000
  C   C620      1.0  0.36543  0.54356  0.50271  1.0000
  H   H613      1.0  0.45714  0.49662  0.70171  1.0000
  H   H614      1.0  0.39125  0.49907  0.67830  1.0000
  C   C621      1.0  0.43650  0.40462  0.53485  1.0000
  H   H615      1.0  0.32058  0.42143  0.81001  1.0000
  C   C622      1.0  0.35489  0.63377  0.93436  1.0000
  C   C623      1.0  0.36263  0.36465  0.77726  1.0000
  H   H616      1.0  0.32248  0.41805  0.77355  1.0000
  H   H617      1.0  0.48289  0.47851  0.81725  1.0000
  N   N53       1.0  0.33949  0.39329  0.79653  1.0000
  Fe  Fe109     1.0  0.37075  0.63458  0.55525  1.0000
  H   H618      1.0  0.38152  0.60967  0.68763  1.0000
  H   H619      1.0  0.43992  0.59445  0.87903  1.0000
  N   N54       1.0  0.47175  0.39423  0.51758  1.0000
  S   S205      1.0  0.42840  0.58825  0.60945  1.0000
  C   C624      1.0  0.41361  0.57826  0.89523  1.0000
  H   H620      1.0  0.32062  0.64464  0.54157  1.0000
  H   H621      1.0  0.25924  0.35721  0.63335  1.0000
  H   H622      1.0  0.39407  0.58464  0.96066  1.0000
  C   C625      1.0  0.38840  0.64799  0.94646  1.0000
  H   H623      1.0  0.39011  0.60632  0.63765  1.0000
  S   S206      1.0  0.36917  0.60408  0.57943  1.0000
  S   S207      1.0  0.42507  0.61484  0.97520  1.0000
  S   S208      1.0  0.40896  0.56412  0.86461  1.0000
  C   C626      1.0  0.42069  0.60036  0.94475  1.0000
  S   S209      1.0  0.34679  0.45775  0.78629  1.0000
  S   S210      1.0  0.40544  0.59755  0.73650  1.0000
  H   H624      1.0  0.44418  0.47225  0.66611  1.0000
  H   H625      1.0  0.46233  0.42516  0.53406  1.0000
  C   C627      1.0  0.40073  0.57552  0.91836  1.0000
  H   H626      1.0  0.28227  0.65646  0.53269  1.0000
  C   C628      1.0  0.41219  0.59530  0.70126  1.0000
  C   C629      1.0  0.34554  0.64386  0.95759  1.0000
  C   C630      1.0  0.47919  0.35182  0.91897  1.0000
  C   C631      1.0  0.30217  0.38683  0.63817  1.0000
  S   S211      1.0  0.25480  0.35277  0.69909  1.0000
  H   H627      1.0  0.42516  0.41666  0.54390  1.0000
  H   H628      1.0  0.26812  0.39421  0.64298  1.0000
  H   H629      1.0  0.45918  0.46392  0.81455  1.0000
  C   C632      1.0  0.42995  0.38451  0.52797  1.0000
  C   C633      1.0  0.48780  0.65002  0.81494  1.0000
  H   H630      1.0  0.38876  0.55949  0.99504  1.0000
  H   H631      1.0  0.32552  0.33729  0.62432  1.0000
  H   H632      1.0  0.34587  0.51716  0.50859  1.0000
  H   H633      1.0  0.29412  0.32476  0.69208  1.0000
  H   H634      1.0  0.33349  0.65657  0.65121  1.0000
  C   C634      1.0  0.35804  0.65569  0.97507  1.0000
  Fe  Fe110     1.0  0.44766  0.92277  0.02946  1.0000
  S   S212      1.0  0.41229  0.92205  0.02180  1.0000
  C   C635      1.0  0.36122  0.88776  0.35198  1.0000
  C   C636      1.0  0.44699  0.97230  0.00564  1.0000
  S   S213      1.0  0.41849  0.87168  0.03832  1.0000
  C   C637      1.0  0.42043  0.98123  0.47078  1.0000
  S   S214      1.0  0.39070  0.90447  0.47010  1.0000
  Fe  Fe111     1.0  0.41262  0.90295  0.06083  1.0000
  S   S215      1.0  0.38652  0.90854  0.09286  1.0000
  H   H635      1.0  0.41609  0.98676  0.39752  1.0000
  N   N55       1.0  0.44608  0.97426  0.41476  1.0000
  Fe  Fe112     1.0  0.39347  0.93187  0.31422  1.0000
  S   S216      1.0  0.35900  0.94339  0.32002  1.0000
  S   S217      1.0  0.41815  0.92469  0.34792  1.0000
  Fe  Fe113     1.0  0.39035  0.93446  0.25144  1.0000
  S   S218      1.0  0.35546  0.94600  0.25213  1.0000
  S   S219      1.0  0.41255  0.93373  0.21455  1.0000
  Fe  Fe114     1.0  0.36466  0.96725  0.28682  1.0000
  C   C638      1.0  0.27970  0.80744  0.20671  1.0000
  Fe  Fe115     1.0  0.35250  0.92096  0.28513  1.0000
  S   S220      1.0  0.32145  0.90445  0.28752  1.0000
  S   S221      1.0  0.39968  0.95768  0.28400  1.0000
  S   S222      1.0  0.38691  0.90752  0.28154  1.0000
  C   C639      1.0  0.44129  0.88410  0.18070  1.0000
  S   S223      1.0  0.29766  0.81342  0.33099  1.0000
  N   N56       1.0  0.37915  0.66847  0.48519  1.0000
  C   C640      1.0  0.26294  0.82273  0.21328  1.0000
  C   C641      1.0  0.42621  0.97141  0.39946  1.0000
  H   H636      1.0  0.24759  0.86093  0.24567  1.0000
  Fe  Fe116     1.0  0.42189  0.89120  0.99997  1.0000
  S   S224      1.0  0.25408  0.76889  0.15455  1.0000
  H   H637      1.0  0.27088  0.72349  0.01746  1.0000
  C   C642      1.0  0.29246  0.79810  0.22786  1.0000
  Fe  Fe117     1.0  0.26336  0.80444  0.33623  1.0000
  H   H638      1.0  0.42008  0.98047  0.19337  1.0000
  H   H639      1.0  0.43048  0.84953  0.09408  1.0000
  C   C643      1.0  0.28738  0.66300  0.05132  1.0000
  C   C644      1.0  0.47531  0.95949  0.44298  1.0000
  C   C645      1.0  0.25643  0.76186  0.44730  1.0000
  S   S225      1.0  0.25510  0.79295  0.01569  1.0000
  H   H640      1.0  0.28231  0.80240  0.18540  1.0000
  S   S226      1.0  0.44725  0.90592  0.07025  1.0000
  N   N57       1.0  0.42598  0.86447  0.13379  1.0000
  H   H641      1.0  0.30528  0.78599  0.22308  1.0000
  C   C646      1.0  0.45466  0.87989  0.15802  1.0000
  H   H642      1.0  0.26852  0.82413  0.28229  1.0000
  S   S227      1.0  0.25306  0.69301  0.05733  1.0000
  H   H643      1.0  0.40950  0.88231  0.19687  1.0000
  H   H644      1.0  0.31655  0.90281  0.38571  1.0000
  Fe  Fe118     1.0  0.45346  0.87569  0.04550  1.0000
  H   H645      1.0  0.39601  0.86522  0.15468  1.0000
  C   C647      1.0  0.26484  0.75783  0.47370  1.0000
  N   N58       1.0  0.25891  0.82839  0.24019  1.0000
  C   C648      1.0  0.32478  0.67069  0.05466  1.0000
  C   C649      1.0  0.31810  0.69214  0.06046  1.0000
  C   C650      1.0  0.29620  0.69901  0.06185  1.0000
  C   C651      1.0  0.28072  0.68450  0.05724  1.0000
  C   C652      1.0  0.38442  0.65782  0.46115  1.0000
  C   C653      1.0  0.24407  0.74686  0.43474  1.0000
  H   H646      1.0  0.32993  0.70357  0.06397  1.0000
  H   H647      1.0  0.29138  0.71556  0.06642  1.0000
  H   H648      1.0  0.38432  0.97305  0.21111  1.0000
  S   S228      1.0  0.47139  0.84749  0.06685  1.0000
  C   C654      1.0  0.31554  0.87891  0.29951  1.0000
  C   C655      1.0  0.29402  0.87538  0.30465  1.0000
  C   C656      1.0  0.28837  0.85554  0.31459  1.0000
  C   C657      1.0  0.30418  0.83886  0.31922  1.0000
  C   C658      1.0  0.32573  0.84234  0.31408  1.0000
  C   C659      1.0  0.33142  0.86227  0.30422  1.0000
  H   H649      1.0  0.28165  0.88819  0.30114  1.0000
  H   H650      1.0  0.27177  0.85324  0.31881  1.0000
  H   H651      1.0  0.33806  0.82949  0.31750  1.0000
  H   H652      1.0  0.34799  0.86459  0.29983  1.0000
  H   H653      1.0  0.25606  0.82824  0.47654  1.0000
  H   H654      1.0  0.39987  0.69245  0.49577  1.0000
  C   C660      1.0  0.27155  0.81955  0.26099  1.0000
  H   H655      1.0  0.38504  0.67109  0.00929  1.0000
  H   H656      1.0  0.24540  0.70965  0.48485  1.0000
  H   H657      1.0  0.41634  0.96028  0.41065  1.0000
  C   C661      1.0  0.39316  0.91736  0.12624  1.0000
  C   C662      1.0  0.37812  0.91685  0.14761  1.0000
  C   C663      1.0  0.38350  0.92261  0.17476  1.0000
  C   C664      1.0  0.40395  0.92902  0.18054  1.0000
  C   C665      1.0  0.41867  0.93031  0.15899  1.0000
  C   C666      1.0  0.41335  0.92441  0.13198  1.0000
  H   H658      1.0  0.36239  0.91156  0.14327  1.0000
  H   H659      1.0  0.37203  0.92157  0.19126  1.0000
  H   H660      1.0  0.43453  0.93525  0.16336  1.0000
  H   H661      1.0  0.42496  0.92512  0.11574  1.0000
  C   C667      1.0  0.39893  0.91217  0.43713  1.0000
  C   C668      1.0  0.42014  0.90789  0.42858  1.0000
  C   C669      1.0  0.42581  0.91195  0.40116  1.0000
  C   C670      1.0  0.41039  0.92053  0.38225  1.0000
  C   C671      1.0  0.38933  0.92551  0.39102  1.0000
  C   C672      1.0  0.38360  0.92120  0.41837  1.0000
  H   H662      1.0  0.43199  0.90070  0.44282  1.0000
  H   H663      1.0  0.44212  0.90802  0.39443  1.0000
  H   H664      1.0  0.37738  0.93234  0.37670  1.0000
  H   H665      1.0  0.36717  0.92458  0.42494  1.0000
  H   H666      1.0  0.47103  0.88445  0.15842  1.0000
  H   H667      1.0  0.42998  0.96469  0.37862  1.0000
  C   C673      1.0  0.41267  0.86883  0.15576  1.0000
  H   H668      1.0  0.26910  0.68652  0.99933  1.0000
  H   H669      1.0  0.25285  0.82961  0.19676  1.0000
  C   C674      1.0  0.38888  0.87247  0.38259  1.0000
  H   H670      1.0  0.35651  0.89404  0.33181  1.0000
  C   C675      1.0  0.26095  0.73887  0.48713  1.0000
  H   H671      1.0  0.29827  0.79722  0.27193  1.0000
  H   H672      1.0  0.40548  0.86541  0.09877  1.0000
  H   H673      1.0  0.31487  0.88071  0.36173  1.0000
  H   H674      1.0  0.34076  0.87913  0.41462  1.0000
  S   S229      1.0  0.25094  0.78945  0.37463  1.0000
  N   N59       1.0  0.34648  0.88738  0.37270  1.0000
  C   C676      1.0  0.44671  0.86999  0.13459  1.0000
  H   H675      1.0  0.45720  0.86686  0.11702  1.0000
  C   C677      1.0  0.38695  0.98882  0.20318  1.0000
  C   C678      1.0  0.42018  0.87845  0.17965  1.0000
  H   H676      1.0  0.25904  0.77675  0.43689  1.0000
  S   S230      1.0  0.35257  0.66330  0.05272  1.0000
  H   H677      1.0  0.40558  0.86740  0.38675  1.0000
  C   C679      1.0  0.28846  0.80426  0.25520  1.0000
  H   H678      1.0  0.44700  0.89228  0.19878  1.0000
  H   H679      1.0  0.40162  0.94911  0.07226  1.0000
  H   H680      1.0  0.39445  0.88134  0.34040  1.0000
  H   H681      1.0  0.41004  0.83945  0.11493  1.0000
  H   H682      1.0  0.37856  0.86655  0.42410  1.0000
  H   H683      1.0  0.25993  0.75953  0.21162  1.0000
  S   S231      1.0  0.45748  0.89289  0.00529  1.0000
  C   C680      1.0  0.35241  0.87943  0.39815  1.0000
  C   C681      1.0  0.43406  0.96765  0.48704  1.0000
  C   C682      1.0  0.38263  0.88035  0.35660  1.0000
  H   H684      1.0  0.40801  0.97464  0.45852  1.0000
  C   C683      1.0  0.34181  0.66444  0.47665  1.0000
  C   C684      1.0  0.39332  0.97855  0.05008  1.0000
  C   C685      1.0  0.45678  0.95702  0.42738  1.0000
  H   H685      1.0  0.37914  0.97258  0.04078  1.0000
  H   H686      1.0  0.45054  0.94140  0.42639  1.0000
  S   S232      1.0  0.46297  0.95397  0.02565  1.0000
  H   H687      1.0  0.32243  0.90632  0.34998  1.0000
  C   C686      1.0  0.35813  0.67245  0.49255  1.0000
  C   C687      1.0  0.41761  0.85422  0.10918  1.0000
  H   H688      1.0  0.27398  0.76961  0.48396  1.0000
  S   S233      1.0  0.26365  0.75396  0.07741  1.0000
  H   H689      1.0  0.47701  0.68333  0.32935  1.0000
  C   C688      1.0  0.32398  0.89464  0.36731  1.0000
  H   H690      1.0  0.48313  0.94598  0.45412  1.0000
  C   C689      1.0  0.37371  0.87198  0.40354  1.0000
  C   C690      1.0  0.24617  0.77108  0.20982  1.0000
  C   C691      1.0  0.48933  0.67142  0.32248  1.0000
  S   S234      1.0  0.25204  0.77846  0.30887  1.0000
  C   C692      1.0  0.40602  0.96515  0.06776  1.0000
  C   C693      1.0  0.42460  0.97242  0.07923  1.0000
  H   H691      1.0  0.32522  0.66704  0.48314  1.0000
  H   H692      1.0  0.43500  0.96189  0.09213  1.0000
  C   C694      1.0  0.24852  0.72422  0.47400  1.0000
  C   C695      1.0  0.48309  0.97968  0.44517  1.0000
  H   H693      1.0  0.43260  0.95061  0.48629  1.0000
  C   C696      1.0  0.26585  0.72092  0.99628  1.0000
  C   C697      1.0  0.25151  0.80506  0.96159  1.0000
  S   S235      1.0  0.41328  0.93400  0.53089  1.0000
  C   C698      1.0  0.49059  0.84086  0.55587  1.0000
  C   C699      1.0  0.47097  0.97213  0.94513  1.0000
  S   S236      1.0  0.41225  0.88362  0.54301  1.0000
  C   C700      1.0  0.39609  0.67631  0.50266  1.0000
  S   S237      1.0  0.40810  0.88125  0.95895  1.0000
  Fe  Fe119     1.0  0.41429  0.91340  0.56829  1.0000
  S   S238      1.0  0.39034  0.92433  0.60111  1.0000
  C   C701      1.0  0.39085  0.86843  0.61865  1.0000
  H   H694      1.0  0.24928  0.77236  0.75201  1.0000
  Fe  Fe120     1.0  0.38337  0.93843  0.81984  1.0000
  S   S239      1.0  0.34829  0.94769  0.81478  1.0000
  S   S240      1.0  0.39787  0.94794  0.86053  1.0000
  Fe  Fe121     1.0  0.38762  0.92338  0.76031  1.0000
  S   S241      1.0  0.35268  0.93118  0.75101  1.0000
  S   S242      1.0  0.41234  0.91224  0.72819  1.0000
  Fe  Fe122     1.0  0.35691  0.96155  0.77427  1.0000
  C   C702      1.0  0.31448  0.66082  0.54664  1.0000
  Fe  Fe123     1.0  0.34697  0.91641  0.79234  1.0000
  S   S243      1.0  0.31628  0.90047  0.80041  1.0000
  S   S244      1.0  0.39217  0.95497  0.78083  1.0000
  S   S245      1.0  0.38179  0.90598  0.80022  1.0000
  H   H695      1.0  0.42807  0.85793  0.59352  1.0000
  S   S246      1.0  0.29930  0.80519  0.83296  1.0000
  H   H696      1.0  0.26084  0.71781  0.63125  1.0000
  H   H697      1.0  0.24931  0.81406  0.91865  1.0000
  C   C703      1.0  0.35278  0.89569  0.91732  1.0000
  H   H698      1.0  0.25321  0.80935  0.76650  1.0000
  Fe  Fe124     1.0  0.26496  0.79613  0.83657  1.0000
  C   C704      1.0  0.25121  0.76741  0.70811  1.0000
  S   S247      1.0  0.25186  0.78246  0.87514  1.0000
  H   H699      1.0  0.43576  0.86562  0.69467  1.0000
  H   H700      1.0  0.48561  0.80906  0.57004  1.0000
  N   N60       1.0  0.41207  0.86516  0.63166  1.0000
  H   H701      1.0  0.41124  0.96486  0.58721  1.0000
  H   H702      1.0  0.40016  0.87111  0.67247  1.0000
  S   S248      1.0  0.46280  0.84862  0.55496  1.0000
  C   C705      1.0  0.35287  0.87445  0.92619  1.0000
  S   S249      1.0  0.45011  0.91046  0.57154  1.0000
  C   C706      1.0  0.45025  0.95437  0.91235  1.0000
  C   C707      1.0  0.29971  0.83261  0.75762  1.0000
  C   C708      1.0  0.29119  0.85328  0.75120  1.0000
  C   C709      1.0  0.33152  0.66434  0.63067  1.0000
  N   N61       1.0  0.25555  0.84191  0.75531  1.0000
  H   H703      1.0  0.26881  0.80489  0.96221  1.0000
  C   C710      1.0  0.33109  0.88822  0.87864  1.0000
  N   N62       1.0  0.46368  0.95368  0.93478  1.0000
  H   H704      1.0  0.29401  0.72836  0.65355  1.0000
  H   H705      1.0  0.40848  0.66029  0.99159  1.0000
  H   H706      1.0  0.32276  0.89344  0.85985  1.0000
  C   C711      1.0  0.47066  0.93298  0.94731  1.0000
  H   H707      1.0  0.36170  0.90674  0.92917  1.0000
  H   H708      1.0  0.26247  0.87384  0.74535  1.0000
  C   C712      1.0  0.31994  0.69590  0.56509  1.0000
  C   C713      1.0  0.29831  0.70258  0.56016  1.0000
  H   H709      1.0  0.36192  0.86922  0.94452  1.0000
  H   H710      1.0  0.34708  0.93534  0.90048  1.0000
  S   S250      1.0  0.35505  0.66724  0.56634  1.0000
  H   H711      1.0  0.33038  0.70696  0.57427  1.0000
  H   H712      1.0  0.29225  0.71864  0.56561  1.0000
  S   S251      1.0  0.46596  0.95887  0.52500  1.0000
  C   C714      1.0  0.41813  0.97948  0.97263  1.0000
  C   C715      1.0  0.31261  0.87400  0.81059  1.0000
  C   C716      1.0  0.29184  0.86907  0.81749  1.0000
  C   C717      1.0  0.28773  0.84818  0.82499  1.0000
  C   C718      1.0  0.30437  0.83193  0.82561  1.0000
  C   C719      1.0  0.32532  0.83694  0.81939  1.0000
  C   C720      1.0  0.32947  0.85795  0.81187  1.0000
  H   H713      1.0  0.27876  0.88148  0.81684  1.0000
  H   H714      1.0  0.27165  0.84469  0.83017  1.0000
  H   H715      1.0  0.33832  0.82445  0.81995  1.0000
  H   H716      1.0  0.34558  0.86163  0.80675  1.0000
  H   H717      1.0  0.40596  0.97370  0.95924  1.0000
  H   H718      1.0  0.37849  0.98813  0.83187  1.0000
  H   H719      1.0  0.25776  0.68106  0.95054  1.0000
  H   H720      1.0  0.44507  0.93970  0.90351  1.0000
  C   C721      1.0  0.43149  0.96498  0.98795  1.0000
  C   C722      1.0  0.39801  0.97644  0.70276  1.0000
  C   C723      1.0  0.39716  0.92243  0.63636  1.0000
  C   C724      1.0  0.41835  0.91799  0.64522  1.0000
  C   C725      1.0  0.42295  0.91560  0.67358  1.0000
  C   C726      1.0  0.40637  0.91730  0.69309  1.0000
  C   C727      1.0  0.38529  0.92221  0.68417  1.0000
  C   C728      1.0  0.38072  0.92489  0.65593  1.0000
  H   H721      1.0  0.43116  0.91616  0.63029  1.0000
  H   H722      1.0  0.43934  0.91197  0.68038  1.0000
  H   H723      1.0  0.37238  0.92346  0.69889  1.0000
  H   H724      1.0  0.36429  0.92836  0.64918  1.0000
  C   C729      1.0  0.40627  0.89983  0.93162  1.0000
  C   C730      1.0  0.40552  0.92185  0.93673  1.0000
  C   C731      1.0  0.40245  0.93640  0.91477  1.0000
  C   C732      1.0  0.40048  0.92909  0.88754  1.0000
  C   C733      1.0  0.40109  0.90708  0.88240  1.0000
  C   C734      1.0  0.40396  0.89250  0.90441  1.0000
  H   H725      1.0  0.40671  0.92765  0.95768  1.0000
  H   H726      1.0  0.40156  0.95343  0.91883  1.0000
  H   H727      1.0  0.39963  0.90126  0.86147  1.0000
  H   H728      1.0  0.40435  0.87547  0.90035  1.0000
  H   H729      1.0  0.32820  0.93037  0.87357  1.0000
  Fe  Fe125     1.0  0.41459  0.90417  0.50545  1.0000
  C   C735      1.0  0.27518  0.70690  0.63095  1.0000
  C   C736      1.0  0.26892  0.85768  0.75009  1.0000
  C   C737      1.0  0.38691  0.97762  0.55909  1.0000
  C   C738      1.0  0.43421  0.86358  0.67247  1.0000
  H   H730      1.0  0.46807  0.85619  0.66579  1.0000
  S   S252      1.0  0.26191  0.75477  0.57351  1.0000
  H   H731      1.0  0.34158  0.84347  0.91756  1.0000
  Fe  Fe126     1.0  0.44840  0.88179  0.54358  1.0000
  H   H732      1.0  0.26075  0.75444  0.98724  1.0000
  H   H733      1.0  0.47965  0.68412  0.81826  1.0000
  C   C739      1.0  0.41616  0.98622  0.69443  1.0000
  H   H734      1.0  0.35391  0.68153  0.51108  1.0000
  H   H735      1.0  0.37977  0.87924  0.63124  1.0000
  C   C740      1.0  0.31235  0.69861  0.64303  1.0000
  Fe  Fe127     1.0  0.24294  0.72746  0.56130  1.0000
  C   C741      1.0  0.29375  0.67318  0.61789  1.0000
  C   C742      1.0  0.40681  0.97748  0.57245  1.0000
  H   H736      1.0  0.37626  0.96519  0.56349  1.0000
  H   H737      1.0  0.29243  0.80077  0.76912  1.0000
  C   C743      1.0  0.27504  0.68702  0.61795  1.0000
  H   H738      1.0  0.43196  0.97795  0.69706  1.0000
  C   C744      1.0  0.41406  0.86672  0.65975  1.0000
  C   C745      1.0  0.34349  0.92412  0.88355  1.0000
  S   S253      1.0  0.25711  0.69599  0.54351  1.0000
  S   S254      1.0  0.45059  0.90011  0.50369  1.0000
  H   H739      1.0  0.32688  0.70329  0.65288  1.0000
  Fe  Fe128     1.0  0.44902  0.92895  0.53170  1.0000
  C   C746      1.0  0.29280  0.66754  0.54162  1.0000
  C   C747      1.0  0.28460  0.68838  0.54863  1.0000
  H   H740      1.0  0.38389  0.85282  0.61576  1.0000
  C   C748      1.0  0.26490  0.70017  0.98605  1.0000
  H   H741      1.0  0.36359  0.98000  0.70665  1.0000
  C   C749      1.0  0.45231  0.85848  0.65628  1.0000
  N   N63       1.0  0.34205  0.90229  0.89377  1.0000
  H   H742      1.0  0.44760  0.97518  0.58531  1.0000
  C   C750      1.0  0.33054  0.86693  0.88711  1.0000
  H   H743      1.0  0.46398  0.85231  0.61487  1.0000
  C   C751      1.0  0.49258  0.67156  0.81759  1.0000
  H   H744      1.0  0.26723  0.73566  0.50780  1.0000
  C   C752      1.0  0.32803  0.67499  0.55859  1.0000
  H   H745      1.0  0.31694  0.82910  0.75932  1.0000
  H   H746      1.0  0.32175  0.85584  0.87508  1.0000
  H   H747      1.0  0.39963  0.96063  0.71207  1.0000
  C   C753      1.0  0.34161  0.86001  0.91097  1.0000
  H   H748      1.0  0.39461  0.68519  0.97988  1.0000
  C   C754      1.0  0.28597  0.81670  0.76310  1.0000
  C   C755      1.0  0.42966  0.85970  0.61572  1.0000
  S   S255      1.0  0.25334  0.76967  0.81019  1.0000
  C   C756      1.0  0.44999  0.97593  0.50324  1.0000
  H   H749      1.0  0.39115  0.67713  0.52473  1.0000
  C   C757      1.0  0.26381  0.82168  0.76187  1.0000
  H   H750      1.0  0.39192  0.87635  0.59824  1.0000
  C   C758      1.0  0.29391  0.71281  0.64354  1.0000
  S   S256      1.0  0.25481  0.76083  0.65238  1.0000
  H   H751      1.0  0.30177  0.86596  0.74793  1.0000
  N   N64       1.0  0.25337  0.73522  0.95260  1.0000
  C   C759      1.0  0.45004  0.85640  0.62773  1.0000
  C   C760      1.0  0.26000  0.73836  0.97916  1.0000
  C   C761      1.0  0.44248  0.97401  0.90099  1.0000
  C   C762      1.0  0.25292  0.71495  0.94214  1.0000
  H   H752      1.0  0.26067  0.68256  0.60745  1.0000
  H   H753      1.0  0.26698  0.75901  0.70921  1.0000
  H   H754      1.0  0.35654  0.92413  0.86809  1.0000
  H   H755      1.0  0.43023  0.94806  0.98535  1.0000
  H   H756      1.0  0.29359  0.65788  0.60735  1.0000
  H   H757      1.0  0.41091  0.66522  0.50179  1.0000
  H   H758      1.0  0.26075  0.76350  0.93205  1.0000
  H   H759      1.0  0.47474  0.93485  0.96956  1.0000
  C   C763      1.0  0.25849  0.69711  0.95876  1.0000
  C   C764      1.0  0.39247  0.66911  0.98851  1.0000
  N   N65       1.0  0.31213  0.67913  0.63019  1.0000
  H   H760      1.0  0.43106  0.97448  0.88399  1.0000
  H   H761      1.0  0.24824  0.71250  0.92083  1.0000
  H   H762      1.0  0.45761  0.92191  0.94644  1.0000
  S   S257      1.0  0.24687  0.80035  0.52050  1.0000
  C   C765      1.0  0.37778  0.98725  0.69957  1.0000
  C   C766      1.0  0.24686  0.75384  0.93544  1.0000
  H   H763      1.0  0.34594  0.67300  0.62614  1.0000
  H   H764      1.0  0.48492  0.92555  0.93633  1.0000
  H   H765      1.0  0.48177  0.97159  0.96279  1.0000
  H   H766      1.0  0.35073  0.66323  0.99330  1.0000
  C   C767      1.0  0.61715  0.29857  0.39030  1.0000
  C   C768      1.0  0.49998  0.17309  0.19134  1.0000
  C   C769      1.0  0.66677  0.27895  0.22055  1.0000
  C   C770      1.0  0.54349  0.17824  0.25370  1.0000
  C   C771      1.0  0.65465  0.27297  0.49307  1.0000
  C   C772      1.0  0.67344  0.24409  0.06544  1.0000
  S   S258      1.0  0.73407  0.32072  0.08039  1.0000
  S   S259      1.0  0.70747  0.24234  0.35952  1.0000
  C   C773      1.0  0.54505  0.15659  0.26105  1.0000
  Fe  Fe129     1.0  0.72362  0.30736  0.12094  1.0000
  H   H767      1.0  0.69663  0.25147  0.13950  1.0000
  H   H768      1.0  0.60655  0.30108  0.26820  1.0000
  H   H769      1.0  0.73320  0.19250  0.15920  1.0000
  C   C774      1.0  0.56684  0.23570  0.27654  1.0000
  H   H770      1.0  0.66193  0.29134  0.43983  1.0000
  H   H771      1.0  0.52289  0.22260  0.26347  1.0000
  S   S260      1.0  0.52521  0.25655  0.42723  1.0000
  C   C775      1.0  0.52147  0.17749  0.18704  1.0000
  S   S261      1.0  0.57664  0.25616  0.41902  1.0000
  H   H772      1.0  0.66601  0.23986  0.16653  1.0000
  C   C776      1.0  0.65127  0.29253  0.36652  1.0000
  Fe  Fe130     1.0  0.58117  0.19688  0.18153  1.0000
  S   S262      1.0  0.56663  0.23048  0.17347  1.0000
  S   S263      1.0  0.56535  0.16569  0.18670  1.0000
  Fe  Fe131     1.0  0.62688  0.21099  0.18730  1.0000
  S   S264      1.0  0.61586  0.24514  0.18012  1.0000
  S   S265      1.0  0.66138  0.20075  0.19831  1.0000
  Fe  Fe132     1.0  0.58848  0.23958  0.20793  1.0000
  S   S266      1.0  0.58155  0.26499  0.24041  1.0000
  Fe  Fe133     1.0  0.59543  0.23313  0.14610  1.0000
  H   H773      1.0  0.53937  0.22788  0.05339  1.0000
  S   S267      1.0  0.60099  0.20607  0.21796  1.0000
  S   S268      1.0  0.60846  0.19886  0.15145  1.0000
  C   C777      1.0  0.68249  0.20983  0.17868  1.0000
  C   C778      1.0  0.71874  0.20309  0.16106  1.0000
  C   C779      1.0  0.70172  0.19685  0.17705  1.0000
  C   C780      1.0  0.52432  0.29685  0.02985  1.0000
  H   H774      1.0  0.70323  0.18156  0.18754  1.0000
  C   C781      1.0  0.57186  0.25680  0.27241  1.0000
  C   C782      1.0  0.56958  0.27155  0.29423  1.0000
  C   C783      1.0  0.56210  0.26531  0.32003  1.0000
  H   H775      1.0  0.56879  0.22422  0.25990  1.0000
  C   C784      1.0  0.55913  0.22952  0.30226  1.0000
  C   C785      1.0  0.58382  0.25007  0.07749  1.0000
  C   C786      1.0  0.56595  0.23802  0.07736  1.0000
  C   C787      1.0  0.55327  0.23710  0.05336  1.0000
  H   H776      1.0  0.56184  0.22954  0.09578  1.0000
  C   C788      1.0  0.52255  0.21237  0.24469  1.0000
  H   H777      1.0  0.67682  0.26596  0.44676  1.0000
  H   H778      1.0  0.61222  0.26757  0.33320  1.0000
  C   C789      1.0  0.53792  0.16111  0.18968  1.0000
  C   C790      1.0  0.53265  0.14033  0.19608  1.0000
  H   H779      1.0  0.68347  0.27277  0.22091  1.0000
  S   S269      1.0  0.70831  0.32394  0.15818  1.0000
  C   C791      1.0  0.71234  0.29477  0.43753  1.0000
  H   H780      1.0  0.50764  0.12003  0.20620  1.0000
  H   H781      1.0  0.54529  0.12758  0.19817  1.0000
  H   H782      1.0  0.60276  0.27045  0.05350  1.0000
  C   C792      1.0  0.61982  0.27698  0.34859  1.0000
  H   H783      1.0  0.70609  0.30130  0.41817  1.0000
  C   C793      1.0  0.68952  0.21333  0.08836  1.0000
  H   H784      1.0  0.66959  0.19801  0.11747  1.0000
  C   C794      1.0  0.65683  0.28481  0.19554  1.0000
  H   H785      1.0  0.66577  0.28325  0.17637  1.0000
  S   S270      1.0  0.70717  0.28099  0.10054  1.0000
  S   S271      1.0  0.54186  0.24726  0.99995  1.0000
  Fe  Fe134     1.0  0.55408  0.25668  0.45467  1.0000
  C   C795      1.0  0.73866  0.27211  0.46282  1.0000
  Fe  Fe135     1.0  0.54762  0.25920  0.39172  1.0000
  H   H786      1.0  0.66811  0.29508  0.36506  1.0000
  Fe  Fe136     1.0  0.73028  0.26792  0.36562  1.0000
  H   H787      1.0  0.64067  0.21519  0.34708  1.0000
  H   H788      1.0  0.55503  0.21325  0.30538  1.0000
  S   S272      1.0  0.73854  0.22890  0.12577  1.0000
  C   C796      1.0  0.63885  0.30228  0.38788  1.0000
  H   H789      1.0  0.52767  0.30754  0.04742  1.0000
  Fe  Fe137     1.0  0.72142  0.29149  0.06085  1.0000
  S   S273      1.0  0.55168  0.29234  0.45986  1.0000
  S   S274      1.0  0.59993  0.25218  0.10720  1.0000
  S   S275      1.0  0.70181  0.28857  0.02171  1.0000
  H   H790      1.0  0.72496  0.22746  0.06797  1.0000
  H   H791      1.0  0.61901  0.26692  0.44208  1.0000
  H   H792      1.0  0.63170  0.30059  0.28637  1.0000
  H   H793      1.0  0.67441  0.25713  0.05087  1.0000
  C   C797      1.0  0.65276  0.22542  0.09816  1.0000
  C   C798      1.0  0.72923  0.27901  0.48786  1.0000
  H   H794      1.0  0.71113  0.22049  0.03665  1.0000
  C   C799      1.0  0.50667  0.15867  0.26685  1.0000
  H   H795      1.0  0.50098  0.06924  0.09674  1.0000
  H   H796      1.0  0.56049  0.14738  0.26083  1.0000
  H   H797      1.0  0.59547  0.26185  0.48197  1.0000
  H   H798      1.0  0.60721  0.30032  0.21981  1.0000
  C   C800      1.0  0.51126  0.13598  0.20057  1.0000
  H   H799      1.0  0.64609  0.31247  0.40272  1.0000
  C   C801      1.0  0.73044  0.28008  0.43758  1.0000
  H   H800      1.0  0.66314  0.27742  0.26455  1.0000
  H   H801      1.0  0.70774  0.30084  0.25532  1.0000
  H   H802      1.0  0.71196  0.24804  0.04699  1.0000
  C   C802      1.0  0.62241  0.29197  0.27086  1.0000
  C   C803      1.0  0.52648  0.14676  0.26759  1.0000
  C   C804      1.0  0.55853  0.24800  0.02935  1.0000
  N   N66       1.0  0.52395  0.18971  0.25258  1.0000
  C   C805      1.0  0.67048  0.21086  0.10262  1.0000
  N   N67       1.0  0.63416  0.28953  0.24477  1.0000
  C   C806      1.0  0.71706  0.22271  0.14719  1.0000
  H   H803      1.0  0.58062  0.26842  0.01105  1.0000
  H   H804      1.0  0.69072  0.31534  0.21174  1.0000
  Fe  Fe138     1.0  0.69227  0.26475  0.32773  1.0000
  Fe  Fe139     1.0  0.73834  0.26183  0.10688  1.0000
  H   H805      1.0  0.56022  0.27683  0.33668  1.0000
  C   C807      1.0  0.58901  0.26102  0.05349  1.0000
  H   H806      1.0  0.72973  0.25451  0.23228  1.0000
  C   C808      1.0  0.63532  0.29270  0.19532  1.0000
  C   C809      1.0  0.69815  0.23624  0.14982  1.0000
  S   S276      1.0  0.71179  0.25039  0.29272  1.0000
  C   C810      1.0  0.60764  0.28603  0.37049  1.0000
  C   C811      1.0  0.55663  0.24435  0.32402  1.0000
  Fe  Fe140     1.0  0.73431  0.27512  0.30335  1.0000
  C   C812      1.0  0.68075  0.22966  0.16519  1.0000
  S   S277      1.0  0.65680  0.26733  0.32007  1.0000
  H   H807      1.0  0.59082  0.28343  0.37188  1.0000
  C   C813      1.0  0.65418  0.24215  0.07947  1.0000
  S   S278      1.0  0.54632  0.23629  0.35570  1.0000
  H   H808      1.0  0.52084  0.28100  0.03827  1.0000
  N   N68       1.0  0.66240  0.21269  0.28312  1.0000
  C   C814      1.0  0.64508  0.22091  0.26810  1.0000
  C   C815      1.0  0.66093  0.21043  0.31115  1.0000
  C   C816      1.0  0.62569  0.22718  0.28109  1.0000
  C   C817      1.0  0.64169  0.21650  0.32481  1.0000
  C   C818      1.0  0.62395  0.22486  0.30960  1.0000
  C   C819      1.0  0.68219  0.20533  0.26868  1.0000
  H   H809      1.0  0.64616  0.22261  0.24590  1.0000
  H   H810      1.0  0.67470  0.20412  0.32316  1.0000
  H   H811      1.0  0.61214  0.23385  0.26908  1.0000
  C   C820      1.0  0.62408  0.29471  0.22024  1.0000
  H   H812      1.0  0.60898  0.22982  0.31992  1.0000
  H   H813      1.0  0.69610  0.20300  0.28310  1.0000
  H   H814      1.0  0.68003  0.18988  0.25804  1.0000
  H   H815      1.0  0.68611  0.21716  0.25281  1.0000
  N   N69       1.0  0.69083  0.22986  0.07019  1.0000
  C   C821      1.0  0.73979  0.29946  0.23908  1.0000
  C   C822      1.0  0.65518  0.28159  0.24514  1.0000
  Fe  Fe141     1.0  0.57196  0.29189  0.42157  1.0000
  H   H816      1.0  0.64040  0.25351  0.07592  1.0000
  S   S279      1.0  0.60228  0.30861  0.41882  1.0000
  C   C823      1.0  0.71067  0.23151  0.05466  1.0000
  H   H817      1.0  0.63795  0.22379  0.10925  1.0000
  C   C824      1.0  0.70313  0.30198  0.46277  1.0000
  H   H818      1.0  0.55795  0.18556  0.24791  1.0000
  C   C825      1.0  0.50571  0.18030  0.25944  1.0000
  H   H819      1.0  0.49427  0.21319  0.49107  1.0000
  H   H820      1.0  0.57344  0.28789  0.29122  1.0000
  H   H821      1.0  0.53916  0.29453  0.01730  1.0000
  H   H822      1.0  0.52534  0.19352  0.18188  1.0000
  H   H823      1.0  0.51711  0.22096  0.47194  1.0000
  S   S280      1.0  0.71339  0.29150  0.33604  1.0000
  H   H824      1.0  0.70338  0.20218  0.09232  1.0000
  Fe  Fe142     1.0  0.52412  0.29250  0.42982  1.0000
  C   C826      1.0  0.64173  0.27982  0.34690  1.0000
  S   S281      1.0  0.55951  0.23181  0.48821  1.0000
  C   C827      1.0  0.57647  0.25993  0.02943  1.0000
  S   S282      1.0  0.54422  0.29523  0.39164  1.0000
  C   C828      1.0  0.71748  0.30352  0.23746  1.0000
  H   H825      1.0  0.62729  0.29689  0.17592  1.0000
  H   H826      1.0  0.52739  0.12986  0.27271  1.0000
  N   N70       1.0  0.64663  0.27113  0.46690  1.0000
  C   C829      1.0  0.72045  0.31499  0.18955  1.0000
  C   C830      1.0  0.74223  0.22146  0.23530  1.0000
  H   H827      1.0  0.61955  0.27597  0.27925  1.0000
  Fe  Fe143     1.0  0.72924  0.23044  0.32514  1.0000
  C   C831      1.0  0.71176  0.29435  0.48808  1.0000
  C   C832      1.0  0.70788  0.31165  0.21282  1.0000
  H   H828      1.0  0.65408  0.26711  0.42396  1.0000
  S   S283      1.0  0.73776  0.19520  0.31830  1.0000
  H   H829      1.0  0.68966  0.31395  0.46269  1.0000
  C   C833      1.0  0.62555  0.26759  0.46283  1.0000
  C   C834      1.0  0.61211  0.26492  0.48534  1.0000
  C   C835      1.0  0.66055  0.27399  0.44318  1.0000
  N   N71       1.0  0.50633  0.30556  0.01266  1.0000
  C   C836      1.0  0.49872  0.26524  0.49046  1.0000
  H   H830      1.0  0.49883  0.07884  0.14653  1.0000
  H   H831      1.0  0.73382  0.21839  0.25422  1.0000
  H   H832      1.0  0.53606  0.21591  0.23103  1.0000
  C   C837      1.0  0.73994  0.24165  0.22302  1.0000
  C   C838      1.0  0.50112  0.22666  0.48028  1.0000
  C   C839      1.0  0.74273  0.31119  0.19151  1.0000
  H   H833      1.0  0.50755  0.21675  0.23290  1.0000
  C   C840      1.0  0.49481  0.15235  0.19839  1.0000
  C   C841      1.0  0.49544  0.08538  0.10297  1.0000
  C   C842      1.0  0.49424  0.32374  0.02053  1.0000
  C   C843      1.0  0.49420  0.09077  0.13094  1.0000
  Fe  Fe144     1.0  0.70739  0.25209  0.83484  1.0000
  C   C844      1.0  0.68735  0.22996  0.62591  1.0000
  C   C845      1.0  0.71822  0.27727  0.94152  1.0000
  S   S284      1.0  0.73028  0.23702  0.80354  1.0000
  C   C846      1.0  0.58168  0.26151  0.80101  1.0000
  C   C847      1.0  0.70729  0.27779  0.96693  1.0000
  C   C848      1.0  0.74198  0.30309  0.69234  1.0000
  S   S285      1.0  0.73034  0.22528  0.61027  1.0000
  S   S286      1.0  0.56420  0.28902  0.89060  1.0000
  H   H834      1.0  0.66503  0.28536  0.91993  1.0000
  H   H835      1.0  0.65355  0.16644  0.62872  1.0000
  H   H836      1.0  0.51378  0.25284  0.86642  1.0000
  S   S287      1.0  0.72610  0.23890  0.87151  1.0000
  H   H837      1.0  0.58926  0.27626  0.79811  1.0000
  H   H838      1.0  0.64677  0.22220  0.73242  1.0000
  C   C849      1.0  0.57568  0.25562  0.82759  1.0000
  Fe  Fe145     1.0  0.71992  0.30293  0.62343  1.0000
  H   H839      1.0  0.69212  0.30275  0.71968  1.0000
  S   S288      1.0  0.58015  0.25034  0.93454  1.0000
  H   H840      1.0  0.72124  0.25889  0.69774  1.0000
  C   C850      1.0  0.62432  0.15939  0.60793  1.0000
  Fe  Fe146     1.0  0.57058  0.19611  0.67735  1.0000
  S   S289      1.0  0.55534  0.22995  0.67925  1.0000
  S   S290      1.0  0.55639  0.16377  0.67694  1.0000
  Fe  Fe147     1.0  0.61620  0.21060  0.67432  1.0000
  S   S291      1.0  0.60472  0.24517  0.67567  1.0000
  S   S292      1.0  0.65079  0.19755  0.67842  1.0000
  Fe  Fe148     1.0  0.58226  0.23594  0.70862  1.0000
  S   S293      1.0  0.58191  0.25858  0.74496  1.0000
  Fe  Fe149     1.0  0.57903  0.23653  0.64608  1.0000
  C   C851      1.0  0.66955  0.22367  0.64075  1.0000
  S   S294      1.0  0.59559  0.20174  0.70958  1.0000
  S   S295      1.0  0.59247  0.20233  0.64185  1.0000
  C   C852      1.0  0.67182  0.20559  0.65780  1.0000
  C   C853      1.0  0.70922  0.19971  0.64434  1.0000
  C   C854      1.0  0.69169  0.19372  0.65954  1.0000
  H   H841      1.0  0.72445  0.19027  0.64578  1.0000
  H   H842      1.0  0.69359  0.17974  0.67268  1.0000
  C   C855      1.0  0.57730  0.24878  0.77816  1.0000
  C   C856      1.0  0.56775  0.22960  0.78211  1.0000
  C   C857      1.0  0.56161  0.22379  0.80879  1.0000
  H   H843      1.0  0.56431  0.21969  0.76453  1.0000
  H   H844      1.0  0.55363  0.20927  0.81172  1.0000
  C   C858      1.0  0.56929  0.25224  0.57777  1.0000
  C   C859      1.0  0.56967  0.23055  0.57079  1.0000
  C   C860      1.0  0.56716  0.22444  0.54309  1.0000
  H   H845      1.0  0.57154  0.21852  0.58678  1.0000
  H   H846      1.0  0.56717  0.20765  0.53779  1.0000
  C   C861      1.0  0.50985  0.27866  0.53458  1.0000
  H   H847      1.0  0.62676  0.25610  0.84015  1.0000
  C   C862      1.0  0.53002  0.15847  0.68644  1.0000
  C   C863      1.0  0.52518  0.13705  0.68905  1.0000
  Fe  Fe150     1.0  0.73218  0.25987  0.59852  1.0000
  S   S296      1.0  0.50939  0.31967  0.90513  1.0000
  H   H848      1.0  0.67225  0.23674  0.70208  1.0000
  H   H849      1.0  0.51730  0.19138  0.68872  1.0000
  H   H850      1.0  0.53762  0.12429  0.68586  1.0000
  H   H851      1.0  0.67329  0.20500  0.91351  1.0000
  H   H852      1.0  0.68011  0.22437  0.88807  1.0000
  H   H853      1.0  0.51122  0.28077  0.98252  1.0000
  S   S297      1.0  0.72128  0.28404  0.83517  1.0000
  H   H854      1.0  0.51289  0.29189  0.54819  1.0000
  C   C864      1.0  0.64267  0.23829  0.74164  1.0000
  S   S298      1.0  0.61954  0.29297  0.92948  1.0000
  H   H855      1.0  0.63019  0.30681  0.70742  1.0000
  H   H856      1.0  0.59677  0.20348  0.84592  1.0000
  C   C865      1.0  0.60969  0.21359  0.88468  1.0000
  C   C866      1.0  0.53469  0.30055  0.80958  1.0000
  C   C867      1.0  0.66303  0.25212  0.70334  1.0000
  C   C868      1.0  0.50163  0.29516  0.98876  1.0000
  S   S299      1.0  0.52931  0.26377  0.92531  1.0000
  H   H857      1.0  0.69163  0.27167  0.96813  1.0000
  Fe  Fe151     1.0  0.58502  0.28507  0.92845  1.0000
  C   C869      1.0  0.62351  0.27178  0.87978  1.0000
  H   H858      1.0  0.62264  0.27744  0.73912  1.0000
  S   S300      1.0  0.57095  0.26066  0.61229  1.0000
  C   C870      1.0  0.63952  0.29149  0.70614  1.0000
  C   C871      1.0  0.66828  0.27067  0.87974  1.0000
  H   H859      1.0  0.57906  0.26562  0.84491  1.0000
  C   C872      1.0  0.51132  0.24071  0.52530  1.0000
  H   H860      1.0  0.65943  0.30111  0.67282  1.0000
  C   C873      1.0  0.61117  0.20672  0.85729  1.0000
  Fe  Fe152     1.0  0.55769  0.25498  0.89842  1.0000
  H   H861      1.0  0.63248  0.19910  0.82323  1.0000
  H   H862      1.0  0.68545  0.24374  0.61262  1.0000
  H   H863      1.0  0.60998  0.26440  0.52979  1.0000
  C   C874      1.0  0.51380  0.17483  0.69074  1.0000
  C   C875      1.0  0.71960  0.30530  0.69353  1.0000
  C   C876      1.0  0.64162  0.27060  0.51607  1.0000
  C   C877      1.0  0.51661  0.26157  0.81010  1.0000
  C   C878      1.0  0.56671  0.26775  0.55693  1.0000
  H   H864      1.0  0.72870  0.24955  0.66404  1.0000
  H   H865      1.0  0.62692  0.22371  0.92020  1.0000
  H   H866      1.0  0.56637  0.28456  0.56229  1.0000
  C   C879      1.0  0.52431  0.29365  0.83308  1.0000
  H   H867      1.0  0.66399  0.23306  0.91689  1.0000
  C   C880      1.0  0.56429  0.23997  0.52230  1.0000
  H   H868      1.0  0.51020  0.24599  0.81043  1.0000
  C   C881      1.0  0.59831  0.14396  0.63685  1.0000
  H   H869      1.0  0.65221  0.23998  0.76087  1.0000
  H   H870      1.0  0.52360  0.30373  0.85138  1.0000
  S   S301      1.0  0.70082  0.30475  0.51950  1.0000
  S   S302      1.0  0.55879  0.29743  0.95765  1.0000
  H   H871      1.0  0.51598  0.22444  0.53184  1.0000
  N   N72       1.0  0.64786  0.21552  0.88645  1.0000
  C   C882      1.0  0.71644  0.28643  0.99062  1.0000
  H   H872      1.0  0.62539  0.23901  0.74710  1.0000
  H   H873      1.0  0.71096  0.27085  0.92329  1.0000
  C   C883      1.0  0.56425  0.26164  0.52925  1.0000
  S   S303      1.0  0.67194  0.24974  0.82987  1.0000
  H   H874      1.0  0.60078  0.15173  0.69927  1.0000
  C   C884      1.0  0.56513  0.23707  0.83150  1.0000
  C   C885      1.0  0.70728  0.21798  0.62772  1.0000
  H   H875      1.0  0.61846  0.12744  0.69666  1.0000
  C   C886      1.0  0.65660  0.27948  0.90229  1.0000
  Fe  Fe153     1.0  0.55249  0.26271  0.96084  1.0000
  S   S304      1.0  0.70215  0.28147  0.59592  1.0000
  H   H876      1.0  0.59317  0.15152  0.59370  1.0000
  H   H877      1.0  0.59111  0.12787  0.68497  1.0000
  H   H878      1.0  0.65421  0.23288  0.63918  1.0000
  C   C887      1.0  0.66771  0.26848  0.68523  1.0000
  N   N73       1.0  0.64687  0.25536  0.72220  1.0000
  C   C888      1.0  0.63515  0.26277  0.85736  1.0000
  C   C889      1.0  0.65755  0.26226  0.85726  1.0000
  H   H879      1.0  0.62897  0.16571  0.58820  1.0000
  C   C890      1.0  0.63814  0.15973  0.63059  1.0000
  S   S305      1.0  0.55579  0.23040  0.86436  1.0000
  H   H880      1.0  0.64230  0.15298  0.67381  1.0000
  C   C891      1.0  0.72156  0.29343  0.74160  1.0000
  C   C892      1.0  0.60427  0.15142  0.61101  1.0000
  C   C893      1.0  0.63118  0.20414  0.84464  1.0000
  C   C894      1.0  0.64951  0.20836  0.85974  1.0000
  H   H881      1.0  0.50105  0.11542  0.69839  1.0000
  H   H882      1.0  0.58247  0.13834  0.63924  1.0000
  H   H883      1.0  0.64809  0.27213  0.53677  1.0000
  C   C895      1.0  0.62829  0.21801  0.89904  1.0000
  C   C896      1.0  0.63167  0.15211  0.65611  1.0000
  C   C897      1.0  0.60533  0.13742  0.68629  1.0000
  C   C898      1.0  0.63532  0.27481  0.72399  1.0000
  H   H884      1.0  0.68560  0.27009  0.87997  1.0000
  Fe  Fe154     1.0  0.71799  0.29647  0.56009  1.0000
  H   H885      1.0  0.59415  0.21560  0.89459  1.0000
  H   H886      1.0  0.54205  0.31564  0.80984  1.0000
  H   H887      1.0  0.68042  0.26595  0.67013  1.0000
  C   C899      1.0  0.50439  0.13196  0.69607  1.0000
  C   C900      1.0  0.63415  0.28048  0.90209  1.0000
  H   H888      1.0  0.60629  0.27205  0.87967  1.0000
  H   H889      1.0  0.71364  0.28976  0.76062  1.0000
  H   H890      1.0  0.54422  0.29252  0.76776  1.0000
  H   H891      1.0  0.66502  0.20646  0.84969  1.0000
  C   C901      1.0  0.65583  0.28826  0.68667  1.0000
  C   C902      1.0  0.73812  0.28590  0.93960  1.0000
  C   C903      1.0  0.70941  0.30078  0.71840  1.0000
  N   N74       1.0  0.61202  0.14430  0.65896  1.0000
  H   H892      1.0  0.56189  0.27374  0.51346  1.0000
  C   C904      1.0  0.51435  0.25761  0.54350  1.0000
  C   C905      1.0  0.66727  0.21961  0.90206  1.0000
  H   H893      1.0  0.50303  0.27975  0.87396  1.0000
  Fe  Fe155     1.0  0.53739  0.29768  0.92006  1.0000
  C   C906      1.0  0.53576  0.28769  0.78595  1.0000
  N   N75       1.0  0.51534  0.27442  0.83303  1.0000
  C   C907      1.0  0.52661  0.26811  0.78614  1.0000
  H   H894      1.0  0.73575  0.27256  0.50691  1.0000
  S   S306      1.0  0.73194  0.32125  0.58733  1.0000
  H   H895      1.0  0.74127  0.24634  0.73770  1.0000
  H   H896      1.0  0.52109  0.25442  0.56395  1.0000
  C   C908      1.0  0.62024  0.26638  0.51213  1.0000
  C   C909      1.0  0.73660  0.29443  0.98883  1.0000
  H   H897      1.0  0.52798  0.25773  0.76812  1.0000
  C   C910      1.0  0.50454  0.26717  0.85767  1.0000
  S   S307      1.0  0.70430  0.31318  0.66395  1.0000
  C   C911      1.0  0.50199  0.28255  0.50788  1.0000
  H   H898      1.0  0.71445  0.23267  0.68645  1.0000
  H   H899      1.0  0.64933  0.31551  0.96701  1.0000
  H   H900      1.0  0.49873  0.29882  0.50039  1.0000
  N   N76       1.0  0.50341  0.24465  0.49925  1.0000
  C   C912      1.0  0.72683  0.24438  0.68577  1.0000
  H   H901      1.0  0.67526  0.31705  0.98201  1.0000
  Fe  Fe156     1.0  0.74194  0.26971  0.86972  1.0000
  H   H902      1.0  0.70493  0.32408  0.95374  1.0000
  H   H903      1.0  0.49318  0.07599  0.59329  1.0000
  C   C913      1.0  0.49290  0.16971  0.69740  1.0000
  H   H904      1.0  0.67121  0.27635  0.49630  1.0000
  H   H905      1.0  0.51728  0.34425  0.43753  1.0000
  C   C914      1.0  0.51264  0.61464  0.36716  1.0000
  C   C915      1.0  0.52698  0.63024  0.37234  1.0000
  C   C916      1.0  0.52097  0.64062  0.30477  1.0000
  H   H906      1.0  0.51812  0.59950  0.35758  1.0000
  H   H907      1.0  0.53333  0.62867  0.29809  1.0000
  C   C917      1.0  0.50064  0.35020  0.43964  1.0000
  N   N77       1.0  0.51984  0.64981  0.38290  1.0000
  C   C918      1.0  0.49506  0.37237  0.44197  1.0000
  C   C919      1.0  0.49961  0.63537  0.30595  1.0000
  H   H908      1.0  0.54374  0.62681  0.36716  1.0000
  H   H909      1.0  0.50752  0.38340  0.44168  1.0000
  H   H910      1.0  0.72845  0.34536  0.46630  1.0000
  C   C920      1.0  0.49866  0.65414  0.38934  1.0000
  H   H911      1.0  0.49806  0.33220  0.03926  1.0000
  C   C921      1.0  0.74183  0.33547  0.47503  1.0000
  S   S308      1.0  0.49409  0.60886  0.29777  1.0000
  H   H912      1.0  0.55365  0.65615  0.24528  1.0000
  H   H913      1.0  0.50280  0.40041  0.53186  1.0000
  C   C922      1.0  0.51020  0.34769  0.94917  1.0000
  H   H914      1.0  0.50960  0.36922  0.98410  1.0000
  C   C923      1.0  0.70285  0.32641  0.90960  1.0000
  H   H915      1.0  0.49706  0.62112  0.87738  1.0000
  C   C924      1.0  0.50110  0.36440  0.96588  1.0000
  H   H916      1.0  0.53865  0.62653  0.81584  1.0000
  C   C925      1.0  0.69414  0.32592  0.93613  1.0000
  C   C926      1.0  0.51345  0.62530  0.88017  1.0000
  C   C927      1.0  0.55150  0.61527  0.87981  1.0000
  H   H917      1.0  0.65847  0.34144  0.97571  1.0000
  C   C928      1.0  0.55526  0.63666  0.88489  1.0000
  S   S309      1.0  0.49969  0.60626  0.81495  1.0000
  H   H918      1.0  0.57169  0.64102  0.88682  1.0000
  H   H919      1.0  0.52720  0.59330  0.87221  1.0000
  C   C929      1.0  0.50442  0.63368  0.81447  1.0000
  C   C930      1.0  0.49373  0.39958  0.51218  1.0000
  H   H920      1.0  0.52566  0.33975  0.95445  1.0000
  C   C931      1.0  0.53044  0.60964  0.87720  1.0000
  C   C932      1.0  0.52572  0.63908  0.81613  1.0000
  H   H921      1.0  0.56482  0.60322  0.87748  1.0000
  H   H922      1.0  0.73353  0.34335  0.51721  1.0000
  C   C933      1.0  0.66345  0.32526  0.96749  1.0000
  H   H923      1.0  0.64162  0.33089  0.92039  1.0000
  C   C934      1.0  0.49917  0.34128  0.92577  1.0000
  N   N78       1.0  0.67241  0.32694  0.93973  1.0000
  C   C935      1.0  0.51779  0.64656  0.88497  1.0000
  C   C936      1.0  0.65887  0.32985  0.91752  1.0000
  H   H924      1.0  0.69577  0.32800  0.86603  1.0000
  H   H925      1.0  0.49465  0.47620  0.75304  1.0000
  H   H926      1.0  0.58338  0.65353  0.94095  1.0000
  N   N79       1.0  0.53849  0.65201  0.88684  1.0000
  C   C937      1.0  0.66703  0.33026  0.89067  1.0000
  H   H927      1.0  0.65621  0.33148  0.87306  1.0000
  C   C938      1.0  0.68918  0.32827  0.88674  1.0000
  H   H928      1.0  0.72011  0.32485  0.90677  1.0000
  H   H929      1.0  0.49349  0.41524  0.50132  1.0000
  H   H930      1.0  0.50234  0.38763  0.49833  1.0000
  Fe  Fe157     1.0  0.61751  0.74977  0.07196  1.0000
  S   S310      1.0  0.65257  0.75471  0.07180  1.0000
  Fe  Fe158     1.0  0.57544  0.77478  0.05637  1.0000
  S   S311      1.0  0.55609  0.74830  0.07058  1.0000
  S   S312      1.0  0.56342  0.80506  0.03395  1.0000
  H   H931      1.0  0.53521  0.77985  0.00202  1.0000
  C   C939      1.0  0.56432  0.70739  0.46013  1.0000
  S   S313      1.0  0.59588  0.77400  0.09452  1.0000
  S   S314      1.0  0.59887  0.75312  0.03237  1.0000
  S   S315      1.0  0.66627  0.81296  0.41632  1.0000
  S   S316      1.0  0.58724  0.78132  0.34924  1.0000
  C   C940      1.0  0.66738  0.76083  0.16293  1.0000
  H   H932      1.0  0.69483  0.76029  0.08939  1.0000
  H   H933      1.0  0.55695  0.68698  0.19531  1.0000
  H   H934      1.0  0.64344  0.71810  0.18554  1.0000
  S   S317      1.0  0.70990  0.76315  0.41732  1.0000
  C   C941      1.0  0.72170  0.70467  0.06233  1.0000
  Fe  Fe159     1.0  0.59455  0.70350  0.36483  1.0000
  H   H935      1.0  0.57032  0.67186  0.26672  1.0000
  H   H936      1.0  0.63185  0.75969  0.30549  1.0000
  S   S318      1.0  0.56665  0.74577  0.15163  1.0000
  C   C942      1.0  0.59736  0.71405  0.22917  1.0000
  C   C943      1.0  0.64491  0.80273  0.39795  1.0000
  C   C944      1.0  0.64416  0.78092  0.39162  1.0000
  C   C945      1.0  0.62623  0.77381  0.37740  1.0000
  C   C946      1.0  0.60946  0.78862  0.36876  1.0000
  C   C947      1.0  0.61038  0.81026  0.37533  1.0000
  C   C948      1.0  0.62780  0.81720  0.39013  1.0000
  H   H937      1.0  0.65721  0.76955  0.39789  1.0000
  H   H938      1.0  0.62557  0.75699  0.37283  1.0000
  H   H939      1.0  0.59747  0.82178  0.36897  1.0000
  H   H940      1.0  0.62814  0.83403  0.39517  1.0000
  C   C949      1.0  0.53781  0.81682  0.04301  1.0000
  C   C950      1.0  0.52615  0.80836  0.06431  1.0000
  C   C951      1.0  0.57265  0.76484  0.44386  1.0000
  C   C952      1.0  0.67529  0.72540  0.19673  1.0000
  C   C953      1.0  0.50844  0.84435  0.03533  1.0000
  C   C954      1.0  0.52889  0.83480  0.02847  1.0000
  H   H941      1.0  0.53288  0.79458  0.07572  1.0000
  C   C955      1.0  0.59794  0.71389  0.48227  1.0000
  C   C956      1.0  0.64892  0.75306  0.48231  1.0000
  C   C957      1.0  0.49687  0.83595  0.05684  1.0000
  N   N80       1.0  0.65204  0.74662  0.16597  1.0000
  H   H942      1.0  0.56515  0.75756  0.20851  1.0000
  C   C958      1.0  0.69864  0.71529  0.12867  1.0000
  C   C959      1.0  0.67813  0.70851  0.12382  1.0000
  C   C960      1.0  0.66362  0.72043  0.10634  1.0000
  C   C961      1.0  0.66967  0.73916  0.09393  1.0000
  C   C962      1.0  0.69015  0.74573  0.09869  1.0000
  C   C963      1.0  0.70463  0.73366  0.11561  1.0000
  H   H943      1.0  0.67347  0.69407  0.13356  1.0000
  H   H944      1.0  0.64792  0.71504  0.10239  1.0000
  H   H945      1.0  0.62550  0.73494  0.14451  1.0000
  S   S319      1.0  0.72151  0.80527  0.45317  1.0000
  H   H946      1.0  0.73815  0.72377  0.00194  1.0000
  S   S320      1.0  0.51745  0.70215  0.33273  1.0000
  H   H947      1.0  0.67841  0.71121  0.20937  1.0000
  C   C964      1.0  0.68713  0.75756  0.17662  1.0000
  Fe  Fe160     1.0  0.58260  0.74666  0.34079  1.0000
  H   H948      1.0  0.68713  0.72264  0.03772  1.0000
  H   H949      1.0  0.72062  0.73833  0.11801  1.0000
  N   N81       1.0  0.66099  0.79465  0.01191  1.0000
  H   H950      1.0  0.63280  0.76025  0.13283  1.0000
  S   S321      1.0  0.56487  0.73388  0.30451  1.0000
  H   H951      1.0  0.71770  0.76052  0.05296  1.0000
  C   C965      1.0  0.65563  0.72928  0.18298  1.0000
  C   C966      1.0  0.53488  0.71416  0.20384  1.0000
  H   H952      1.0  0.63501  0.79207  0.03985  1.0000
  C   C967      1.0  0.62379  0.79910  0.99862  1.0000
  H   H953      1.0  0.63521  0.74529  0.47454  1.0000
  S   S322      1.0  0.72461  0.80571  0.38543  1.0000
  C   C968      1.0  0.73894  0.71734  0.02275  1.0000
  H   H954      1.0  0.57711  0.66765  0.23145  1.0000
  C   C969      1.0  0.53517  0.66587  0.38834  1.0000
  H   H955      1.0  0.70665  0.73653  0.20344  1.0000
  H   H956      1.0  0.54041  0.73886  0.01375  1.0000
  C   C970      1.0  0.56880  0.79666  0.48392  1.0000
  C   C971      1.0  0.54791  0.69584  0.21125  1.0000
  S   S323      1.0  0.73359  0.74776  0.48711  1.0000
  H   H957      1.0  0.62620  0.70675  0.45723  1.0000
  C   C972      1.0  0.58400  0.79774  0.46294  1.0000
  H   H958      1.0  0.60696  0.79957  0.00424  1.0000
  H   H959      1.0  0.54288  0.66302  0.40888  1.0000
  Fe  Fe161     1.0  0.57860  0.74554  0.10732  1.0000
  Fe  Fe162     1.0  0.55208  0.71063  0.33430  1.0000
  H   H960      1.0  0.59737  0.70820  0.15875  1.0000
  S   S324      1.0  0.60694  0.70026  0.25926  1.0000
  C   C973      1.0  0.58589  0.78170  0.44280  1.0000
  H   H961      1.0  0.66458  0.77455  0.14941  1.0000
  C   C974      1.0  0.57518  0.70133  0.43569  1.0000
  C   C975      1.0  0.60248  0.70540  0.20295  1.0000
  H   H962      1.0  0.67558  0.79744  0.47142  1.0000
  S   S325      1.0  0.57111  0.69969  0.02150  1.0000
  C   C976      1.0  0.65398  0.77234  0.47040  1.0000
  C   C977      1.0  0.69113  0.73964  0.19344  1.0000
  C   C978      1.0  0.64712  0.76352  0.31419  1.0000
  Fe  Fe163     1.0  0.73593  0.77092  0.38816  1.0000
  H   H963      1.0  0.53962  0.69589  0.27971  1.0000
  H   H964      1.0  0.63782  0.79715  0.31681  1.0000
  Fe  Fe164     1.0  0.58108  0.72650  0.04893  1.0000
  H   H965      1.0  0.74200  0.69564  0.09729  1.0000
  C   C979      1.0  0.59401  0.71543  0.17875  1.0000
  S   S326      1.0  0.56603  0.72680  0.37101  1.0000
  C   C980      1.0  0.68554  0.77391  0.33740  1.0000
  H   H966      1.0  0.70005  0.72977  0.00671  1.0000
  C   C981      1.0  0.53837  0.70090  0.25834  1.0000
  H   H967      1.0  0.58050  0.74025  0.25077  1.0000
  H   H968      1.0  0.70070  0.77779  0.34631  1.0000
  H   H969      1.0  0.69525  0.74007  0.33573  1.0000
  H   H970      1.0  0.68157  0.81311  0.35890  1.0000
  H   H971      1.0  0.69945  0.76858  0.17373  1.0000
  Fe  Fe165     1.0  0.70039  0.79815  0.41718  1.0000
  C   C982      1.0  0.68256  0.75250  0.33134  1.0000
  H   H972      1.0  0.54721  0.75127  0.46565  1.0000
  H   H973      1.0  0.61259  0.69060  0.20140  1.0000
  H   H974      1.0  0.66053  0.73071  0.31526  1.0000
  C   C983      1.0  0.66317  0.74729  0.31976  1.0000
  C   C984      1.0  0.67150  0.78248  0.48043  1.0000
  H   H975      1.0  0.69508  0.70207  0.01256  1.0000
  S   S327      1.0  0.61166  0.72404  0.33568  1.0000
  C   C985      1.0  0.57573  0.74307  0.20681  1.0000
  H   H976      1.0  0.56631  0.69625  0.41797  1.0000
  N   N82       1.0  0.54977  0.68965  0.23830  1.0000
  S   S328      1.0  0.71681  0.70088  0.15085  1.0000
  N   N83       1.0  0.66956  0.78966  0.33239  1.0000
  C   C986      1.0  0.58034  0.73419  0.18067  1.0000
  S   S329      1.0  0.60178  0.72114  0.08708  1.0000
  N   N84       1.0  0.72061  0.71308  0.03627  1.0000
  C   C987      1.0  0.69970  0.71700  0.02259  1.0000
  C   C988      1.0  0.67315  0.81199  0.33875  1.0000
  C   C989      1.0  0.51080  0.67651  0.32173  1.0000
  C   C990      1.0  0.56328  0.67029  0.24574  1.0000
  C   C991      1.0  0.63138  0.75031  0.15162  1.0000
  C   C992      1.0  0.58425  0.73313  0.23090  1.0000
  H   H977      1.0  0.61923  0.75842  0.16560  1.0000
  Fe  Fe166     1.0  0.59310  0.70965  0.30140  1.0000
  H   H978      1.0  0.50171  0.85825  0.02416  1.0000
  H   H979      1.0  0.54706  0.70712  0.46099  1.0000
  S   S330      1.0  0.57965  0.68570  0.33003  1.0000
  H   H980      1.0  0.65777  0.82206  0.34078  1.0000
  C   C993      1.0  0.65062  0.78475  0.32060  1.0000
  C   C994      1.0  0.52522  0.71929  0.25172  1.0000
  C   C995      1.0  0.60890  0.70721  0.45796  1.0000
  S   S331      1.0  0.61133  0.69246  0.40423  1.0000
  H   H981      1.0  0.68298  0.81865  0.32234  1.0000
  H   H982      1.0  0.54778  0.66530  0.37221  1.0000
  H   H983      1.0  0.59745  0.78240  0.42626  1.0000
  Fe  Fe167     1.0  0.73308  0.77051  0.45091  1.0000
  C   C996      1.0  0.52361  0.72603  0.22427  1.0000
  C   C997      1.0  0.59752  0.70104  0.43454  1.0000
  C   C998      1.0  0.63975  0.79500  0.01875  1.0000
  H   H984      1.0  0.57403  0.75223  0.42836  1.0000
  H   H985      1.0  0.69193  0.79879  0.02898  1.0000
  H   H986      1.0  0.53408  0.71948  0.18248  1.0000
  C   C999      1.0  0.57561  0.71376  0.48347  1.0000
  H   H987      1.0  0.51653  0.72828  0.26791  1.0000
  C   C1000     1.0  0.55754  0.76435  0.46502  1.0000
  C   C1001     1.0  0.50579  0.81792  0.07122  1.0000
  H   H988      1.0  0.70724  0.70066  0.07274  1.0000
  N   N85       1.0  0.55596  0.78000  0.48486  1.0000
  C   C1002     1.0  0.74135  0.70168  0.07627  1.0000
  H   H989      1.0  0.59415  0.81098  0.46224  1.0000
  H   H990      1.0  0.49694  0.81136  0.08789  1.0000
  H   H991      1.0  0.49300  0.66962  0.39776  1.0000
  H   H992      1.0  0.53785  0.84146  0.01199  1.0000
  H   H993      1.0  0.54313  0.66459  0.31212  1.0000
  C   C1003     1.0  0.73412  0.76403  0.05015  1.0000
  H   H994      1.0  0.51382  0.74050  0.21884  1.0000
  C   C1004     1.0  0.52657  0.66102  0.31275  1.0000
  C   C1005     1.0  0.74110  0.76961  0.02391  1.0000
  C   C1006     1.0  0.67756  0.78994  0.03299  1.0000
  H   H995      1.0  0.49705  0.98190  0.45792  1.0000
  H   H996      1.0  0.68251  0.77251  0.03284  1.0000
  H   H997      1.0  0.52719  0.68239  0.38783  1.0000
  H   H998      1.0  0.64448  0.77941  0.45346  1.0000
  H   H999      1.0  0.73987  0.72547  0.30086  1.0000
  H   H1000     1.0  0.67166  0.79449  0.05397  1.0000
  S   S332      1.0  0.74041  0.74792  0.35214  1.0000
  C   C1007     1.0  0.74256  0.75695  0.31797  1.0000
  C   C1008     1.0  0.74230  0.74201  0.29636  1.0000
  Fe  Fe168     1.0  0.61478  0.75491  0.57682  1.0000
  S   S333      1.0  0.65058  0.75530  0.57406  1.0000
  Fe  Fe169     1.0  0.57393  0.78461  0.57055  1.0000
  S   S334      1.0  0.55325  0.75764  0.57754  1.0000
  S   S335      1.0  0.56240  0.81867  0.55877  1.0000
  Fe  Fe170     1.0  0.57653  0.74732  0.61160  1.0000
  Fe  Fe171     1.0  0.57589  0.73866  0.54908  1.0000
  S   S336      1.0  0.59561  0.77596  0.60671  1.0000
  S   S337      1.0  0.59519  0.76628  0.54004  1.0000
  S   S338      1.0  0.67330  0.81983  0.89303  1.0000
  S   S339      1.0  0.58509  0.77976  0.86912  1.0000
  C   C1009     1.0  0.67288  0.74796  0.83679  1.0000
  H   H1001     1.0  0.69534  0.75186  0.58622  1.0000
  C   C1010     1.0  0.53606  0.70041  0.71034  1.0000
  C   C1011     1.0  0.56973  0.73959  0.70922  1.0000
  H   H1002     1.0  0.57330  0.73770  0.75334  1.0000
  S   S340      1.0  0.51946  0.70396  0.82436  1.0000
  S   S341      1.0  0.56817  0.73981  0.81051  1.0000
  S   S342      1.0  0.59720  0.72549  0.58375  1.0000
  C   C1012     1.0  0.58076  0.69452  0.98762  1.0000
  H   H1003     1.0  0.71255  0.80743  0.81548  1.0000
  Fe  Fe172     1.0  0.59376  0.70043  0.86489  1.0000
  C   C1013     1.0  0.64953  0.80724  0.88674  1.0000
  C   C1014     1.0  0.64827  0.78501  0.88839  1.0000
  C   C1015     1.0  0.62863  0.77612  0.88267  1.0000
  C   C1016     1.0  0.61030  0.78952  0.87575  1.0000
  C   C1017     1.0  0.61165  0.81165  0.87489  1.0000
  C   C1018     1.0  0.63114  0.82042  0.88007  1.0000
  H   H1004     1.0  0.66238  0.77473  0.89382  1.0000
  H   H1005     1.0  0.62762  0.75901  0.88399  1.0000
  H   H1006     1.0  0.59757  0.82213  0.86983  1.0000
  H   H1007     1.0  0.63193  0.83760  0.87898  1.0000
  C   C1019     1.0  0.53469  0.82699  0.55811  1.0000
  C   C1020     1.0  0.51931  0.81307  0.56550  1.0000
  H   H1008     1.0  0.73053  0.72842  0.54006  1.0000
  C   C1021     1.0  0.59888  0.72279  0.68232  1.0000
  H   H1009     1.0  0.53017  0.68555  0.88221  1.0000
  C   C1022     1.0  0.52791  0.84791  0.54965  1.0000
  H   H1010     1.0  0.52425  0.79702  0.57228  1.0000
  C   C1023     1.0  0.57072  0.68080  0.71454  1.0000
  H   H1011     1.0  0.67218  0.78348  0.62334  1.0000
  H   H1012     1.0  0.53971  0.85879  0.54395  1.0000
  C   C1024     1.0  0.68378  0.77326  0.50205  1.0000
  H   H1013     1.0  0.55408  0.74828  0.71023  1.0000
  C   C1025     1.0  0.68987  0.71898  0.64115  1.0000
  C   C1026     1.0  0.66773  0.71710  0.63940  1.0000
  C   C1027     1.0  0.65544  0.72808  0.61871  1.0000
  C   C1028     1.0  0.66541  0.74056  0.59943  1.0000
  C   C1029     1.0  0.68757  0.74209  0.60093  1.0000
  C   C1030     1.0  0.69972  0.73152  0.62189  1.0000
  H   H1014     1.0  0.65999  0.70760  0.65443  1.0000
  H   H1015     1.0  0.63830  0.72696  0.61781  1.0000
  C   C1031     1.0  0.55326  0.74722  0.95055  1.0000
  H   H1016     1.0  0.55157  0.80646  0.97305  1.0000
  C   C1032     1.0  0.67192  0.76472  0.67129  1.0000
  C   C1033     1.0  0.57807  0.67439  0.97608  1.0000
  Fe  Fe173     1.0  0.59686  0.71641  0.80490  1.0000
  S   S343      1.0  0.73904  0.75572  0.67262  1.0000
  H   H1017     1.0  0.52383  0.70847  0.69725  1.0000
  H   H1018     1.0  0.62062  0.78312  0.66055  1.0000
  C   C1034     1.0  0.53968  0.77956  0.50647  1.0000
  C   C1035     1.0  0.66651  0.78479  0.82231  1.0000
  H   H1019     1.0  0.69427  0.81876  0.84136  1.0000
  C   C1036     1.0  0.65889  0.76466  0.82672  1.0000
  H   H1020     1.0  0.51616  0.74197  0.99311  1.0000
  H   H1021     1.0  0.61569  0.76187  0.70262  1.0000
  C   C1037     1.0  0.54967  0.69073  0.75486  1.0000
  Fe  Fe174     1.0  0.58335  0.74665  0.85151  1.0000
  S   S344      1.0  0.56495  0.72270  0.87357  1.0000
  H   H1022     1.0  0.64705  0.74126  0.72421  1.0000
  H   H1023     1.0  0.54689  0.66418  0.82068  1.0000
  H   H1024     1.0  0.55646  0.69129  0.67571  1.0000
  H   H1025     1.0  0.68612  0.81784  0.80560  1.0000
  C   C1038     1.0  0.59392  0.68477  0.93289  1.0000
  C   C1039     1.0  0.66954  0.75222  0.69482  1.0000
  H   H1026     1.0  0.65539  0.79787  0.81536  1.0000
  C   C1040     1.0  0.56216  0.78335  0.94177  1.0000
  N   N86       1.0  0.68759  0.78798  0.82708  1.0000
  H   H1027     1.0  0.65741  0.80564  0.64052  1.0000
  C   C1041     1.0  0.62973  0.80253  0.97133  1.0000
  C   C1042     1.0  0.63158  0.76255  0.69394  1.0000
  S   S345      1.0  0.60284  0.67735  0.89932  1.0000
  C   C1043     1.0  0.63448  0.77456  0.67014  1.0000
  S   S346      1.0  0.56293  0.73961  0.65350  1.0000
  C   C1044     1.0  0.53045  0.66051  0.81891  1.0000
  H   H1028     1.0  0.71775  0.77456  0.84211  1.0000
  C   C1045     1.0  0.56836  0.68087  0.74319  1.0000
  C   C1046     1.0  0.59622  0.70521  0.94403  1.0000
  H   H1029     1.0  0.61761  0.80572  0.95541  1.0000
  H   H1030     1.0  0.66712  0.73234  0.84058  1.0000
  S   S347      1.0  0.58147  0.68888  0.82421  1.0000
  C   C1047     1.0  0.69420  0.75157  0.84238  1.0000
  C   C1048     1.0  0.54288  0.77470  0.98278  1.0000
  H   H1031     1.0  0.56937  0.79485  0.92869  1.0000
  C   C1049     1.0  0.51466  0.71078  0.75153  1.0000
  H   H1032     1.0  0.73398  0.67080  0.69524  1.0000
  H   H1033     1.0  0.71669  0.73330  0.62325  1.0000
  C   C1050     1.0  0.58058  0.73349  0.73377  1.0000
  H   H1034     1.0  0.60671  0.71861  0.50026  1.0000
  H   H1035     1.0  0.64214  0.76219  0.82299  1.0000
  N   N87       1.0  0.65444  0.77536  0.65898  1.0000
  H   H1036     1.0  0.62504  0.70725  0.70603  1.0000
  C   C1051     1.0  0.55211  0.78985  0.96641  1.0000
  C   C1052     1.0  0.60050  0.72171  0.73287  1.0000
  C   C1053     1.0  0.64920  0.75111  0.70615  1.0000
  H   H1037     1.0  0.60339  0.71710  0.93170  1.0000
  S   S348      1.0  0.61401  0.71293  0.76356  1.0000
  H   H1038     1.0  0.57098  0.66237  0.98828  1.0000
  S   S349      1.0  0.61302  0.72489  0.84489  1.0000
  H   H1039     1.0  0.70531  0.73886  0.85051  1.0000
  C   C1054     1.0  0.69548  0.80905  0.82212  1.0000
  H   H1040     1.0  0.68336  0.74312  0.70382  1.0000
  H   H1041     1.0  0.57072  0.75670  0.91484  1.0000
  Fe  Fe175     1.0  0.55355  0.71267  0.83184  1.0000
  Fe  Fe176     1.0  0.70528  0.80445  0.90723  1.0000
  C   C1055     1.0  0.56282  0.76190  0.93385  1.0000
  C   C1056     1.0  0.60967  0.71647  0.70701  1.0000
  H   H1042     1.0  0.69759  0.78086  0.50983  1.0000
  S   S350      1.0  0.56101  0.72155  0.51346  1.0000
  H   H1043     1.0  0.60583  0.71825  0.66252  1.0000
  H   H1044     1.0  0.68780  0.76537  0.66257  1.0000
  C   C1057     1.0  0.58498  0.66941  0.94916  1.0000
  H   H1045     1.0  0.59221  0.72554  0.98029  1.0000
  H   H1046     1.0  0.66730  0.71761  0.53113  1.0000
  C   C1058     1.0  0.67833  0.75394  0.51341  1.0000
  C   C1059     1.0  0.65142  0.80175  0.96454  1.0000
  S   S351      1.0  0.73454  0.80754  0.88155  1.0000
  C   C1060     1.0  0.59002  0.70996  0.97159  1.0000
  N   N88       1.0  0.53387  0.70038  0.73848  1.0000
  C   C1061     1.0  0.55446  0.69055  0.69796  1.0000
  H   H1047     1.0  0.53494  0.76305  0.51001  1.0000
  H   H1048     1.0  0.54797  0.69092  0.77713  1.0000
  H   H1049     1.0  0.58540  0.67379  0.70526  1.0000
  H   H1050     1.0  0.52528  0.79020  0.50082  1.0000
  C   C1062     1.0  0.53380  0.73825  0.99244  1.0000
  C   C1063     1.0  0.51393  0.67687  0.81989  1.0000
  H   H1051     1.0  0.73136  0.67174  0.64437  1.0000
  S   S352      1.0  0.72045  0.81658  0.94557  1.0000
  Fe  Fe177     1.0  0.73097  0.78230  0.95426  1.0000
  C   C1064     1.0  0.57871  0.73418  0.68341  1.0000
  S   S353      1.0  0.70503  0.70692  0.66840  1.0000
  C   C1065     1.0  0.70126  0.77183  0.83750  1.0000
  Fe  Fe178     1.0  0.73725  0.72026  0.67003  1.0000
  C   C1066     1.0  0.65712  0.78856  0.63448  1.0000
  S   S354      1.0  0.71332  0.77012  0.91766  1.0000
  H   H1052     1.0  0.55822  0.67782  0.88237  1.0000
  H   H1053     1.0  0.51925  0.72318  0.76644  1.0000
  H   H1054     1.0  0.64381  0.78688  0.61949  1.0000
  N   N89       1.0  0.66110  0.74409  0.50347  1.0000
  C   C1067     1.0  0.66692  0.79760  0.98513  1.0000
  H   H1055     1.0  0.50609  0.69873  0.76304  1.0000
  H   H1056     1.0  0.65626  0.80436  0.94346  1.0000
  H   H1057     1.0  0.53722  0.72149  0.98509  1.0000
  C   C1068     1.0  0.50593  0.85486  0.54858  1.0000
  C   C1069     1.0  0.65516  0.72406  0.51581  1.0000
  H   H1058     1.0  0.54603  0.78513  0.52644  1.0000
  H   H1059     1.0  0.68793  0.74701  0.53035  1.0000
  H   H1060     1.0  0.63971  0.72701  0.52695  1.0000
  H   H1061     1.0  0.65356  0.71170  0.49960  1.0000
  H   H1062     1.0  0.54368  0.67747  0.91436  1.0000
  N   N90       1.0  0.54366  0.75368  0.97484  1.0000
  H   H1063     1.0  0.58121  0.67391  0.75630  1.0000
  H   H1064     1.0  0.55378  0.73060  0.94405  1.0000
  C   C1070     1.0  0.54276  0.67434  0.89181  1.0000
  H   H1065     1.0  0.68375  0.79675  0.97957  1.0000
  H   H1066     1.0  0.56734  0.80920  0.49953  1.0000
  C   C1071     1.0  0.74080  0.75654  0.52011  1.0000
  C   C1072     1.0  0.73798  0.74329  0.54287  1.0000
  H   H1067     1.0  0.50450  0.65875  0.88623  1.0000
  H   H1068     1.0  0.50088  0.87099  0.54207  1.0000
  C   C1073     1.0  0.49738  0.81997  0.56432  1.0000
  H   H1069     1.0  0.50336  0.71867  0.73622  1.0000
  S   S355      1.0  0.72280  0.76948  0.99613  1.0000
  H   H1070     1.0  0.97013  0.18972  0.12793  1.0000
  C   C1074     1.0  0.92440  0.04602  0.30977  1.0000
  C   C1075     1.0  0.78218  0.19217  0.18886  1.0000
  C   C1076     1.0  0.81675  0.19947  0.33824  1.0000
  Fe  Fe179     1.0  0.92010  0.10948  0.06447  1.0000
  S   S356      1.0  0.95054  0.08843  0.06890  1.0000
  S   S357      1.0  0.90078  0.12549  0.09920  1.0000
  Fe  Fe180     1.0  0.96128  0.10672  0.03214  1.0000
  H   H1071     1.0  0.75327  0.32334  0.43558  1.0000
  Fe  Fe181     1.0  0.93633  0.06694  0.03757  1.0000
  S   S358      1.0  0.93341  0.03162  0.04503  1.0000
  S   S359      1.0  0.93151  0.12917  0.02952  1.0000
  S   S360      1.0  0.90495  0.08667  0.03625  1.0000
  S   S361      1.0  0.75190  0.27040  0.06574  1.0000
  N   N91       1.0  0.93626  0.08152  0.31346  1.0000
  H   H1072     1.0  0.79717  0.19103  0.20147  1.0000
  H   H1073     1.0  0.79676  0.14448  0.28791  1.0000
  C   C1077     1.0  0.82994  0.16476  0.35310  1.0000
  Fe  Fe182     1.0  0.84575  0.13983  0.26909  1.0000
  S   S362      1.0  0.88010  0.14523  0.27877  1.0000
  S   S363      1.0  0.82528  0.16979  0.25680  1.0000
  Fe  Fe183     1.0  0.85304  0.09226  0.28041  1.0000
  S   S364      1.0  0.88734  0.09448  0.29214  1.0000
  S   S365      1.0  0.84327  0.05850  0.28019  1.0000
  Fe  Fe184     1.0  0.87587  0.12398  0.31525  1.0000
  S   S366      1.0  0.88862  0.13502  0.35625  1.0000
  Fe  Fe185     1.0  0.88834  0.11517  0.25456  1.0000
  S   S367      1.0  0.91687  0.10744  0.22677  1.0000
  S   S368      1.0  0.84100  0.12023  0.30707  1.0000
  S   S369      1.0  0.85444  0.11146  0.24145  1.0000
  C   C1078     1.0  0.99218  0.18063  0.05285  1.0000
  S   S370      1.0  0.91051  0.00184  0.20855  1.0000
  S   S371      1.0  0.75282  0.28924  0.26911  1.0000
  C   C1079     1.0  0.89189  0.01692  0.22922  1.0000
  C   C1080     1.0  0.89213  0.03923  0.22923  1.0000
  C   C1081     1.0  0.87717  0.05192  0.24474  1.0000
  C   C1082     1.0  0.86188  0.04242  0.26053  1.0000
  C   C1083     1.0  0.86168  0.02005  0.26070  1.0000
  C   C1084     1.0  0.87672  0.00727  0.24509  1.0000
  H   H1074     1.0  0.90392  0.04677  0.21714  1.0000
  H   H1075     1.0  0.87744  0.06910  0.24423  1.0000
  H   H1076     1.0  0.84991  0.01270  0.27293  1.0000
  H   H1077     1.0  0.98000  0.19368  0.05595  1.0000
  C   C1085     1.0  0.95611  0.16146  0.11375  1.0000
  H   H1078     1.0  0.88662  0.07720  0.18521  1.0000
  C   C1086     1.0  0.91799  0.00565  0.43780  1.0000
  H   H1079     1.0  0.77822  0.17579  0.37337  1.0000
  H   H1080     1.0  0.94543  0.09580  0.27575  1.0000
  C   C1087     1.0  0.76485  0.22883  0.18769  1.0000
  H   H1081     1.0  0.96934  0.15780  0.04178  1.0000
  C   C1088     1.0  0.91260  0.11265  0.19135  1.0000
  C   C1089     1.0  0.92720  0.10358  0.17183  1.0000
  C   C1090     1.0  0.92383  0.10731  0.14343  1.0000
  C   C1091     1.0  0.90597  0.12042  0.13450  1.0000
  C   C1092     1.0  0.89142  0.12945  0.15403  1.0000
  C   C1093     1.0  0.89463  0.12548  0.18234  1.0000
  H   H1082     1.0  0.94106  0.09351  0.17870  1.0000
  H   H1083     1.0  0.93501  0.10005  0.12855  1.0000
  H   H1084     1.0  0.87754  0.13954  0.14724  1.0000
  H   H1085     1.0  0.88331  0.13257  0.19721  1.0000
  C   C1094     1.0  0.91056  0.08685  0.42397  1.0000
  C   C1095     1.0  0.90129  0.07976  0.39942  1.0000
  C   C1096     1.0  0.89448  0.09437  0.37853  1.0000
  C   C1097     1.0  0.89694  0.11620  0.38204  1.0000
  C   C1098     1.0  0.90631  0.12328  0.40650  1.0000
  C   C1099     1.0  0.91311  0.10867  0.42742  1.0000
  H   H1086     1.0  0.89909  0.06293  0.39673  1.0000
  H   H1087     1.0  0.88705  0.08878  0.35990  1.0000
  H   H1088     1.0  0.90826  0.14015  0.40934  1.0000
  H   H1089     1.0  0.92023  0.11429  0.44623  1.0000
  C   C1100     1.0  0.92853  0.04593  0.28147  1.0000
  H   H1090     1.0  0.86105  0.06621  0.18060  1.0000
  C   C1101     1.0  0.75117  0.24534  0.19893  1.0000
  C   C1102     1.0  0.92836  0.06407  0.32556  1.0000
  H   H1091     1.0  0.93880  0.06431  0.24709  1.0000
  H   H1092     1.0  0.82355  0.31390  0.02549  1.0000
  H   H1093     1.0  0.98483  0.27608  0.27654  1.0000
  C   C1103     1.0  0.75597  0.20530  0.22346  1.0000
  H   H1094     1.0  0.90728  0.05781  0.08604  1.0000
  N   N92       1.0  0.76705  0.20910  0.19994  1.0000
  H   H1095     1.0  0.77515  0.17643  0.18943  1.0000
  H   H1096     1.0  0.91020  0.02181  0.43784  1.0000
  C   C1104     1.0  0.79284  0.19801  0.27506  1.0000
  C   C1105     1.0  0.80135  0.17660  0.27481  1.0000
  C   C1106     1.0  0.79039  0.16106  0.28820  1.0000
  H   H1097     1.0  0.80786  0.14671  0.37573  1.0000
  H   H1098     1.0  0.75804  0.18978  0.23350  1.0000
  H   H1099     1.0  0.80127  0.21010  0.26473  1.0000
  H   H1100     1.0  0.96137  0.01303  0.47766  1.0000
  N   N93       1.0  0.88413  0.05835  0.14910  1.0000
  C   C1107     1.0  0.89119  0.06585  0.12452  1.0000
  C   C1108     1.0  0.88719  0.03702  0.15528  1.0000
  C   C1109     1.0  0.90162  0.05184  0.10545  1.0000
  C   C1110     1.0  0.89763  0.02259  0.13675  1.0000
  C   C1111     1.0  0.90487  0.03009  0.11165  1.0000
  C   C1112     1.0  0.87436  0.07330  0.16968  1.0000
  H   H1101     1.0  0.88878  0.08272  0.11947  1.0000
  H   H1102     1.0  0.88161  0.03102  0.17468  1.0000
  C   C1113     1.0  0.81027  0.16171  0.36552  1.0000
  H   H1103     1.0  0.90024  0.00574  0.14208  1.0000
  H   H1104     1.0  0.91306  0.01915  0.09701  1.0000
  H   H1105     1.0  0.86769  0.08851  0.16003  1.0000
  N   N94       1.0  0.83294  0.18347  0.33966  1.0000
  H   H1106     1.0  0.89256  0.99251  0.41423  1.0000
  H   H1107     1.0  0.78409  0.20973  0.34944  1.0000
  S   S372      1.0  0.94994  0.08300  0.00102  1.0000
  H   H1108     1.0  0.98970  0.31161  0.33639  1.0000
  H   H1109     1.0  0.92526  0.03215  0.26891  1.0000
  H   H1110     1.0  0.77348  0.23188  0.16892  1.0000
  S   S373      1.0  0.91879  0.06782  0.44956  1.0000
  C   C1114     1.0  0.94013  0.08163  0.28565  1.0000
  C   C1115     1.0  0.93634  0.06386  0.26927  1.0000
  H   H1111     1.0  0.74374  0.30121  0.00693  1.0000
  C   C1116     1.0  0.96013  0.14044  0.10452  1.0000
  H   H1112     1.0  0.90447  0.99900  0.03652  1.0000
  C   C1117     1.0  0.77354  0.20391  0.28880  1.0000
  H   H1113     1.0  0.85842  0.20242  0.32894  1.0000
  C   C1118     1.0  0.85319  0.18609  0.32546  1.0000
  H   H1114     1.0  0.94689  0.13127  0.09847  1.0000
  C   C1119     1.0  0.75234  0.30354  0.21614  1.0000
  H   H1115     1.0  0.86631  0.17450  0.33304  1.0000
  Fe  Fe186     1.0  0.91919  0.10413  0.00144  1.0000
  H   H1116     1.0  0.76725  0.22051  0.28913  1.0000
  H   H1117     1.0  0.85109  0.18351  0.30292  1.0000
  H   H1118     1.0  0.93566  0.02770  0.47872  1.0000
  H   H1119     1.0  0.75265  0.26077  0.46303  1.0000
  C   C1120     1.0  0.97336  0.17332  0.12096  1.0000
  C   C1121     1.0  0.77075  0.16687  0.30126  1.0000
  H   H1120     1.0  0.92463  0.06422  0.34742  1.0000
  H   H1121     1.0  0.78275  0.29992  0.45587  1.0000
  C   C1122     1.0  0.93018  0.01409  0.01695  1.0000
  S   S374      1.0  0.75434  0.28761  0.12888  1.0000
  C   C1123     1.0  0.98609  0.16032  0.04477  1.0000
  C   C1124     1.0  0.75577  0.32317  0.45781  1.0000
  Fe  Fe187     1.0  0.76405  0.29905  0.08727  1.0000
  H   H1122     1.0  0.76214  0.15473  0.31119  1.0000
  H   H1123     1.0  0.93955  0.09752  0.35237  1.0000
  C   C1125     1.0  0.93902  0.10088  0.32980  1.0000
  C   C1126     1.0  0.76229  0.18830  0.30162  1.0000
  H   H1124     1.0  0.92536  0.11299  0.32587  1.0000
  C   C1127     1.0  0.98861  0.30899  0.26556  1.0000
  H   H1125     1.0  0.76961  0.30075  0.21745  1.0000
  H   H1126     1.0  0.95417  0.10788  0.32427  1.0000
  S   S375      1.0  0.75335  0.25401  0.33353  1.0000
  C   C1128     1.0  0.79702  0.19712  0.35088  1.0000
  H   H1127     1.0  0.93970  0.16847  0.11511  1.0000
  H   H1128     1.0  0.91773  0.03238  0.31925  1.0000
  C   C1129     1.0  0.94734  0.01888  0.46478  1.0000
  H   H1129     1.0  0.84274  0.15201  0.35414  1.0000
  H   H1130     1.0  0.81888  0.21403  0.32686  1.0000
  C   C1130     1.0  0.79372  0.17802  0.36433  1.0000
  H   H1131     1.0  0.78625  0.19526  0.16698  1.0000
  C   C1131     1.0  0.91492  0.99895  0.01877  1.0000
  C   C1132     1.0  0.98120  0.13142  0.10285  1.0000
  S   S376      1.0  0.79770  0.30940  0.08138  1.0000
  S   S377      1.0  0.74536  0.27391  0.40737  1.0000
  H   H1132     1.0  0.95267  0.03032  0.44924  1.0000
  H   H1133     1.0  0.74936  0.26092  0.18905  1.0000
  N   N95       1.0  0.93728  0.00139  0.45095  1.0000
  H   H1134     1.0  0.75269  0.31465  0.17432  1.0000
  H   H1135     1.0  0.98455  0.11522  0.09509  1.0000
  H   H1136     1.0  0.97160  0.31375  0.26729  1.0000
  Fe  Fe188     1.0  0.93322  0.07599  0.49116  1.0000
  C   C1133     1.0  0.77239  0.30981  0.46948  1.0000
  H   H1137     1.0  0.80063  0.28395  0.49436  1.0000
  C   C1134     1.0  0.89988  0.05051  0.97251  1.0000
  C   C1135     1.0  0.74398  0.29110  0.74016  1.0000
  H   H1138     1.0  0.79528  0.15546  0.83565  1.0000
  H   H1139     1.0  0.94567  0.15191  0.67957  1.0000
  Fe  Fe189     1.0  0.92737  0.08640  0.55278  1.0000
  S   S378      1.0  0.96085  0.07387  0.56353  1.0000
  S   S379      1.0  0.90344  0.09783  0.58573  1.0000
  Fe  Fe190     1.0  0.97011  0.09168  0.52581  1.0000
  H   H1140     1.0  0.82615  0.20210  0.89632  1.0000
  Fe  Fe191     1.0  0.95489  0.04673  0.53487  1.0000
  S   S380      1.0  0.96624  0.01289  0.54694  1.0000
  S   S381      1.0  0.93668  0.10607  0.51629  1.0000
  S   S382      1.0  0.92069  0.05783  0.52688  1.0000
  H   H1141     1.0  0.95178  0.06274  0.90830  1.0000
  C   C1136     1.0  0.86220  0.17814  0.88379  1.0000
  Fe  Fe192     1.0  0.76064  0.29739  0.58921  1.0000
  H   H1142     1.0  0.82648  0.14695  0.80488  1.0000
  C   C1137     1.0  0.76150  0.32087  0.51456  1.0000
  Fe  Fe193     1.0  0.86939  0.14335  0.77239  1.0000
  S   S383      1.0  0.90474  0.14785  0.77258  1.0000
  S   S384      1.0  0.84731  0.17327  0.76526  1.0000
  Fe  Fe194     1.0  0.87718  0.09534  0.78003  1.0000
  S   S385      1.0  0.91277  0.09642  0.78063  1.0000
  S   S386      1.0  0.86256  0.06370  0.78282  1.0000
  Fe  Fe195     1.0  0.90629  0.12487  0.80821  1.0000
  S   S387      1.0  0.92821  0.12844  0.84494  1.0000
  Fe  Fe196     1.0  0.90769  0.11890  0.74493  1.0000
  S   S388      1.0  0.93143  0.11317  0.70992  1.0000
  S   S389      1.0  0.87074  0.12248  0.81016  1.0000
  S   S390      1.0  0.87229  0.11588  0.74216  1.0000
  H   H1143     1.0  0.78738  0.21914  0.80266  1.0000
  C   C1138     1.0  0.94775  0.14542  0.63574  1.0000
  Fe  Fe197     1.0  0.74576  0.26797  0.80652  1.0000
  C   C1139     1.0  0.90988  0.00561  0.76720  1.0000
  C   C1140     1.0  0.91696  0.02395  0.77970  1.0000
  C   C1141     1.0  0.90241  0.04161  0.78534  1.0000
  C   C1142     1.0  0.88079  0.04119  0.77805  1.0000
  C   C1143     1.0  0.87354  0.02251  0.76669  1.0000
  H   H1144     1.0  0.93614  0.13038  0.58818  1.0000
  H   H1145     1.0  0.93376  0.02460  0.78478  1.0000
  H   H1146     1.0  0.90794  0.05537  0.79571  1.0000
  H   H1147     1.0  0.85673  0.02186  0.76166  1.0000
  C   C1144     1.0  0.78912  0.18783  0.82096  1.0000
  C   C1145     1.0  0.78498  0.21460  0.71809  1.0000
  H   H1148     1.0  0.86039  0.06053  0.72375  1.0000
  H   H1149     1.0  0.85733  0.17455  0.90464  1.0000
  H   H1150     1.0  0.97464  0.14726  0.53142  1.0000
  C   C1146     1.0  0.90047  0.00121  0.58331  1.0000
  C   C1147     1.0  0.93234  0.03320  0.71349  1.0000
  C   C1148     1.0  0.75204  0.23685  0.72414  1.0000
  C   C1149     1.0  0.92285  0.10709  0.67625  1.0000
  C   C1150     1.0  0.93803  0.09855  0.65717  1.0000
  C   C1151     1.0  0.93219  0.09520  0.62952  1.0000
  C   C1152     1.0  0.91107  0.10034  0.62073  1.0000
  C   C1153     1.0  0.89574  0.10827  0.64004  1.0000
  C   C1154     1.0  0.90158  0.11162  0.66774  1.0000
  H   H1151     1.0  0.95452  0.09503  0.66363  1.0000
  H   H1152     1.0  0.94419  0.08913  0.61498  1.0000
  H   H1153     1.0  0.87937  0.11234  0.63341  1.0000
  H   H1154     1.0  0.88979  0.11842  0.68222  1.0000
  C   C1155     1.0  0.90553  0.11412  0.93215  1.0000
  C   C1156     1.0  0.92706  0.11723  0.92733  1.0000
  C   C1157     1.0  0.93388  0.12153  0.90042  1.0000
  C   C1158     1.0  0.91931  0.12234  0.87822  1.0000
  C   C1159     1.0  0.89786  0.11891  0.88306  1.0000
  C   C1160     1.0  0.89094  0.11515  0.91001  1.0000
  H   H1155     1.0  0.93839  0.11653  0.94433  1.0000
  H   H1156     1.0  0.95049  0.12425  0.89679  1.0000
  H   H1157     1.0  0.88649  0.11957  0.86619  1.0000
  H   H1158     1.0  0.87425  0.11277  0.91369  1.0000
  C   C1161     1.0  0.87474  0.18614  0.83023  1.0000
  Fe  Fe198     1.0  0.75069  0.22689  0.84018  1.0000
  H   H1159     1.0  0.81835  0.21056  0.77153  1.0000
  C   C1162     1.0  0.99148  0.14852  0.64181  1.0000
  C   C1163     1.0  0.79252  0.29491  0.50982  1.0000
  H   H1160     1.0  0.92463  0.07063  0.87125  1.0000
  H   H1161     1.0  0.94010  0.05297  0.95500  1.0000
  S   S391      1.0  0.79476  0.30649  0.58321  1.0000
  H   H1162     1.0  0.88551  0.06107  0.97857  1.0000
  H   H1163     1.0  0.89618  0.03347  0.97340  1.0000
  C   C1164     1.0  0.74726  0.29439  0.96335  1.0000
  N   N96       1.0  0.92143  0.00155  0.59142  1.0000
  H   H1164     1.0  0.78607  0.32114  0.64092  1.0000
  C   C1165     1.0  0.82434  0.17808  0.78588  1.0000
  C   C1166     1.0  0.81789  0.16262  0.80414  1.0000
  C   C1167     1.0  0.80024  0.16747  0.82154  1.0000
  H   H1165     1.0  0.95565  0.02527  0.99252  1.0000
  C   C1168     1.0  0.76054  0.22211  0.67994  1.0000
  H   H1166     1.0  0.92368  0.05493  0.60030  1.0000
  C   C1169     1.0  0.79560  0.20328  0.80274  1.0000
  H   H1167     1.0  0.81344  0.31563  0.99030  1.0000
  N   N97       1.0  0.84816  0.18900  0.86602  1.0000
  H   H1168     1.0  0.85943  0.05235  0.68799  1.0000
  H   H1169     1.0  0.84422  0.99826  0.83972  1.0000
  H   H1170     1.0  0.88581  0.05473  0.58499  1.0000
  S   S392      1.0  0.76801  0.19399  0.84424  1.0000
  C   C1170     1.0  0.95203  0.13704  0.58638  1.0000
  C   C1171     1.0  0.88802  0.00471  0.76151  1.0000
  H   H1171     1.0  0.77507  0.22957  0.75670  1.0000
  H   H1172     1.0  0.89429  0.16319  0.88960  1.0000
  S   S393      1.0  0.96740  0.06312  0.49803  1.0000
  H   H1173     1.0  0.75002  0.30723  0.67371  1.0000
  N   N98       1.0  0.90681  0.05583  0.94465  1.0000
  C   C1172     1.0  0.92816  0.05631  0.93895  1.0000
  C   C1173     1.0  0.89179  0.05970  0.92426  1.0000
  C   C1174     1.0  0.93490  0.06158  0.91249  1.0000
  C   C1175     1.0  0.89799  0.06467  0.89743  1.0000
  C   C1176     1.0  0.91968  0.06588  0.89166  1.0000
  C   C1177     1.0  0.89568  0.03973  0.58711  1.0000
  H   H1174     1.0  0.86837  0.07799  0.69674  1.0000
  H   H1175     1.0  0.87487  0.05952  0.92888  1.0000
  S   S394      1.0  0.76008  0.28142  0.76816  1.0000
  H   H1176     1.0  0.87080  0.01994  0.57401  1.0000
  C   C1178     1.0  0.88925  0.17535  0.84831  1.0000
  H   H1177     1.0  0.96713  0.32040  0.77935  1.0000
  S   S395      1.0  0.76806  0.25671  0.84105  1.0000
  C   C1179     1.0  0.85425  0.19312  0.83960  1.0000
  H   H1178     1.0  0.81808  0.20776  0.86139  1.0000
  H   H1179     1.0  0.79027  0.20217  0.67690  1.0000
  N   N99       1.0  0.74713  0.23454  0.69678  1.0000
  S   S396      1.0  0.74719  0.27327  0.56095  1.0000
  C   C1180     1.0  0.94352  0.01394  0.99380  1.0000
  S   S397      1.0  0.89624  0.10841  0.96531  1.0000
  H   H1180     1.0  0.90524  0.16988  0.84134  1.0000
  C   C1181     1.0  0.95615  0.14994  0.66177  1.0000
  H   H1181     1.0  0.95005  0.15185  0.57378  1.0000
  C   C1182     1.0  0.81306  0.19837  0.78510  1.0000
  H   H1182     1.0  0.78627  0.28484  0.52634  1.0000
  H   H1183     1.0  0.94639  0.02090  0.60386  1.0000
  N   N100      1.0  0.96100  0.14188  0.61351  1.0000
  H   H1184     1.0  0.77141  0.29438  0.71433  1.0000
  H   H1185     1.0  0.84323  0.20175  0.82550  1.0000
  N   N101      1.0  0.89070  0.05145  0.70624  1.0000
  C   C1183     1.0  0.90637  0.06375  0.71548  1.0000
  C   C1184     1.0  0.89531  0.03010  0.70102  1.0000
  C   C1185     1.0  0.92743  0.05489  0.71907  1.0000
  C   C1186     1.0  0.91623  0.02071  0.70427  1.0000
  C   C1187     1.0  0.75409  0.29605  0.71551  1.0000
  H   H1186     1.0  0.98283  0.18325  0.54862  1.0000
  C   C1188     1.0  0.77112  0.22718  0.73512  1.0000
  H   H1187     1.0  0.88273  0.02007  0.69499  1.0000
  H   H1188     1.0  0.93970  0.06482  0.72659  1.0000
  H   H1189     1.0  0.91974  0.00363  0.70098  1.0000
  H   H1190     1.0  0.94843  0.02589  0.71714  1.0000
  H   H1191     1.0  0.81649  0.18123  0.87470  1.0000
  C   C1189     1.0  0.88305  0.17150  0.87537  1.0000
  H   H1192     1.0  0.87922  0.18892  0.80896  1.0000
  C   C1190     1.0  0.82621  0.19534  0.87508  1.0000
  H   H1193     1.0  0.80457  0.30488  0.51926  1.0000
  H   H1194     1.0  0.88602  0.06842  0.88150  1.0000
  H   H1195     1.0  0.79976  0.20681  0.72642  1.0000
  H   H1196     1.0  0.86181  0.01551  0.82266  1.0000
  H   H1197     1.0  0.93061  0.14420  0.63365  1.0000
  H   H1198     1.0  0.76260  0.30114  0.96196  1.0000
  H   H1199     1.0  0.96274  0.12484  0.57532  1.0000
  C   C1191     1.0  0.88732  0.02028  0.58085  1.0000
  C   C1192     1.0  0.91697  0.03987  0.59573  1.0000
  C   C1193     1.0  0.92970  0.02055  0.59778  1.0000
  H   H1200     1.0  0.75647  0.21995  0.65834  1.0000
  H   H1201     1.0  0.98487  0.15488  0.68489  1.0000
  H   H1202     1.0  0.90262  0.08049  0.72037  1.0000
  C   C1194     1.0  0.77966  0.21198  0.69031  1.0000
  H   H1203     1.0  0.91244  0.05312  0.98820  1.0000
  S   S398      1.0  0.74963  0.28074  0.62698  1.0000
  S   S399      1.0  0.75117  0.28826  0.90763  1.0000
  C   C1195     1.0  0.86863  0.06101  0.70351  1.0000
  H   H1204     1.0  0.92472  0.00399  0.52242  1.0000
  H   H1205     1.0  0.95277  0.99782  0.95562  1.0000
  C   C1196     1.0  0.94197  0.99831  0.97302  1.0000
  H   H1206     1.0  0.92177  0.32276  0.76397  1.0000
  H   H1207     1.0  0.76352  0.31989  0.53678  1.0000
  C   C1197     1.0  0.97817  0.15145  0.66478  1.0000
  C   C1198     1.0  0.98257  0.14369  0.61618  1.0000
  C   C1199     1.0  0.99031  0.14963  0.53992  1.0000
  N   N102      1.0  0.77501  0.30875  0.49756  1.0000
  H   H1208     1.0  0.86439  0.99812  0.88237  1.0000
  C   C1200     1.0  0.85927  0.99861  0.82766  1.0000
  Fe  Fe199     1.0  0.94697  0.38168  0.31098  1.0000
  S   S400      1.0  0.90088  0.56329  0.23000  1.0000
  S   S401      1.0  0.90648  0.56831  0.16276  1.0000
  Fe  Fe200     1.0  0.88958  0.58691  0.19694  1.0000
  S   S402      1.0  0.85507  0.59773  0.18643  1.0000
  Fe  Fe201     1.0  0.92044  0.54690  0.19622  1.0000
  S   S403      1.0  0.92303  0.51144  0.18902  1.0000
  Fe  Fe202     1.0  0.94235  0.42931  0.29979  1.0000
  S   S404      1.0  0.90664  0.43057  0.29609  1.0000
  Fe  Fe203     1.0  0.91499  0.57879  0.46717  1.0000
  Fe  Fe204     1.0  0.90858  0.40949  0.33335  1.0000
  S   S405      1.0  0.88310  0.41361  0.36622  1.0000
  Fe  Fe205     1.0  0.91274  0.40074  0.27086  1.0000
  S   S406      1.0  0.89172  0.39437  0.23409  1.0000
  H   H1209     1.0  0.99280  0.60454  0.00213  1.0000
  S   S407      1.0  0.94866  0.40071  0.27167  1.0000
  Fe  Fe206     1.0  0.88794  0.43389  0.08354  1.0000
  S   S408      1.0  0.85468  0.44993  0.08451  1.0000
  S   S409      1.0  0.91076  0.43698  0.11936  1.0000
  N   N103      1.0  0.88740  0.61612  0.11372  1.0000
  C   C1201     1.0  0.89895  0.60453  0.06841  1.0000
  H   H1210     1.0  0.85919  0.51845  0.44715  1.0000
  Fe  Fe207     1.0  0.86254  0.46307  0.04302  1.0000
  H   H1211     1.0  0.85093  0.58596  0.08417  1.0000
  Fe  Fe208     1.0  0.84522  0.42094  0.06137  1.0000
  S   S410      1.0  0.81324  0.40784  0.07020  1.0000
  S   S411      1.0  0.89665  0.44930  0.04363  1.0000
  S   S412      1.0  0.87804  0.40370  0.06372  1.0000
  H   H1212     1.0  0.88462  0.47029  0.15756  1.0000
  H   H1213     1.0  0.96913  0.60518  0.03922  1.0000
  C   C1202     1.0  0.81944  0.36508  0.14396  1.0000
  C   C1203     1.0  0.93214  0.36884  0.43919  1.0000
  C   C1204     1.0  0.87794  0.49781  0.21609  1.0000
  H   H1214     1.0  0.88131  0.50849  0.25825  1.0000
  H   H1215     1.0  0.79850  0.32847  0.01830  1.0000
  C   C1205     1.0  0.95074  0.36715  0.42328  1.0000
  S   S413      1.0  0.94404  0.41030  0.33927  1.0000
  C   C1206     1.0  0.90577  0.42409  0.15062  1.0000
  C   C1207     1.0  0.91984  0.42608  0.17296  1.0000
  C   C1208     1.0  0.91584  0.41677  0.19858  1.0000
  C   C1209     1.0  0.89781  0.40525  0.20189  1.0000
  C   C1210     1.0  0.88384  0.40305  0.17944  1.0000
  C   C1211     1.0  0.88774  0.41253  0.15386  1.0000
  H   H1216     1.0  0.93392  0.43484  0.17045  1.0000
  H   H1217     1.0  0.86985  0.39417  0.18197  1.0000
  H   H1218     1.0  0.87683  0.41093  0.13670  1.0000
  C   C1212     1.0  0.89081  0.41669  0.40091  1.0000
  C   C1213     1.0  0.87529  0.41617  0.42165  1.0000
  C   C1214     1.0  0.88124  0.41663  0.44966  1.0000
  C   C1215     1.0  0.90276  0.41765  0.45700  1.0000
  C   C1216     1.0  0.91816  0.41899  0.43628  1.0000
  C   C1217     1.0  0.91222  0.41847  0.40829  1.0000
  H   H1219     1.0  0.85867  0.41488  0.41604  1.0000
  H   H1220     1.0  0.86927  0.41551  0.46549  1.0000
  H   H1221     1.0  0.93484  0.41988  0.44188  1.0000
  H   H1222     1.0  0.92426  0.41907  0.39250  1.0000
  C   C1218     1.0  0.93107  0.49760  0.21929  1.0000
  C   C1219     1.0  0.93468  0.50880  0.24369  1.0000
  C   C1220     1.0  0.94126  0.49760  0.26770  1.0000
  C   C1221     1.0  0.94467  0.47523  0.26726  1.0000
  H   H1223     1.0  0.93251  0.52609  0.24408  1.0000
  H   H1224     1.0  0.94375  0.50632  0.28662  1.0000
  H   H1225     1.0  0.95389  0.60709  0.32929  1.0000
  C   C1222     1.0  0.78476  0.35233  0.07563  1.0000
  C   C1223     1.0  0.78855  0.37402  0.07308  1.0000
  C   C1224     1.0  0.80955  0.38033  0.07241  1.0000
  C   C1225     1.0  0.82683  0.36476  0.07399  1.0000
  H   H1226     1.0  0.80971  0.39861  0.13857  1.0000
  H   H1227     1.0  0.95736  0.58797  0.37413  1.0000
  H   H1228     1.0  0.77513  0.38601  0.07173  1.0000
  H   H1229     1.0  0.84308  0.36948  0.07348  1.0000
  H   H1230     1.0  0.82399  0.33072  0.14787  1.0000
  H   H1231     1.0  0.87984  0.44058  0.24566  1.0000
  S   S414      1.0  0.98492  0.56170  0.02527  1.0000
  C   C1226     1.0  0.82628  0.63271  0.17830  1.0000
  C   C1227     1.0  0.84639  0.62522  0.18907  1.0000
  H   H1232     1.0  0.87723  0.37118  0.39600  1.0000
  H   H1233     1.0  0.74967  0.34043  0.13393  1.0000
  C   C1228     1.0  0.86922  0.60554  0.11080  1.0000
  H   H1234     1.0  0.87473  0.63416  0.21012  1.0000
  H   H1235     1.0  0.96620  0.36903  0.43284  1.0000
  H   H1236     1.0  0.91170  0.52943  0.41568  1.0000
  C   C1229     1.0  0.93356  0.47519  0.21914  1.0000
  N   N104      1.0  0.89221  0.50942  0.43928  1.0000
  C   C1230     1.0  0.90913  0.49451  0.44355  1.0000
  C   C1231     1.0  0.87245  0.50635  0.44987  1.0000
  C   C1232     1.0  0.90645  0.47591  0.45871  1.0000
  C   C1233     1.0  0.86920  0.48790  0.46502  1.0000
  C   C1234     1.0  0.88635  0.47266  0.46950  1.0000
  C   C1235     1.0  0.89504  0.52891  0.42344  1.0000
  H   H1237     1.0  0.78522  0.32586  0.14728  1.0000
  C   C1236     1.0  0.81913  0.65460  0.17999  1.0000
  C   C1237     1.0  0.80196  0.33675  0.07767  1.0000
  H   H1238     1.0  0.89142  0.54329  0.43665  1.0000
  H   H1239     1.0  0.99016  0.53888  0.34718  1.0000
  H   H1240     1.0  0.88408  0.52991  0.40529  1.0000
  H   H1241     1.0  0.81614  0.62156  0.16877  1.0000
  S   S415      1.0  0.88031  0.57626  0.47766  1.0000
  S   S416      1.0  0.92703  0.59226  0.42771  1.0000
  S   S417      1.0  0.91139  0.37956  0.30788  1.0000
  H   H1242     1.0  0.91647  0.62431  0.09519  1.0000
  H   H1243     1.0  0.92825  0.35806  0.36092  1.0000
  C   C1238     1.0  0.82301  0.34301  0.07664  1.0000
  H   H1244     1.0  0.76852  0.34776  0.07614  1.0000
  H   H1245     1.0  0.97702  0.54393  0.07916  1.0000
  C   C1239     1.0  0.80442  0.38266  0.14130  1.0000
  N   N105      1.0  0.82634  0.34376  0.00551  1.0000
  H   H1246     1.0  0.91068  0.60427  0.05191  1.0000
  C   C1240     1.0  0.88382  0.51861  0.01416  1.0000
  C   C1241     1.0  0.78254  0.37945  0.14114  1.0000
  H   H1247     1.0  0.77100  0.39319  0.13875  1.0000
  H   H1248     1.0  0.89787  0.36872  0.43883  1.0000
  H   H1249     1.0  0.91983  0.46406  0.46221  1.0000
  C   C1242     1.0  0.87754  0.46032  0.20918  1.0000
  H   H1250     1.0  0.88629  0.34389  0.38655  1.0000
  C   C1243     1.0  0.95171  0.57989  0.35606  1.0000
  C   C1244     1.0  0.86546  0.59419  0.08651  1.0000
  S   S418      1.0  0.84959  0.49695  0.03381  1.0000
  C   C1245     1.0  0.81246  0.34457  0.14640  1.0000
  N   N106      1.0  0.91100  0.36333  0.39855  1.0000
  H   H1251     1.0  0.93296  0.37242  0.46114  1.0000
  C   C1246     1.0  0.91228  0.36681  0.42641  1.0000
  H   H1252     1.0  0.98002  0.35078  0.26429  1.0000
  C   C1247     1.0  0.99175  0.34429  0.32354  1.0000
  H   H1253     1.0  0.88992  0.36612  0.36368  1.0000
  H   H1254     1.0  0.85748  0.60596  0.12730  1.0000
  C   C1248     1.0  0.92919  0.36119  0.38291  1.0000
  H   H1255     1.0  0.87757  0.58535  0.04603  1.0000
  S   S419      1.0  0.96368  0.34951  0.32248  1.0000
  H   H1256     1.0  0.98799  0.56033  0.26313  1.0000
  N   N107      1.0  0.92431  0.50005  0.11571  1.0000
  C   C1249     1.0  0.90703  0.49468  0.10052  1.0000
  C   C1250     1.0  0.92978  0.52078  0.11631  1.0000
  C   C1251     1.0  0.89481  0.51018  0.08524  1.0000
  C   C1252     1.0  0.91807  0.53665  0.10089  1.0000
  C   C1253     1.0  0.90052  0.53124  0.08519  1.0000
  C   C1254     1.0  0.93688  0.48329  0.13122  1.0000
  H   H1257     1.0  0.90263  0.47832  0.10005  1.0000
  C   C1255     1.0  0.94721  0.55844  0.35781  1.0000
  H   H1258     1.0  0.88105  0.50580  0.07343  1.0000
  Fe  Fe209     1.0  0.88377  0.42050  0.02366  1.0000
  H   H1259     1.0  0.89133  0.54327  0.07297  1.0000
  H   H1260     1.0  0.95033  0.48966  0.14291  1.0000
  H   H1261     1.0  0.92651  0.47596  0.14651  1.0000
  H   H1262     1.0  0.94353  0.47050  0.11699  1.0000
  H   H1263     1.0  0.95540  0.62172  0.08238  1.0000
  Fe  Fe210     1.0  0.92931  0.58294  0.23440  1.0000
  N   N108      1.0  0.87740  0.48057  0.19871  1.0000
  H   H1264     1.0  0.87645  0.44674  0.19550  1.0000
  H   H1265     1.0  0.88302  0.49865  0.16255  1.0000
  C   C1256     1.0  0.95957  0.60463  0.08163  1.0000
  C   C1257     1.0  0.94033  0.46400  0.24313  1.0000
  C   C1258     1.0  0.90213  0.61581  0.09290  1.0000
  S   S420      1.0  0.96008  0.64185  0.44978  1.0000
  H   H1266     1.0  0.83646  0.36732  0.14357  1.0000
  S   S421      1.0  0.94970  0.56485  0.20247  1.0000
  S   S422      1.0  0.95549  0.46156  0.29642  1.0000
  S   S423      1.0  0.94776  0.60523  0.13570  1.0000
  C   C1259     1.0  0.85718  0.55605  0.00512  1.0000
  Fe  Fe211     1.0  0.93402  0.58785  0.17152  1.0000
  C   C1260     1.0  0.97187  0.56083  0.07972  1.0000
  H   H1267     1.0  0.92668  0.41849  0.21575  1.0000
  C   C1261     1.0  0.94306  0.58026  0.30675  1.0000
  H   H1268     1.0  0.93052  0.46648  0.20043  1.0000
  S   S424      1.0  0.91638  0.60799  0.20391  1.0000
  H   H1269     1.0  0.93271  0.55078  0.29035  1.0000
  H   H1270     1.0  0.88414  0.45843  0.48152  1.0000
  H   H1271     1.0  0.94319  0.52518  0.12882  1.0000
  N   N109      1.0  0.98837  0.51452  0.31654  1.0000
  H   H1272     1.0  0.88267  0.47163  0.27748  1.0000
  N   N110      1.0  0.77584  0.35924  0.14307  1.0000
  C   C1262     1.0  0.97367  0.57329  0.05586  1.0000
  H   H1273     1.0  0.92485  0.49695  0.43533  1.0000
  H   H1274     1.0  0.96364  0.36177  0.38231  1.0000
  H   H1275     1.0  0.74655  0.35688  0.16444  1.0000
  C   C1263     1.0  0.88081  0.47417  0.25541  1.0000
  C   C1264     1.0  0.75284  0.35619  0.14299  1.0000
  H   H1276     1.0  0.89413  0.50425  0.01805  1.0000
  C   C1265     1.0  0.86183  0.51893  0.01994  1.0000
  Fe  Fe212     1.0  0.95171  0.60733  0.45382  1.0000
  C   C1266     1.0  0.95747  0.59223  0.10534  1.0000
  C   C1267     1.0  0.96735  0.59520  0.05699  1.0000
  H   H1277     1.0  0.87765  0.51393  0.20787  1.0000
  C   C1268     1.0  0.93779  0.55900  0.30864  1.0000
  C   C1269     1.0  0.87577  0.48378  0.16876  1.0000
  H   H1278     1.0  0.93658  0.53145  0.33522  1.0000
  H   H1279     1.0  0.85868  0.48482  0.16223  1.0000
  H   H1280     1.0  0.92256  0.55303  0.10121  1.0000
  C   C1270     1.0  0.85934  0.63973  0.20147  1.0000
  S   S425      1.0  0.93682  0.54891  0.46626  1.0000
  C   C1271     1.0  0.87997  0.49485  0.24465  1.0000
  C   C1272     1.0  0.94002  0.54808  0.33408  1.0000
  S   S426      1.0  0.94375  0.59381  0.27478  1.0000
  C   C1273     1.0  0.96353  0.57023  0.10435  1.0000
  H   H1281     1.0  0.94281  0.44673  0.24273  1.0000
  S   S427      1.0  0.85016  0.43551  0.01977  1.0000
  Fe  Fe213     1.0  0.95892  0.56823  0.49079  1.0000
  Fe  Fe214     1.0  0.95040  0.56325  0.42824  1.0000
  H   H1282     1.0  0.88714  0.61896  0.15736  1.0000
  S   S428      1.0  0.95287  0.54378  0.38856  1.0000
  C   C1274     1.0  0.87936  0.45677  0.23761  1.0000
  H   H1283     1.0  0.96241  0.56065  0.12274  1.0000
  C   C1275     1.0  0.89009  0.36086  0.38562  1.0000
  C   C1276     1.0  0.84870  0.53775  0.01551  1.0000
  C   C1277     1.0  0.89050  0.62855  0.13892  1.0000
  C   C1278     1.0  0.94979  0.59067  0.33062  1.0000
  C   C1279     1.0  0.94931  0.36320  0.39497  1.0000
  S   S429      1.0  0.97589  0.57883  0.45262  1.0000
  H   H1284     1.0  0.99280  0.50108  0.35696  1.0000
  C   C1280     1.0  0.98520  0.49771  0.33677  1.0000
  C   C1281     1.0  0.98757  0.50990  0.28893  1.0000
  C   C1282     1.0  0.79046  0.34192  0.14599  1.0000
  C   C1283     1.0  0.88041  0.59378  0.06517  1.0000
  H   H1285     1.0  0.90729  0.63301  0.14112  1.0000
  H   H1286     1.0  0.99112  0.56818  0.31316  1.0000
  C   C1284     1.0  0.98701  0.64842  0.44786  1.0000
  C   C1285     1.0  0.84768  0.34155  0.99906  1.0000
  H   H1287     1.0  0.85362  0.48571  0.47392  1.0000
  C   C1286     1.0  0.98758  0.52623  0.26927  1.0000
  H   H1288     1.0  0.84668  0.57040  0.00165  1.0000
  H   H1289     1.0  0.96425  0.62985  0.38245  1.0000
  H   H1290     1.0  0.96772  0.49670  0.34008  1.0000
  H   H1291     1.0  0.83174  0.53816  0.02003  1.0000
  H   H1292     1.0  0.98593  0.49360  0.28202  1.0000
  H   H1293     1.0  0.83641  0.33102  0.07817  1.0000
  C   C1287     1.0  0.81570  0.36369  0.00719  1.0000
  C   C1288     1.0  0.89242  0.53718  0.00377  1.0000
  C   C1289     1.0  0.97730  0.64009  0.37976  1.0000
  C   C1290     1.0  0.87897  0.55591  0.99896  1.0000
  C   C1291     1.0  0.99065  0.55176  0.30615  1.0000
  C   C1292     1.0  0.98891  0.54733  0.27802  1.0000
  H   H1294     1.0  0.99024  0.34671  0.22966  1.0000
  C   C1293     1.0  0.82651  0.38206  0.00261  1.0000
  C   C1294     1.0  0.99015  0.53509  0.32528  1.0000
  H   H1295     1.0  0.79887  0.36557  0.01268  1.0000
  H   H1296     1.0  0.81817  0.39787  0.00476  1.0000
  H   H1297     1.0  0.98583  0.52262  0.24747  1.0000
  H   H1298     1.0  0.90938  0.53709  0.99983  1.0000
  H   H1299     1.0  0.98258  0.64337  0.99712  1.0000
  H   H1300     1.0  0.87945  0.64335  0.13900  1.0000
  S   S430      1.0  0.91120  0.41574  0.49165  1.0000
  S   S431      1.0  0.93638  0.59771  0.49304  1.0000
  H   H1301     1.0  0.98179  0.61517  0.49435  1.0000
  H   H1302     1.0  0.85613  0.32577  0.99772  1.0000
  H   H1303     1.0  0.83897  0.56621  0.49368  1.0000
  H   H1304     1.0  0.99207  0.48180  0.32937  1.0000
  H   H1305     1.0  0.74364  0.36856  0.13033  1.0000
  C   C1295     1.0  0.81490  0.32453  0.01002  1.0000
  C   C1296     1.0  0.87198  0.55370  0.49527  1.0000
  H   H1306     1.0  0.91981  0.52545  0.65797  1.0000
  S   S432      1.0  0.89907  0.57083  0.75112  1.0000
  S   S433      1.0  0.88635  0.57345  0.68526  1.0000
  Fe  Fe215     1.0  0.88345  0.59538  0.72206  1.0000
  S   S434      1.0  0.85444  0.61591  0.73721  1.0000
  Fe  Fe216     1.0  0.90525  0.55052  0.71339  1.0000
  S   S435      1.0  0.90153  0.51518  0.71122  1.0000
  H   H1307     1.0  0.85375  0.46149  0.69963  1.0000
  S   S436      1.0  0.91514  0.43294  0.79392  1.0000
  S   S437      1.0  0.89585  0.39196  0.73918  1.0000
  Fe  Fe217     1.0  0.91593  0.41575  0.83434  1.0000
  S   S438      1.0  0.89173  0.43049  0.86480  1.0000
  Fe  Fe218     1.0  0.91800  0.40080  0.77375  1.0000
  H   H1308     1.0  0.87424  0.47981  0.70399  1.0000
  S   S439      1.0  0.95171  0.41421  0.83874  1.0000
  H   H1309     1.0  0.88130  0.56540  0.58954  1.0000
  Fe  Fe219     1.0  0.88621  0.43439  0.58713  1.0000
  S   S440      1.0  0.85161  0.44661  0.58554  1.0000
  S   S441      1.0  0.90729  0.43829  0.62469  1.0000
  Fe  Fe220     1.0  0.88733  0.42468  0.52551  1.0000
  C   C1297     1.0  0.82623  0.38238  0.63223  1.0000
  H   H1310     1.0  0.88788  0.61189  0.78480  1.0000
  Fe  Fe221     1.0  0.85993  0.46336  0.54658  1.0000
  S   S442      1.0  0.84494  0.49681  0.53870  1.0000
  Fe  Fe222     1.0  0.84715  0.41801  0.55840  1.0000
  S   S443      1.0  0.81559  0.40297  0.56454  1.0000
  S   S444      1.0  0.89484  0.45354  0.55020  1.0000
  S   S445      1.0  0.88150  0.40439  0.56283  1.0000
  Fe  Fe223     1.0  0.95081  0.42940  0.79672  1.0000
  C   C1298     1.0  0.89832  0.60601  0.82689  1.0000
  C   C1299     1.0  0.96473  0.35781  0.71605  1.0000
  C   C1300     1.0  0.96197  0.58852  0.82859  1.0000
  H   H1311     1.0  0.92767  0.41913  0.71950  1.0000
  H   H1312     1.0  0.93207  0.49970  0.87688  1.0000
  N   N111      1.0  0.94729  0.34153  0.75379  1.0000
  C   C1301     1.0  0.92323  0.47811  0.72876  1.0000
  C   C1302     1.0  0.94891  0.47583  0.76659  1.0000
  C   C1303     1.0  0.90401  0.42464  0.65591  1.0000
  C   C1304     1.0  0.91860  0.42726  0.67754  1.0000
  C   C1305     1.0  0.91629  0.41708  0.70302  1.0000
  C   C1306     1.0  0.89933  0.40430  0.70707  1.0000
  C   C1307     1.0  0.88472  0.40157  0.68546  1.0000
  C   C1308     1.0  0.88704  0.41174  0.65988  1.0000
  H   H1313     1.0  0.93174  0.43725  0.67458  1.0000
  H   H1314     1.0  0.87158  0.39163  0.68852  1.0000
  H   H1315     1.0  0.87576  0.40968  0.64327  1.0000
  C   C1309     1.0  0.89378  0.42156  0.89921  1.0000
  C   C1310     1.0  0.90944  0.40555  0.90712  1.0000
  C   C1311     1.0  0.91144  0.39941  0.93497  1.0000
  C   C1312     1.0  0.89791  0.40931  0.95506  1.0000
  C   C1313     1.0  0.88213  0.42522  0.94713  1.0000
  C   C1314     1.0  0.88006  0.43130  0.91924  1.0000
  H   H1316     1.0  0.92011  0.39797  0.89182  1.0000
  H   H1317     1.0  0.92367  0.38707  0.94099  1.0000
  H   H1318     1.0  0.87156  0.43289  0.96242  1.0000
  H   H1319     1.0  0.86793  0.44372  0.91320  1.0000
  C   C1315     1.0  0.92050  0.50037  0.73185  1.0000
  C   C1316     1.0  0.93235  0.51045  0.75196  1.0000
  C   C1317     1.0  0.80447  0.38920  0.63322  1.0000
  C   C1318     1.0  0.94652  0.49817  0.76939  1.0000
  C   C1319     1.0  0.92841  0.47082  0.90004  1.0000
  C   C1320     1.0  0.84916  0.63605  0.68681  1.0000
  H   H1320     1.0  0.88733  0.59379  0.83045  1.0000
  C   C1321     1.0  0.78404  0.34960  0.57408  1.0000
  C   C1322     1.0  0.78903  0.37076  0.56956  1.0000
  C   C1323     1.0  0.81039  0.37570  0.56654  1.0000
  C   C1324     1.0  0.82676  0.35912  0.56721  1.0000
  C   C1325     1.0  0.95823  0.63502  0.53205  1.0000
  H   H1321     1.0  0.76757  0.34626  0.57702  1.0000
  H   H1322     1.0  0.77630  0.38352  0.56904  1.0000
  H   H1323     1.0  0.84327  0.36275  0.56492  1.0000
  C   C1326     1.0  0.94750  0.63338  0.57977  1.0000
  H   H1324     1.0  0.93815  0.64881  0.81435  1.0000
  C   C1327     1.0  0.76580  0.65229  0.72596  1.0000
  C   C1328     1.0  0.98987  0.61343  0.51476  1.0000
  C   C1329     1.0  0.84347  0.63605  0.71469  1.0000
  C   C1330     1.0  0.96629  0.33074  0.76134  1.0000
  H   H1325     1.0  0.98289  0.55413  0.59047  1.0000
  C   C1331     1.0  0.96217  0.57791  0.85415  1.0000
  H   H1326     1.0  0.86083  0.62386  0.67897  1.0000
  S   S446      1.0  0.85270  0.43592  0.51911  1.0000
  H   H1327     1.0  0.93114  0.36293  0.72483  1.0000
  H   H1328     1.0  0.88172  0.45177  0.70015  1.0000
  C   C1332     1.0  0.89868  0.61609  0.80125  1.0000
  C   C1333     1.0  0.94624  0.35460  0.73112  1.0000
  C   C1334     1.0  0.92790  0.33834  0.76959  1.0000
  H   H1329     1.0  0.96813  0.61270  0.60556  1.0000
  C   C1335     1.0  0.96534  0.61915  0.58495  1.0000
  C   C1336     1.0  0.78949  0.37426  0.63824  1.0000
  H   H1330     1.0  0.94541  0.61950  0.87935  1.0000
  H   H1331     1.0  0.79401  0.63361  0.69026  1.0000
  S   S447      1.0  0.96838  0.35124  0.82716  1.0000
  H   H1332     1.0  0.91192  0.60385  0.86772  1.0000
  H   H1333     1.0  0.76525  0.34162  0.63446  1.0000
  C   C1337     1.0  0.84232  0.53547  0.51355  1.0000
  H   H1334     1.0  0.91378  0.63910  0.77667  1.0000
  C   C1338     1.0  0.76151  0.65308  0.63842  1.0000
  S   S448      1.0  0.90152  0.40170  0.98988  1.0000
  N   N112      1.0  0.89073  0.53268  0.59906  1.0000
  C   C1339     1.0  0.90272  0.53756  0.62161  1.0000
  C   C1340     1.0  0.88633  0.51197  0.59408  1.0000
  C   C1341     1.0  0.91039  0.52152  0.64003  1.0000
  C   C1342     1.0  0.89361  0.49558  0.61217  1.0000
  C   C1343     1.0  0.90573  0.50040  0.63529  1.0000
  C   C1344     1.0  0.88354  0.54948  0.57931  1.0000
  H   H1335     1.0  0.90633  0.55393  0.62558  1.0000
  H   H1336     1.0  0.87708  0.50798  0.57609  1.0000
  C   C1345     1.0  0.93734  0.46588  0.74616  1.0000
  H   H1337     1.0  0.88995  0.47923  0.60816  1.0000
  H   H1338     1.0  0.91150  0.48777  0.64946  1.0000
  H   H1339     1.0  0.86791  0.54623  0.56975  1.0000
  H   H1340     1.0  0.97090  0.54991  0.75379  1.0000
  H   H1341     1.0  0.79924  0.40580  0.62888  1.0000
  C   C1346     1.0  0.98828  0.65045  0.92860  1.0000
  H   H1342     1.0  0.91505  0.35132  0.76567  1.0000
  H   H1343     1.0  0.76073  0.65392  0.61607  1.0000
  N   N113      1.0  0.92642  0.62695  0.84326  1.0000
  H   H1344     1.0  0.82403  0.65217  0.74625  1.0000
  H   H1345     1.0  0.95537  0.64140  0.51139  1.0000
  H   H1346     1.0  0.97017  0.60299  0.82651  1.0000
  C   C1347     1.0  0.82173  0.33785  0.57166  1.0000
  C   C1348     1.0  0.82835  0.65200  0.72463  1.0000
  H   H1347     1.0  0.97052  0.58419  0.87165  1.0000
  C   C1349     1.0  0.88622  0.53650  0.50402  1.0000
  H   H1348     1.0  0.93146  0.33849  0.79215  1.0000
  C   C1350     1.0  0.94040  0.63330  0.86579  1.0000
  N   N114      1.0  0.86850  0.46038  0.73927  1.0000
  C   C1351     1.0  0.87182  0.47678  0.75714  1.0000
  C   C1352     1.0  0.86392  0.44082  0.74912  1.0000
  C   C1353     1.0  0.87044  0.47383  0.78571  1.0000
  C   C1354     1.0  0.86232  0.43734  0.77755  1.0000
  C   C1355     1.0  0.86551  0.45401  0.79594  1.0000
  C   C1356     1.0  0.86957  0.46356  0.70932  1.0000
  H   H1349     1.0  0.87578  0.49222  0.74942  1.0000
  H   H1350     1.0  0.86179  0.42767  0.73499  1.0000
  H   H1351     1.0  0.87354  0.48671  0.79984  1.0000
  H   H1352     1.0  0.85932  0.42162  0.78529  1.0000
  H   H1353     1.0  0.86495  0.45130  0.81809  1.0000
  Fe  Fe224     1.0  0.92145  0.58114  0.96910  1.0000
  H   H1354     1.0  0.91459  0.47025  0.71282  1.0000
  S   S449      1.0  0.91581  0.38363  0.81402  1.0000
  H   H1355     1.0  0.89559  0.55025  0.56263  1.0000
  H   H1356     1.0  0.91084  0.59198  0.57883  1.0000
  S   S450      1.0  0.92954  0.59276  0.92681  1.0000
  H   H1357     1.0  0.93349  0.46006  0.88325  1.0000
  H   H1358     1.0  0.93942  0.44870  0.74368  1.0000
  S   S451      1.0  0.96197  0.64378  0.93611  1.0000
  H   H1359     1.0  0.82528  0.53530  0.51725  1.0000
  S   S452      1.0  0.98062  0.58189  0.94508  1.0000
  S   S453      1.0  0.91377  0.61065  0.71318  1.0000
  Fe  Fe225     1.0  0.95571  0.60971  0.94743  1.0000
  Fe  Fe226     1.0  0.91807  0.58690  0.67819  1.0000
  N   N115      1.0  0.97516  0.62030  0.53712  1.0000
  C   C1357     1.0  0.92269  0.46254  0.92553  1.0000
  C   C1358     1.0  0.83951  0.65163  0.66890  1.0000
  Fe  Fe227     1.0  0.92968  0.58468  0.73988  1.0000
  H   H1360     1.0  0.83789  0.39370  0.62721  1.0000
  S   S454      1.0  0.95400  0.39840  0.77275  1.0000
  H   H1361     1.0  0.93020  0.52763  0.75450  1.0000
  S   S455      1.0  0.92390  0.59801  0.63455  1.0000
  S   S456      1.0  0.94381  0.55166  0.96716  1.0000
  C   C1359     1.0  0.92628  0.58315  0.58168  1.0000
  H   H1362     1.0  0.92934  0.57476  0.53878  1.0000
  H   H1363     1.0  0.93347  0.55477  0.79075  1.0000
  S   S457      1.0  0.93730  0.56243  0.70396  1.0000
  C   C1360     1.0  0.93706  0.57394  0.55870  1.0000
  C   C1361     1.0  0.94133  0.56137  0.80836  1.0000
  H   H1364     1.0  0.93476  0.53539  0.83541  1.0000
  C   C1362     1.0  0.77911  0.64228  0.65148  1.0000
  H   H1365     1.0  0.92376  0.44531  0.92827  1.0000
  H   H1366     1.0  0.93633  0.63780  0.59633  1.0000
  C   C1363     1.0  0.93568  0.58176  0.60800  1.0000
  C   C1364     1.0  0.94211  0.55039  0.83369  1.0000
  C   C1365     1.0  0.97896  0.61253  0.56321  1.0000
  H   H1367     1.0  0.77707  0.63899  0.73377  1.0000
  H   H1368     1.0  0.79232  0.63492  0.63943  1.0000
  C   C1366     1.0  0.94393  0.64150  0.55318  1.0000
  H   H1369     1.0  0.77574  0.33780  0.66920  1.0000
  Fe  Fe228     1.0  0.95186  0.38328  0.81467  1.0000
  C   C1367     1.0  0.92737  0.49298  0.89637  1.0000
  Fe  Fe229     1.0  0.95388  0.56452  0.92634  1.0000
  H   H1370     1.0  0.96388  0.36863  0.69853  1.0000
  H   H1371     1.0  0.91639  0.47564  0.99057  1.0000
  C   C1368     1.0  0.95146  0.58037  0.80565  1.0000
  C   C1369     1.0  0.85628  0.51811  0.52187  1.0000
  C   C1370     1.0  0.95569  0.57031  0.61136  1.0000
  C   C1371     1.0  0.95247  0.55866  0.85668  1.0000
  H   H1372     1.0  0.77257  0.37963  0.63843  1.0000
  C   C1372     1.0  0.95790  0.56432  0.56145  1.0000
  C   C1373     1.0  0.92023  0.50651  0.91794  1.0000
  H   H1373     1.0  0.84378  0.65130  0.64727  1.0000
  C   C1374     1.0  0.91230  0.61176  0.84785  1.0000
  H   H1374     1.0  0.95501  0.50591  0.78560  1.0000
  H   H1375     1.0  0.95538  0.63939  0.85780  1.0000
  N   N116      1.0  0.91581  0.47594  0.94662  1.0000
  H   H1376     1.0  0.91935  0.52377  0.91526  1.0000
  H   H1377     1.0  0.91470  0.44985  0.97512  1.0000
  S   S458      1.0  0.95446  0.54404  0.88775  1.0000
  H   H1378     1.0  0.90321  0.53694  0.50073  1.0000
  S   S459      1.0  0.96583  0.46016  0.78898  1.0000
  S   S460      1.0  0.95265  0.59343  0.77356  1.0000
  H   H1379     1.0  0.96318  0.56930  0.63156  1.0000
  C   C1375     1.0  0.91429  0.49767  0.94299  1.0000
  H   H1380     1.0  0.93189  0.64597  0.87868  1.0000
  H   H1381     1.0  0.90852  0.50831  0.95952  1.0000
  C   C1376     1.0  0.96689  0.56184  0.58804  1.0000
  C   C1377     1.0  0.90928  0.46714  0.97303  1.0000
  H   H1382     1.0  0.93007  0.65253  0.54886  1.0000
  S   S461      1.0  0.97358  0.55736  0.53189  1.0000
  C   C1378     1.0  0.78003  0.64170  0.68033  1.0000
  C   C1379     1.0  0.83277  0.36082  0.63648  1.0000
  C   C1380     1.0  0.91310  0.63155  0.79676  1.0000
  N   N117      1.0  0.79600  0.35305  0.64175  1.0000
  Fe  Fe230     1.0  0.96737  0.57258  0.98626  1.0000
  C   C1381     1.0  0.85008  0.55303  0.50022  1.0000
  C   C1382     1.0  0.87836  0.51862  0.51721  1.0000
  C   C1383     1.0  0.81735  0.34627  0.64126  1.0000
  C   C1384     1.0  0.92690  0.63687  0.81813  1.0000
  C   C1385     1.0  0.80037  0.33307  0.57549  1.0000
  H   H1383     1.0  0.88932  0.50534  0.52374  1.0000
  H   H1384     1.0  0.89151  0.46888  0.97476  1.0000
  C   C1386     1.0  0.74468  0.33435  0.50361  1.0000
  S   S462      1.0  0.88831  0.57995  0.98653  1.0000
  N   N118      1.0  0.76392  0.65175  0.69576  1.0000
  C   C1387     1.0  0.98504  0.33341  0.74660  1.0000
  C   C1388     1.0  0.78000  0.33767  0.64695  1.0000
  H   H1385     1.0  0.98774  0.55110  0.81328  1.0000
  C   C1389     1.0  0.85894  0.35959  0.99410  1.0000
  H   H1386     1.0  0.84963  0.35533  0.63518  1.0000
  H   H1387     1.0  0.82251  0.32943  0.64377  1.0000
  C   C1390     1.0  0.98840  0.54884  0.75829  1.0000
  S   S463      1.0  0.94444  0.60165  0.98985  1.0000
  H   H1388     1.0  0.85678  0.39395  0.99185  1.0000
  H   H1389     1.0  0.87590  0.35796  0.98904  1.0000
  C   C1391     1.0  0.98427  0.34721  0.72399  1.0000
  C   C1392     1.0  0.99200  0.53510  0.80557  1.0000
  H   H1390     1.0  0.74999  0.65073  0.73579  1.0000
  H   H1391     1.0  0.99226  0.60071  0.56717  1.0000
  H   H1392     1.0  0.99281  0.52124  0.84641  1.0000
  H   H1393     1.0  0.99244  0.56450  0.76696  1.0000
  H   H1394     1.0  0.83449  0.32514  0.57265  1.0000
  C   C1393     1.0  0.84820  0.37991  0.99579  1.0000
  H   H1395     1.0  0.80410  0.76970  0.23449  1.0000
  H   H1396     1.0  0.84572  0.93347  0.25821  1.0000
  H   H1397     1.0  0.79257  0.69368  0.30004  1.0000
  Fe  Fe231     1.0  0.79326  0.71329  0.17879  1.0000
  S   S464      1.0  0.79574  0.74881  0.17564  1.0000
  C   C1394     1.0  0.74595  0.74815  0.26903  1.0000
  Fe  Fe232     1.0  0.76377  0.75200  0.19659  1.0000
  H   H1398     1.0  0.77321  0.71916  0.02588  1.0000
  Fe  Fe233     1.0  0.77762  0.74681  0.13569  1.0000
  H   H1399     1.0  0.92312  0.94537  0.03078  1.0000
  S   S465      1.0  0.76223  0.71667  0.20224  1.0000
  S   S466      1.0  0.77750  0.71097  0.13715  1.0000
  H   H1400     1.0  0.80357  0.66023  0.17181  1.0000
  S   S467      1.0  0.84830  0.96433  0.03031  1.0000
  H   H1401     1.0  0.96230  0.97761  0.46169  1.0000
  H   H1402     1.0  0.74616  0.73640  0.25268  1.0000
  Fe  Fe234     1.0  0.85616  0.93512  0.49575  1.0000
  H   H1403     1.0  0.82404  0.77274  0.26118  1.0000
  H   H1404     1.0  0.77528  0.70547  0.07401  1.0000
  S   S468      1.0  0.76316  0.84118  0.42218  1.0000
  C   C1395     1.0  0.87960  0.92083  0.36112  1.0000
  S   S469      1.0  0.76027  0.77542  0.42182  1.0000
  C   C1396     1.0  0.95014  0.88780  0.26088  1.0000
  C   C1397     1.0  0.83666  0.92809  0.30044  1.0000
  H   H1405     1.0  0.94428  0.84599  0.25689  1.0000
  H   H1406     1.0  0.93367  0.88302  0.25677  1.0000
  C   C1398     1.0  0.86952  0.95089  0.10849  1.0000
  C   C1399     1.0  0.81117  0.84441  0.00443  1.0000
  H   H1407     1.0  0.81248  0.73131  0.23242  1.0000
  H   H1408     1.0  0.87647  0.91111  0.37884  1.0000
  N   N119      1.0  0.83124  0.93723  0.32542  1.0000
  H   H1409     1.0  0.79314  0.76186  0.30797  1.0000
  C   C1400     1.0  0.82676  0.92361  0.34895  1.0000
  Fe  Fe235     1.0  0.86642  0.89469  0.46190  1.0000
  S   S470      1.0  0.85760  0.86027  0.45879  1.0000
  Fe  Fe236     1.0  0.86877  0.93762  0.43421  1.0000
  S   S471      1.0  0.86694  0.95599  0.39360  1.0000
  H   H1410     1.0  0.88605  0.89364  0.33412  1.0000
  S   S472      1.0  0.89264  0.90912  0.43816  1.0000
  H   H1411     1.0  0.91024  0.95558  0.41441  1.0000
  Fe  Fe237     1.0  0.93970  0.92554  0.20170  1.0000
  S   S473      1.0  0.91255  0.90469  0.20506  1.0000
  S   S474      1.0  0.97423  0.91307  0.19420  1.0000
  Fe  Fe238     1.0  0.90106  0.92623  0.24017  1.0000
  S   S475      1.0  0.89210  0.90994  0.27987  1.0000
  Fe  Fe239     1.0  0.89467  0.92844  0.17683  1.0000
  S   S476      1.0  0.88003  0.91393  0.13887  1.0000
  S   S477      1.0  0.92971  0.94552  0.23882  1.0000
  S   S478      1.0  0.92259  0.94818  0.17169  1.0000
  C   C1401     1.0  0.85751  0.95032  0.06030  1.0000
  S   S479      1.0  0.88007  0.94796  0.21233  1.0000
  H   H1412     1.0  0.90350  0.92986  0.04602  1.0000
  C   C1402     1.0  0.87143  0.92849  0.10902  1.0000
  C   C1403     1.0  0.86661  0.91710  0.08502  1.0000
  C   C1404     1.0  0.85994  0.92794  0.06068  1.0000
  H   H1413     1.0  0.86799  0.89977  0.08531  1.0000
  C   C1405     1.0  0.87712  0.94316  0.36314  1.0000
  C   C1406     1.0  0.88110  0.95549  0.33976  1.0000
  C   C1407     1.0  0.88683  0.94557  0.31436  1.0000
  C   C1408     1.0  0.88831  0.92321  0.31208  1.0000
  C   C1409     1.0  0.88496  0.91094  0.33567  1.0000
  H   H1414     1.0  0.76573  0.84933  0.48374  1.0000
  H   H1415     1.0  0.88932  0.95521  0.29634  1.0000
  C   C1410     1.0  0.98105  0.88566  0.18722  1.0000
  C   C1411     1.0  0.94372  0.95283  0.07854  1.0000
  H   H1416     1.0  0.97203  0.81616  0.24866  1.0000
  C   C1412     1.0  0.74911  0.78449  0.28460  1.0000
  C   C1413     1.0  0.96545  0.87092  0.18635  1.0000
  C   C1414     1.0  0.97149  0.84897  0.18303  1.0000
  C   C1415     1.0  0.74845  0.76218  0.07256  1.0000
  H   H1417     1.0  0.87657  0.99003  0.24524  1.0000
  H   H1418     1.0  0.94874  0.87630  0.18870  1.0000
  H   H1419     1.0  0.95932  0.83763  0.18301  1.0000
  S   S480      1.0  0.82383  0.69654  0.19614  1.0000
  C   C1416     1.0  0.91365  0.94334  0.04982  1.0000
  C   C1417     1.0  0.80303  0.71041  0.26437  1.0000
  S   S481      1.0  0.87950  0.95382  0.47297  1.0000
  C   C1418     1.0  0.99147  0.67003  0.44628  1.0000
  H   H1420     1.0  0.91230  0.91239  0.08795  1.0000
  H   H1421     1.0  0.85620  0.91899  0.04238  1.0000
  C   C1419     1.0  0.98751  0.87442  0.25367  1.0000
  H   H1422     1.0  0.82208  0.89673  0.00497  1.0000
  H   H1423     1.0  0.77397  0.82140  0.01401  1.0000
  C   C1420     1.0  0.79006  0.84537  0.43056  1.0000
  C   C1421     1.0  0.79657  0.86624  0.42855  1.0000
  C   C1422     1.0  0.81733  0.87084  0.43654  1.0000
  C   C1423     1.0  0.83188  0.85461  0.44667  1.0000
  C   C1424     1.0  0.82551  0.83361  0.44832  1.0000
  C   C1425     1.0  0.80463  0.82899  0.44037  1.0000
  H   H1424     1.0  0.78541  0.87898  0.42090  1.0000
  H   H1425     1.0  0.82202  0.88696  0.43483  1.0000
  H   H1426     1.0  0.83669  0.82093  0.45604  1.0000
  H   H1427     1.0  0.79980  0.81284  0.44199  1.0000
  C   C1426     1.0  0.75886  0.71466  0.03611  1.0000
  C   C1427     1.0  0.95768  0.94941  0.10110  1.0000
  H   H1428     1.0  0.75805  0.87436  0.46766  1.0000
  C   C1428     1.0  0.92516  0.92275  0.09126  1.0000
  H   H1429     1.0  0.97019  0.96010  0.10496  1.0000
  H   H1430     1.0  0.83633  0.90789  0.34777  1.0000
  H   H1431     1.0  0.83869  0.91080  0.29819  1.0000
  C   C1429     1.0  0.76993  0.76593  0.06891  1.0000
  C   C1430     1.0  0.91301  0.98373  0.99771  1.0000
  C   C1431     1.0  0.94718  0.98109  0.45091  1.0000
  H   H1432     1.0  0.94557  0.96630  0.06489  1.0000
  Fe  Fe240     1.0  0.90166  0.92443  0.47827  1.0000
  C   C1432     1.0  0.90800  0.98926  0.42438  1.0000
  C   C1433     1.0  0.96092  0.84943  0.25499  1.0000
  H   H1433     1.0  0.95083  0.89347  0.28260  1.0000
  C   C1434     1.0  0.76253  0.77377  0.02020  1.0000
  S   S482      1.0  0.78833  0.76262  0.09657  1.0000
  H   H1434     1.0  0.93629  0.90592  0.12818  1.0000
  H   H1435     1.0  0.94509  0.94809  0.43872  1.0000
  N   N120      1.0  0.92790  0.93939  0.07370  1.0000
  H   H1436     1.0  0.83170  0.98959  0.30841  1.0000
  S   S483      1.0  0.93516  0.92755  0.49449  1.0000
  S   S484      1.0  0.84203  0.92266  0.45644  1.0000
  C   C1435     1.0  0.83876  0.96310  0.28046  1.0000
  C   C1436     1.0  0.83207  0.66905  0.19259  1.0000
  S   S485      1.0  0.75613  0.77720  0.22944  1.0000
  H   H1437     1.0  0.75190  0.80095  0.28011  1.0000
  H   H1438     1.0  0.90111  0.97221  0.99941  1.0000
  H   H1439     1.0  0.81914  0.82857  0.00756  1.0000
  Fe  Fe241     1.0  0.74657  0.71789  0.16020  1.0000
  N   N121      1.0  0.96652  0.87010  0.25620  1.0000
  H   H1440     1.0  0.79357  0.77485  0.03981  1.0000
  C   C1437     1.0  0.79571  0.70908  0.29143  1.0000
  C   C1438     1.0  0.79618  0.74744  0.29566  1.0000
  C   C1439     1.0  0.77691  0.77198  0.04273  1.0000
  N   N122      1.0  0.80292  0.74864  0.26890  1.0000
  H   H1441     1.0  0.79619  0.78251  0.26601  1.0000
  C   C1440     1.0  0.79237  0.72768  0.30729  1.0000
  H   H1442     1.0  0.97842  0.68245  0.44702  1.0000
  C   C1441     1.0  0.95525  0.93223  0.11881  1.0000
  H   H1443     1.0  0.78629  0.72693  0.32822  1.0000
  H   H1444     1.0  0.84207  0.97315  0.26302  1.0000
  H   H1445     1.0  0.87920  0.97278  0.34108  1.0000
  C   C1442     1.0  0.82298  0.86233  0.00755  1.0000
  C   C1443     1.0  0.99006  0.67533  0.37620  1.0000
  C   C1444     1.0  0.93757  0.96432  0.43787  1.0000
  C   C1445     1.0  0.80715  0.76941  0.25717  1.0000
  C   C1446     1.0  0.84064  0.94086  0.27767  1.0000
  C   C1447     1.0  0.80669  0.73043  0.25343  1.0000
  H   H1446     1.0  0.86224  0.67260  0.21313  1.0000
  H   H1447     1.0  0.87314  0.95982  0.12686  1.0000
  H   H1448     1.0  0.86032  0.97908  0.08418  1.0000
  H   H1449     1.0  0.83996  0.86040  0.01259  1.0000
  H   H1450     1.0  0.96578  0.92951  0.13662  1.0000
  H   H1451     1.0  0.90282  0.95805  0.05326  1.0000
  H   H1452     1.0  0.80946  0.92088  0.34937  1.0000
  C   C1448     1.0  0.74562  0.77831  0.31202  1.0000
  C   C1449     1.0  0.86225  0.96175  0.08432  1.0000
  C   C1450     1.0  0.82917  0.95904  0.32829  1.0000
  C   C1451     1.0  0.74967  0.76934  0.26311  1.0000
  Fe  Fe242     1.0  0.90966  0.96602  0.20902  1.0000
  C   C1452     1.0  0.93879  0.91890  0.11401  1.0000
  H   H1453     1.0  0.97925  0.76080  0.12027  1.0000
  C   C1453     1.0  0.85218  0.66152  0.20325  1.0000
  C   C1454     1.0  0.91791  0.96849  0.42445  1.0000
  H   H1454     1.0  0.80584  0.69606  0.25180  1.0000
  H   H1455     1.0  0.95272  0.90133  0.24683  1.0000
  H   H1456     1.0  0.99187  0.89085  0.25395  1.0000
  H   H1457     1.0  0.76812  0.77782  0.99993  1.0000
  H   H1458     1.0  0.83127  0.93113  0.36880  1.0000
  H   H1459     1.0  0.82514  0.96628  0.34819  1.0000
  H   H1460     1.0  0.98664  0.69258  0.37567  1.0000
  Fe  Fe243     1.0  0.74689  0.80998  0.42147  1.0000
  H   H1461     1.0  0.74299  0.75772  0.09265  1.0000
  C   C1455     1.0  0.83295  0.97231  0.30590  1.0000
  N   N123      1.0  0.79004  0.84676  0.99670  1.0000
  C   C1456     1.0  0.81296  0.88274  0.00318  1.0000
  S   S486      1.0  0.74584  0.75367  0.15644  1.0000
  H   H1462     1.0  0.95665  0.66926  0.38034  1.0000
  C   C1457     1.0  0.97303  0.66227  0.37864  1.0000
  C   C1458     1.0  0.76000  0.70702  0.06316  1.0000
  H   H1463     1.0  0.74589  0.78994  0.32856  1.0000
  C   C1459     1.0  0.97652  0.83247  0.25061  1.0000
  C   C1460     1.0  0.76335  0.86688  0.48762  1.0000
  C   C1461     1.0  0.80385  0.74365  0.55992  1.0000
  C   C1462     1.0  0.87806  0.99049  0.87142  1.0000
  H   H1464     1.0  0.83211  0.94526  0.59464  1.0000
  Fe  Fe244     1.0  0.78546  0.71071  0.66817  1.0000
  S   S487      1.0  0.79121  0.74556  0.67088  1.0000
  H   H1465     1.0  0.75247  0.78610  0.50639  1.0000
  Fe  Fe245     1.0  0.76548  0.74753  0.70328  1.0000
  C   C1463     1.0  0.96327  0.95232  0.51967  1.0000
  Fe  Fe246     1.0  0.76434  0.75074  0.64017  1.0000
  S   S488      1.0  0.76762  0.77353  0.60460  1.0000
  S   S489      1.0  0.76181  0.71204  0.70322  1.0000
  S   S490      1.0  0.76038  0.71579  0.63504  1.0000
  C   C1464     1.0  0.77809  0.82769  0.99343  1.0000
  N   N124      1.0  0.87771  0.98888  0.84322  1.0000
  H   H1466     1.0  0.76891  0.90787  0.49679  1.0000
  H   H1467     1.0  0.85722  0.94302  0.63493  1.0000
  H   H1468     1.0  0.79084  0.74880  0.51878  1.0000
  H   H1469     1.0  0.75043  0.86975  0.50312  1.0000
  C   C1465     1.0  0.93554  0.98964  0.52148  1.0000
  S   S491      1.0  0.76592  0.84841  0.92374  1.0000
  S   S492      1.0  0.81143  0.68561  0.65502  1.0000
  S   S493      1.0  0.76259  0.78300  0.93248  1.0000
  N   N125      1.0  0.80676  0.72975  0.58160  1.0000
  H   H1470     1.0  0.92545  0.89807  0.66209  1.0000
  S   S494      1.0  0.92556  0.96284  0.94956  1.0000
  C   C1466     1.0  0.97150  0.84623  0.71697  1.0000
  S   S495      1.0  0.88429  0.92550  0.98565  1.0000
  Fe  Fe247     1.0  0.91533  0.95624  0.73711  1.0000
  H   H1471     1.0  0.81714  0.72483  0.62358  1.0000
  C   C1467     1.0  0.89482  0.97896  0.82946  1.0000
  H   H1472     1.0  0.80649  0.96520  0.83860  1.0000
  H   H1473     1.0  0.77744  0.71272  0.51553  1.0000
  Fe  Fe248     1.0  0.89464  0.94671  0.95172  1.0000
  Fe  Fe249     1.0  0.86490  0.90981  0.95283  1.0000
  S   S496      1.0  0.86024  0.87429  0.94866  1.0000
  Fe  Fe250     1.0  0.85086  0.95099  0.92440  1.0000
  H   H1474     1.0  0.83440  0.86053  0.51522  1.0000
  H   H1475     1.0  0.76338  0.86862  0.98593  1.0000
  S   S497      1.0  0.87938  0.92781  0.91834  1.0000
  H   H1476     1.0  0.88568  0.94333  0.53933  1.0000
  Fe  Fe251     1.0  0.92143  0.90775  0.72800  1.0000
  S   S498      1.0  0.88990  0.90728  0.70571  1.0000
  S   S499      1.0  0.94096  0.87639  0.73613  1.0000
  Fe  Fe252     1.0  0.87748  0.93030  0.73910  1.0000
  S   S500      1.0  0.84679  0.92942  0.76342  1.0000
  Fe  Fe253     1.0  0.89987  0.93640  0.68342  1.0000
  S   S501      1.0  0.90454  0.94083  0.63719  1.0000
  S   S502      1.0  0.90808  0.92827  0.76303  1.0000
  S   S503      1.0  0.93213  0.93568  0.70455  1.0000
  C   C1468     1.0  0.85716  0.94422  0.56412  1.0000
  C   C1469     1.0  0.87932  0.94306  0.56004  1.0000
  C   C1470     1.0  0.89339  0.94194  0.58275  1.0000
  C   C1471     1.0  0.88561  0.94183  0.60985  1.0000
  S   S504      1.0  0.88406  0.95938  0.71419  1.0000
  H   H1477     1.0  0.98024  0.68445  0.93255  1.0000
  H   H1478     1.0  0.77193  0.66768  0.73258  1.0000
  C   C1472     1.0  0.83806  0.95384  0.85263  1.0000
  C   C1473     1.0  0.85790  0.94365  0.84468  1.0000
  C   C1474     1.0  0.86137  0.93717  0.81691  1.0000
  C   C1475     1.0  0.84473  0.94012  0.79732  1.0000
  C   C1476     1.0  0.82497  0.95005  0.80556  1.0000
  H   H1479     1.0  0.87066  0.94105  0.85971  1.0000
  H   H1480     1.0  0.87659  0.92914  0.81095  1.0000
  C   C1477     1.0  0.95658  0.99000  0.53150  1.0000
  C   C1478     1.0  0.82432  0.66749  0.67876  1.0000
  C   C1479     1.0  0.78915  0.70316  0.55610  1.0000
  C   C1480     1.0  0.96143  0.86689  0.71322  1.0000
  C   C1481     1.0  0.96791  0.87951  0.69149  1.0000
  C   C1482     1.0  0.76330  0.76331  0.77377  1.0000
  S   S505      1.0  0.83943  0.94557  0.53540  1.0000
  C   C1483     1.0  0.75778  0.78128  0.55019  1.0000
  H   H1481     1.0  0.96055  0.89557  0.68882  1.0000
  C   C1484     1.0  0.79131  0.88502  0.99578  1.0000
  H   H1482     1.0  0.76115  0.78658  0.83766  1.0000
  C   C1485     1.0  0.92837  0.97045  0.51078  1.0000
  S   S506      1.0  0.86690  0.97121  0.95528  1.0000
  C   C1486     1.0  0.86836  0.87968  0.83035  1.0000
  H   H1483     1.0  0.85158  0.88408  0.79142  1.0000
  C   C1487     1.0  0.84924  0.94431  0.59127  1.0000
  H   H1484     1.0  0.80195  0.91896  0.85148  1.0000
  C   C1488     1.0  0.86344  0.94298  0.61412  1.0000
  C   C1489     1.0  0.82181  0.95724  0.83279  1.0000
  C   C1490     1.0  0.98434  0.87150  0.67366  1.0000
  C   C1491     1.0  0.79289  0.85426  0.92774  1.0000
  C   C1492     1.0  0.79722  0.87584  0.92717  1.0000
  C   C1493     1.0  0.81788  0.88192  0.93269  1.0000
  C   C1494     1.0  0.83454  0.86654  0.93920  1.0000
  C   C1495     1.0  0.83044  0.84478  0.93893  1.0000
  C   C1496     1.0  0.80964  0.83861  0.93318  1.0000
  H   H1485     1.0  0.78436  0.88803  0.92297  1.0000
  H   H1486     1.0  0.82074  0.89858  0.93214  1.0000
  H   H1487     1.0  0.84327  0.83271  0.94364  1.0000
  H   H1488     1.0  0.80650  0.82188  0.93343  1.0000
  H   H1489     1.0  0.91046  0.94117  0.57920  1.0000
  Fe  Fe254     1.0  0.74393  0.77375  0.89466  1.0000
  C   C1497     1.0  0.82009  0.89298  0.51610  1.0000
  C   C1498     1.0  0.85068  0.88593  0.81372  1.0000
  H   H1490     1.0  0.98953  0.88141  0.65714  1.0000
  N   N126      1.0  0.78306  0.87575  0.49733  1.0000
  S   S507      1.0  0.92873  0.98445  0.75807  1.0000
  C   C1499     1.0  0.79362  0.73757  0.53569  1.0000
  H   H1491     1.0  0.76639  0.79542  0.78844  1.0000
  C   C1500     1.0  0.81127  0.90834  0.86634  1.0000
  C   C1501     1.0  0.75987  0.74234  0.78138  1.0000
  C   C1502     1.0  0.75564  0.76763  0.57279  1.0000
  C   C1503     1.0  0.91315  0.97146  0.87277  1.0000
  H   H1492     1.0  0.91425  0.89482  0.55089  1.0000
  H   H1493     1.0  0.88302  0.87261  0.82107  1.0000
  H   H1494     1.0  0.80889  0.75978  0.56161  1.0000
  C   C1504     1.0  0.81799  0.73647  0.60641  1.0000
  H   H1495     1.0  0.80746  0.68017  0.71460  1.0000
  C   C1505     1.0  0.75029  0.77580  0.52387  1.0000
  H   H1496     1.0  0.76569  0.79589  0.55294  1.0000
  H   H1497     1.0  0.94915  0.91075  0.54743  1.0000
  H   H1498     1.0  0.97064  0.91604  0.58997  1.0000
  S   S508      1.0  0.83575  0.93268  0.95812  1.0000
  C   C1506     1.0  0.92681  0.98303  0.97502  1.0000
  S   S509      1.0  0.76749  0.77047  0.73913  1.0000
  Fe  Fe255     1.0  0.75075  0.81678  0.92093  1.0000
  C   C1507     1.0  0.84816  0.89224  0.87035  1.0000
  H   H1499     1.0  0.80210  0.69860  0.59707  1.0000
  C   C1508     1.0  0.97022  0.97120  0.53091  1.0000
  S   S510      1.0  0.83279  0.96367  0.88648  1.0000
  C   C1509     1.0  0.94238  0.95178  0.50944  1.0000
  H   H1500     1.0  0.78775  0.81502  0.98182  1.0000
  C   C1510     1.0  0.81989  0.87096  0.51198  1.0000
  H   H1501     1.0  0.81197  0.95226  0.79073  1.0000
  H   H1502     1.0  0.78323  0.68738  0.55497  1.0000
  H   H1503     1.0  0.84738  0.89463  0.89251  1.0000
  C   C1511     1.0  0.76051  0.77425  0.82210  1.0000
  C   C1512     1.0  0.78608  0.71726  0.53390  1.0000
  C   C1513     1.0  0.89573  0.98177  0.88658  1.0000
  H   H1504     1.0  0.96648  0.83639  0.73367  1.0000
  H   H1505     1.0  0.92620  0.96215  0.83288  1.0000
  H   H1506     1.0  0.92686  0.96453  0.88448  1.0000
  C   C1514     1.0  0.86708  0.88271  0.85889  1.0000
  H   H1507     1.0  0.81495  0.91855  0.88433  1.0000
  C   C1515     1.0  0.74535  0.74883  0.56915  1.0000
  H   H1508     1.0  0.75439  0.72108  0.81523  1.0000
  H   H1509     1.0  0.80117  0.89558  0.87321  1.0000
  N   N127      1.0  0.83103  0.89865  0.85384  1.0000
  H   H1510     1.0  0.88062  0.87780  0.87216  1.0000
  C   C1516     1.0  0.79974  0.70965  0.57989  1.0000
  N   N128      1.0  0.92844  0.89385  0.61858  1.0000
  C   C1517     1.0  0.94773  0.90260  0.61682  1.0000
  C   C1518     1.0  0.91656  0.89082  0.59526  1.0000
  C   C1519     1.0  0.95547  0.90886  0.59125  1.0000
  C   C1520     1.0  0.92388  0.89678  0.56933  1.0000
  C   C1521     1.0  0.94344  0.90588  0.56739  1.0000
  C   C1522     1.0  0.92095  0.88694  0.64552  1.0000
  H   H1511     1.0  0.95709  0.90503  0.63534  1.0000
  H   H1512     1.0  0.90116  0.88412  0.59666  1.0000
  C   C1523     1.0  0.76356  0.77922  0.79421  1.0000
  C   C1524     1.0  0.93474  0.98133  0.59435  1.0000
  H   H1513     1.0  0.91215  0.97026  0.50332  1.0000
  H   H1514     1.0  0.92819  0.87061  0.65044  1.0000
  C   C1525     1.0  0.83197  0.89528  0.82591  1.0000
  H   H1515     1.0  0.90318  0.88711  0.64601  1.0000
  C   C1526     1.0  0.78316  0.89740  0.50116  1.0000
  H   H1516     1.0  0.81060  0.75216  0.61388  1.0000
  H   H1517     1.0  0.89590  0.98286  0.90895  1.0000
  H   H1518     1.0  0.83515  0.73798  0.60176  1.0000
  H   H1519     1.0  0.81846  0.90042  0.81270  1.0000
  C   C1527     1.0  0.91275  0.97007  0.84398  1.0000
  H   H1520     1.0  0.93065  0.97322  0.61378  1.0000
  H   H1521     1.0  0.93211  0.97058  0.57659  1.0000
  H   H1522     1.0  0.89383  0.98615  0.57853  1.0000
  H   H1523     1.0  0.98382  0.80200  0.59023  1.0000
  H   H1524     1.0  0.74351  0.73829  0.58639  1.0000
  H   H1525     1.0  0.83455  0.89975  0.52330  1.0000
  Fe  Fe256     1.0  0.85600  0.94960  0.98841  1.0000
  C   C1528     1.0  0.75721  0.75329  0.82980  1.0000
  C   C1529     1.0  0.80109  0.86253  0.50270  1.0000
  H   H1526     1.0  0.80181  0.92352  0.51370  1.0000
  H   H1527     1.0  0.75971  0.72997  0.76578  1.0000
  H   H1528     1.0  0.89456  0.97754  0.80714  1.0000
  C   C1530     1.0  0.75691  0.73734  0.80938  1.0000
  H   H1529     1.0  0.85679  0.98967  0.80816  1.0000
  S   S511      1.0  0.75277  0.74678  0.86465  1.0000
  C   C1531     1.0  0.98792  0.83822  0.69911  1.0000
  H   H1530     1.0  0.98642  0.97129  0.53889  1.0000
  C   C1532     1.0  0.80165  0.90633  0.51067  1.0000
  C   C1533     1.0  0.81895  0.66784  0.70678  1.0000
  C   C1534     1.0  0.74660  0.66242  0.68311  1.0000
  H   H1531     1.0  0.76305  0.83124  0.98135  1.0000
  H   H1532     1.0  0.80121  0.84542  0.49915  1.0000
  H   H1533     1.0  0.78349  0.90081  0.99179  1.0000
  C   C1535     1.0  0.74506  0.66311  0.65428  1.0000
  C   C1536     1.0  0.78002  0.86675  0.99260  1.0000
  S   S512      1.0  0.87882  0.90622  0.50241  1.0000
  H   H1534     1.0  0.97425  0.93807  0.51877  1.0000
  H   H1535     1.0  0.88217  0.99039  0.75310  1.0000
  H   H1536     1.0  0.95212  0.98394  0.59452  1.0000
